MODEL 1
REMARK VINA RESULT:      -7.5      0.000      0.000
REMARK  Name = 
REMARK  15 active torsions:
REMARK  status: ('A' for Active; 'I' for Inactive)
REMARK    1  A    between atoms: C_1  and  C_2
REMARK    2  A    between atoms: C_3  and  C_4
REMARK    3  A    between atoms: C_5  and  C_6
REMARK    4  A    between atoms: C_6  and  C_7
REMARK    5  A    between atoms: C_8  and  C_9
REMARK    6  A    between atoms: C_10  and  C_11
REMARK    7  A    between atoms: C_11  and  C_12
REMARK    8  A    between atoms: C_13  and  C_14
REMARK    9  A    between atoms: N_16  and  CA_17
REMARK   10  A    between atoms: CA_17  and  CB_18
REMARK   11  A    between atoms: CA_17  and  C_20
REMARK   12  A    between atoms: CB_18  and  OG_19
REMARK   13  A    between atoms: C_20  and  OXT_22
REMARK   14  A    between atoms: C_23  and  C_24
REMARK   15  A    between atoms: C_23  and  C_25
REMARK                            x       y       z     vdW  Elec       q    Type
REMARK                         _______ _______ _______ _____ _____    ______ ____
ROOT
ATOM      1  C   UNK A   0       7.857   8.476  17.808  0.00  0.00    +0.000 C 
ATOM      2  C   UNK A   0       7.373   7.578  16.927  0.00  0.00    +0.000 C 
ENDROOT
BRANCH   1   5
ATOM      3  C   UNK A   0       9.105  10.556  18.410  0.00  0.00    +0.000 C 
ATOM      4  C   UNK A   0       9.364  10.035  19.808  0.00  0.00    +0.000 C 
ATOM      5  C   UNK A   0       8.386   9.810  17.526  0.00  0.00    +0.000 C 
BRANCH   3   7
ATOM      6  C   UNK A   0       9.387  13.061  18.633  0.00  0.00    +0.000 C 
ATOM      7  C   UNK A   0       9.631  11.880  18.025  0.00  0.00    +0.000 C 
BRANCH   6  10
ATOM      8  C   UNK A   0       7.594  15.420  18.043  0.00  0.00    +0.000 C 
ATOM      9  C   UNK A   0       9.100  15.423  17.938  0.00  0.00    +0.000 C 
ATOM     10  C   UNK A   0       9.914  14.381  18.247  0.00  0.00    +0.000 C 
ATOM     11  C   UNK A   0      11.460  14.554  18.318  0.00  0.00    +0.000 C 
ATOM     12  C   UNK A   0      12.066  14.027  19.642  0.00  0.00    +0.000 C 
ATOM     13  C   UNK A   0      12.131  13.797  17.151  0.00  0.00    +0.000 C 
ATOM     14  C   UNK A   0      11.876  16.053  18.246  0.00  0.00    +0.000 C 
ATOM     15  C   UNK A   0      11.109  16.810  17.178  0.00  0.00    +0.000 C 
ATOM     16  C   UNK A   0       9.624  16.776  17.498  0.00  0.00    +0.000 C 
ENDBRANCH   6  10
ENDBRANCH   3   7
ENDBRANCH   1   5
BRANCH   2  17
ATOM     17  C   UNK A   0       6.881   6.236  17.300  0.00  0.00    +0.000 C 
ATOM     18  C   UNK A   0       7.593   5.519  18.431  0.00  0.00    +0.000 C 
ATOM     19  C   UNK A   0       5.834   5.670  16.655  0.00  0.00    +0.000 C 
BRANCH  19  20
ATOM     20  C   UNK A   0       5.344   4.289  16.953  0.00  0.00    +0.000 C 
ATOM     21  O   UNK A   0       5.783   3.276  16.417  0.00  0.00    +0.000 OA
ATOM     22  N   SER A   1       4.364   4.185  17.902  0.00  0.00    +0.000 N 
ATOM     23  H   SER A   1       3.994   4.996  18.388  0.00  0.00    +0.000 HD
BRANCH  22  24
ATOM     24  CA  SER A   1       3.799   2.867  18.235  0.00  0.00    +0.000 C 
BRANCH  24  25
ATOM     25  C   SER A   1       2.305   2.851  17.930  0.00  0.00    +0.000 C 
ATOM     26  O   SER A   1       1.730   3.737  17.318  0.00  0.00    +0.000 OA
BRANCH  25  27
ATOM     27  OXT SER A   1       1.656   1.767  18.419  0.00  0.00    +0.000 OA
ATOM     28  HXT SER A   1       1.764   1.609  19.377  0.00  0.00    +0.000 HD
ENDBRANCH  25  27
ENDBRANCH  24  25
BRANCH  24  29
ATOM     29  CB  SER A   1       4.010   2.493  19.709  0.00  0.00    +0.000 C 
BRANCH  29  30
ATOM     30  OG  SER A   1       3.105   3.149  20.594  0.00  0.00    +0.000 OA
ATOM     31  H   SER A   1       3.617   3.656  21.257  0.00  0.00    +0.000 HD
ENDBRANCH  29  30
ENDBRANCH  24  29
ENDBRANCH  22  24
ENDBRANCH  19  20
ENDBRANCH   2  17
TORSDOF 10
ENDMDL
MODEL 2
REMARK VINA RESULT:      -7.1      7.145      9.314
REMARK  Name = 
REMARK  15 active torsions:
REMARK  status: ('A' for Active; 'I' for Inactive)
REMARK    1  A    between atoms: C_1  and  C_2
REMARK    2  A    between atoms: C_3  and  C_4
REMARK    3  A    between atoms: C_5  and  C_6
REMARK    4  A    between atoms: C_6  and  C_7
REMARK    5  A    between atoms: C_8  and  C_9
REMARK    6  A    between atoms: C_10  and  C_11
REMARK    7  A    between atoms: C_11  and  C_12
REMARK    8  A    between atoms: C_13  and  C_14
REMARK    9  A    between atoms: N_16  and  CA_17
REMARK   10  A    between atoms: CA_17  and  CB_18
REMARK   11  A    between atoms: CA_17  and  C_20
REMARK   12  A    between atoms: CB_18  and  OG_19
REMARK   13  A    between atoms: C_20  and  OXT_22
REMARK   14  A    between atoms: C_23  and  C_24
REMARK   15  A    between atoms: C_23  and  C_25
REMARK                            x       y       z     vdW  Elec       q    Type
REMARK                         _______ _______ _______ _____ _____    ______ ____
ROOT
ATOM      1  C   UNK A   0       2.916   6.792  18.564  0.00  0.00    +0.000 C 
ATOM      2  C   UNK A   0       2.976   5.446  18.522  0.00  0.00    +0.000 C 
ENDROOT
BRANCH   1   5
ATOM      3  C   UNK A   0       1.620   8.850  19.140  0.00  0.00    +0.000 C 
ATOM      4  C   UNK A   0       1.926   9.460  17.788  0.00  0.00    +0.000 C 
ATOM      5  C   UNK A   0       2.116   7.623  19.463  0.00  0.00    +0.000 C 
BRANCH   3   7
ATOM      6  C   UNK A   0      -0.106  10.572  19.816  0.00  0.00    +0.000 C 
ATOM      7  C   UNK A   0       0.790   9.603  20.100  0.00  0.00    +0.000 C 
BRANCH   6  10
ATOM      8  C   UNK A   0      -0.119   9.965  22.775  0.00  0.00    +0.000 C 
ATOM      9  C   UNK A   0      -0.971  11.011  22.097  0.00  0.00    +0.000 C 
ATOM     10  C   UNK A   0      -0.935  11.321  20.775  0.00  0.00    +0.000 C 
ATOM     11  C   UNK A   0      -1.689  12.563  20.214  0.00  0.00    +0.000 C 
ATOM     12  C   UNK A   0      -0.785  13.480  19.355  0.00  0.00    +0.000 C 
ATOM     13  C   UNK A   0      -2.878  12.108  19.339  0.00  0.00    +0.000 C 
ATOM     14  C   UNK A   0      -2.230  13.473  21.356  0.00  0.00    +0.000 C 
ATOM     15  C   UNK A   0      -2.879  12.673  22.469  0.00  0.00    +0.000 C 
ATOM     16  C   UNK A   0      -1.850  11.743  23.092  0.00  0.00    +0.000 C 
ENDBRANCH   6  10
ENDBRANCH   3   7
ENDBRANCH   1   5
BRANCH   2  17
ATOM     17  C   UNK A   0       3.797   4.686  17.557  0.00  0.00    +0.000 C 
ATOM     18  C   UNK A   0       3.398   3.250  17.277  0.00  0.00    +0.000 C 
ATOM     19  C   UNK A   0       4.865   5.252  16.948  0.00  0.00    +0.000 C 
BRANCH  19  20
ATOM     20  C   UNK A   0       5.765   4.503  16.017  0.00  0.00    +0.000 C 
ATOM     21  O   UNK A   0       6.709   3.812  16.385  0.00  0.00    +0.000 OA
ATOM     22  N   SER A   1       5.471   4.598  14.684  0.00  0.00    +0.000 N 
ATOM     23  H   SER A   1       4.682   5.137  14.341  0.00  0.00    +0.000 HD
BRANCH  22  24
ATOM     24  CA  SER A   1       6.323   3.920  13.693  0.00  0.00    +0.000 C 
BRANCH  24  25
ATOM     25  C   SER A   1       7.372   4.890  13.161  0.00  0.00    +0.000 C 
ATOM     26  O   SER A   1       8.012   5.651  13.870  0.00  0.00    +0.000 OA
BRANCH  25  27
ATOM     27  OXT SER A   1       7.524   4.851  11.815  0.00  0.00    +0.000 OA
ATOM     28  HXT SER A   1       7.541   3.958  11.420  0.00  0.00    +0.000 HD
ENDBRANCH  25  27
ENDBRANCH  24  25
BRANCH  24  29
ATOM     29  CB  SER A   1       5.518   3.361  12.511  0.00  0.00    +0.000 C 
BRANCH  29  30
ATOM     30  OG  SER A   1       6.162   2.273  11.852  0.00  0.00    +0.000 OA
ATOM     31  H   SER A   1       7.009   2.585  11.473  0.00  0.00    +0.000 HD
ENDBRANCH  29  30
ENDBRANCH  24  29
ENDBRANCH  22  24
ENDBRANCH  19  20
ENDBRANCH   2  17
TORSDOF 10
ENDMDL
MODEL 3
REMARK VINA RESULT:      -7.0      0.873      1.887
REMARK  Name = 
REMARK  15 active torsions:
REMARK  status: ('A' for Active; 'I' for Inactive)
REMARK    1  A    between atoms: C_1  and  C_2
REMARK    2  A    between atoms: C_3  and  C_4
REMARK    3  A    between atoms: C_5  and  C_6
REMARK    4  A    between atoms: C_6  and  C_7
REMARK    5  A    between atoms: C_8  and  C_9
REMARK    6  A    between atoms: C_10  and  C_11
REMARK    7  A    between atoms: C_11  and  C_12
REMARK    8  A    between atoms: C_13  and  C_14
REMARK    9  A    between atoms: N_16  and  CA_17
REMARK   10  A    between atoms: CA_17  and  CB_18
REMARK   11  A    between atoms: CA_17  and  C_20
REMARK   12  A    between atoms: CB_18  and  OG_19
REMARK   13  A    between atoms: C_20  and  OXT_22
REMARK   14  A    between atoms: C_23  and  C_24
REMARK   15  A    between atoms: C_23  and  C_25
REMARK                            x       y       z     vdW  Elec       q    Type
REMARK                         _______ _______ _______ _____ _____    ______ ____
ROOT
ATOM      1  C   UNK A   0       8.081   8.417  17.684  0.00  0.00    +0.000 C 
ATOM      2  C   UNK A   0       6.835   7.943  17.485  0.00  0.00    +0.000 C 
ENDROOT
BRANCH   1   5
ATOM      3  C   UNK A   0       9.068  10.568  18.489  0.00  0.00    +0.000 C 
ATOM      4  C   UNK A   0       9.129  10.045  19.909  0.00  0.00    +0.000 C 
ATOM      5  C   UNK A   0       8.556   9.787  17.496  0.00  0.00    +0.000 C 
BRANCH   3   7
ATOM      6  C   UNK A   0      10.406  12.665  18.949  0.00  0.00    +0.000 C 
ATOM      7  C   UNK A   0       9.559  11.929  18.199  0.00  0.00    +0.000 C 
BRANCH   6  10
ATOM      8  C   UNK A   0      12.298  13.256  16.668  0.00  0.00    +0.000 C 
ATOM      9  C   UNK A   0      11.783  14.273  17.659  0.00  0.00    +0.000 C 
ATOM     10  C   UNK A   0      10.896  14.023  18.657  0.00  0.00    +0.000 C 
ATOM     11  C   UNK A   0      10.259  15.179  19.483  0.00  0.00    +0.000 C 
ATOM     12  C   UNK A   0       8.714  15.096  19.545  0.00  0.00    +0.000 C 
ATOM     13  C   UNK A   0      10.797  15.152  20.931  0.00  0.00    +0.000 C 
ATOM     14  C   UNK A   0      10.571  16.571  18.861  0.00  0.00    +0.000 C 
ATOM     15  C   UNK A   0      12.021  16.698  18.435  0.00  0.00    +0.000 C 
ATOM     16  C   UNK A   0      12.331  15.657  17.372  0.00  0.00    +0.000 C 
ENDBRANCH   6  10
ENDBRANCH   3   7
ENDBRANCH   1   5
BRANCH   2  17
ATOM     17  C   UNK A   0       6.448   6.530  17.676  0.00  0.00    +0.000 C 
ATOM     18  C   UNK A   0       7.240   5.717  18.682  0.00  0.00    +0.000 C 
ATOM     19  C   UNK A   0       5.424   5.984  16.978  0.00  0.00    +0.000 C 
BRANCH  19  20
ATOM     20  C   UNK A   0       5.040   4.543  17.088  0.00  0.00    +0.000 C 
ATOM     21  O   UNK A   0       5.557   3.644  16.433  0.00  0.00    +0.000 OA
ATOM     22  N   SER A   1       4.066   4.244  18.002  0.00  0.00    +0.000 N 
ATOM     23  H   SER A   1       3.633   4.955  18.583  0.00  0.00    +0.000 HD
BRANCH  22  24
ATOM     24  CA  SER A   1       3.602   2.855  18.155  0.00  0.00    +0.000 C 
BRANCH  24  25
ATOM     25  C   SER A   1       2.082   2.802  18.051  0.00  0.00    +0.000 C 
ATOM     26  O   SER A   1       1.386   2.033  18.695  0.00  0.00    +0.000 OA
BRANCH  25  27
ATOM     27  OXT SER A   1       1.561   3.677  17.157  0.00  0.00    +0.000 OA
ATOM     28  HXT SER A   1       2.188   4.333  16.797  0.00  0.00    +0.000 HD
ENDBRANCH  25  27
ENDBRANCH  24  25
BRANCH  24  29
ATOM     29  CB  SER A   1       4.031   2.236  19.492  0.00  0.00    +0.000 C 
BRANCH  29  30
ATOM     30  OG  SER A   1       3.369   2.808  20.618  0.00  0.00    +0.000 OA
ATOM     31  H   SER A   1       3.867   3.597  20.915  0.00  0.00    +0.000 HD
ENDBRANCH  29  30
ENDBRANCH  24  29
ENDBRANCH  22  24
ENDBRANCH  19  20
ENDBRANCH   2  17
TORSDOF 10
ENDMDL
MODEL 4
REMARK VINA RESULT:      -7.0      8.261     10.305
REMARK  Name = 
REMARK  15 active torsions:
REMARK  status: ('A' for Active; 'I' for Inactive)
REMARK    1  A    between atoms: C_1  and  C_2
REMARK    2  A    between atoms: C_3  and  C_4
REMARK    3  A    between atoms: C_5  and  C_6
REMARK    4  A    between atoms: C_6  and  C_7
REMARK    5  A    between atoms: C_8  and  C_9
REMARK    6  A    between atoms: C_10  and  C_11
REMARK    7  A    between atoms: C_11  and  C_12
REMARK    8  A    between atoms: C_13  and  C_14
REMARK    9  A    between atoms: N_16  and  CA_17
REMARK   10  A    between atoms: CA_17  and  CB_18
REMARK   11  A    between atoms: CA_17  and  C_20
REMARK   12  A    between atoms: CB_18  and  OG_19
REMARK   13  A    between atoms: C_20  and  OXT_22
REMARK   14  A    between atoms: C_23  and  C_24
REMARK   15  A    between atoms: C_23  and  C_25
REMARK                            x       y       z     vdW  Elec       q    Type
REMARK                         _______ _______ _______ _____ _____    ______ ____
ROOT
ATOM      1  C   UNK A   0       0.468   8.173  21.258  0.00  0.00    +0.000 C 
ATOM      2  C   UNK A   0       1.695   8.066  20.710  0.00  0.00    +0.000 C 
ENDROOT
BRANCH   1   5
ATOM      3  C   UNK A   0      -0.487  10.466  21.536  0.00  0.00    +0.000 C 
ATOM      4  C   UNK A   0      -0.384  10.724  20.048  0.00  0.00    +0.000 C 
ATOM      5  C   UNK A   0      -0.061   9.279  22.054  0.00  0.00    +0.000 C 
BRANCH   3   7
ATOM      6  C   UNK A   0      -1.802  12.566  22.044  0.00  0.00    +0.000 C 
ATOM      7  C   UNK A   0      -1.042  11.514  22.414  0.00  0.00    +0.000 C 
BRANCH   6  10
ATOM      8  C   UNK A   0      -0.258  15.054  22.788  0.00  0.00    +0.000 C 
ATOM      9  C   UNK A   0      -1.638  14.703  23.290  0.00  0.00    +0.000 C 
ATOM     10  C   UNK A   0      -2.356  13.611  22.923  0.00  0.00    +0.000 C 
ATOM     11  C   UNK A   0      -3.853  13.453  23.323  0.00  0.00    +0.000 C 
ATOM     12  C   UNK A   0      -4.769  13.132  22.117  0.00  0.00    +0.000 C 
ATOM     13  C   UNK A   0      -4.007  12.315  24.357  0.00  0.00    +0.000 C 
ATOM     14  C   UNK A   0      -4.426  14.765  23.936  0.00  0.00    +0.000 C 
ATOM     15  C   UNK A   0      -3.472  15.399  24.930  0.00  0.00    +0.000 C 
ATOM     16  C   UNK A   0      -2.176  15.767  24.228  0.00  0.00    +0.000 C 
ENDBRANCH   6  10
ENDBRANCH   3   7
ENDBRANCH   1   5
BRANCH   2  17
ATOM     17  C   UNK A   0       2.156   6.894  19.938  0.00  0.00    +0.000 C 
ATOM     18  C   UNK A   0       1.974   5.526  20.567  0.00  0.00    +0.000 C 
ATOM     19  C   UNK A   0       2.719   7.038  18.715  0.00  0.00    +0.000 C 
BRANCH  19  20
ATOM     20  C   UNK A   0       3.261   5.888  17.927  0.00  0.00    +0.000 C 
ATOM     21  O   UNK A   0       2.584   4.939  17.545  0.00  0.00    +0.000 OA
ATOM     22  N   SER A   1       4.591   5.945  17.610  0.00  0.00    +0.000 N 
ATOM     23  H   SER A   1       5.180   6.725  17.883  0.00  0.00    +0.000 HD
BRANCH  22  24
ATOM     24  CA  SER A   1       5.217   4.840  16.864  0.00  0.00    +0.000 C 
BRANCH  24  25
ATOM     25  C   SER A   1       6.570   4.500  17.479  0.00  0.00    +0.000 C 
ATOM     26  O   SER A   1       7.627   4.580  16.874  0.00  0.00    +0.000 OA
BRANCH  25  27
ATOM     27  OXT SER A   1       6.499   4.075  18.763  0.00  0.00    +0.000 OA
ATOM     28  HXT SER A   1       5.981   4.643  19.366  0.00  0.00    +0.000 HD
ENDBRANCH  25  27
ENDBRANCH  24  25
BRANCH  24  29
ATOM     29  CB  SER A   1       5.415   5.173  15.379  0.00  0.00    +0.000 C 
BRANCH  29  30
ATOM     30  OG  SER A   1       5.915   4.078  14.615  0.00  0.00    +0.000 OA
ATOM     31  H   SER A   1       5.726   4.236  13.668  0.00  0.00    +0.000 HD
ENDBRANCH  29  30
ENDBRANCH  24  29
ENDBRANCH  22  24
ENDBRANCH  19  20
ENDBRANCH   2  17
TORSDOF 10
ENDMDL
MODEL 5
REMARK VINA RESULT:      -6.9      1.121      1.404
REMARK  Name = 
REMARK  15 active torsions:
REMARK  status: ('A' for Active; 'I' for Inactive)
REMARK    1  A    between atoms: C_1  and  C_2
REMARK    2  A    between atoms: C_3  and  C_4
REMARK    3  A    between atoms: C_5  and  C_6
REMARK    4  A    between atoms: C_6  and  C_7
REMARK    5  A    between atoms: C_8  and  C_9
REMARK    6  A    between atoms: C_10  and  C_11
REMARK    7  A    between atoms: C_11  and  C_12
REMARK    8  A    between atoms: C_13  and  C_14
REMARK    9  A    between atoms: N_16  and  CA_17
REMARK   10  A    between atoms: CA_17  and  CB_18
REMARK   11  A    between atoms: CA_17  and  C_20
REMARK   12  A    between atoms: CB_18  and  OG_19
REMARK   13  A    between atoms: C_20  and  OXT_22
REMARK   14  A    between atoms: C_23  and  C_24
REMARK   15  A    between atoms: C_23  and  C_25
REMARK                            x       y       z     vdW  Elec       q    Type
REMARK                         _______ _______ _______ _____ _____    ______ ____
ROOT
ATOM      1  C   UNK A   0       7.490   8.420  17.810  0.00  0.00    +0.000 C 
ATOM      2  C   UNK A   0       7.440   7.324  17.027  0.00  0.00    +0.000 C 
ENDROOT
BRANCH   1   5
ATOM      3  C   UNK A   0       8.974  10.294  18.538  0.00  0.00    +0.000 C 
ATOM      4  C   UNK A   0       8.986   9.774  19.961  0.00  0.00    +0.000 C 
ATOM      5  C   UNK A   0       8.252   9.646  17.581  0.00  0.00    +0.000 C 
BRANCH   3   7
ATOM      6  C   UNK A   0       9.294  12.782  18.209  0.00  0.00    +0.000 C 
ATOM      7  C   UNK A   0       9.744  11.509  18.207  0.00  0.00    +0.000 C 
BRANCH   6  10
ATOM      8  C   UNK A   0       8.011  15.505  17.953  0.00  0.00    +0.000 C 
ATOM      9  C   UNK A   0       9.473  15.205  17.720  0.00  0.00    +0.000 C 
ATOM     10  C   UNK A   0      10.064  13.993  17.880  0.00  0.00    +0.000 C 
ATOM     11  C   UNK A   0      11.613  13.835  17.831  0.00  0.00    +0.000 C 
ATOM     12  C   UNK A   0      12.180  13.075  19.055  0.00  0.00    +0.000 C 
ATOM     13  C   UNK A   0      12.026  13.065  16.557  0.00  0.00    +0.000 C 
ATOM     14  C   UNK A   0      12.333  15.215  17.835  0.00  0.00    +0.000 C 
ATOM     15  C   UNK A   0      11.676  16.209  16.896  0.00  0.00    +0.000 C 
ATOM     16  C   UNK A   0      10.243  16.455  17.339  0.00  0.00    +0.000 C 
ENDBRANCH   6  10
ENDBRANCH   3   7
ENDBRANCH   1   5
BRANCH   2  17
ATOM     17  C   UNK A   0       6.659   6.112  17.351  0.00  0.00    +0.000 C 
ATOM     18  C   UNK A   0       7.420   4.903  17.861  0.00  0.00    +0.000 C 
ATOM     19  C   UNK A   0       5.314   6.084  17.197  0.00  0.00    +0.000 C 
BRANCH  19  20
ATOM     20  C   UNK A   0       4.490   4.861  17.448  0.00  0.00    +0.000 C 
ATOM     21  O   UNK A   0       4.274   3.996  16.605  0.00  0.00    +0.000 OA
ATOM     22  N   SER A   1       3.984   4.721  18.711  0.00  0.00    +0.000 N 
ATOM     23  H   SER A   1       4.162   5.400  19.444  0.00  0.00    +0.000 HD
BRANCH  22  24
ATOM     24  CA  SER A   1       3.134   3.564  19.038  0.00  0.00    +0.000 C 
BRANCH  24  25
ATOM     25  C   SER A   1       2.198   3.916  20.190  0.00  0.00    +0.000 C 
ATOM     26  O   SER A   1       1.193   3.280  20.464  0.00  0.00    +0.000 OA
BRANCH  25  27
ATOM     27  OXT SER A   1       2.569   5.022  20.880  0.00  0.00    +0.000 OA
ATOM     28  HXT SER A   1       3.126   4.859  21.665  0.00  0.00    +0.000 HD
ENDBRANCH  25  27
ENDBRANCH  24  25
BRANCH  24  29
ATOM     29  CB  SER A   1       3.953   2.324  19.425  0.00  0.00    +0.000 C 
BRANCH  29  30
ATOM     30  OG  SER A   1       5.278   2.633  19.852  0.00  0.00    +0.000 OA
ATOM     31  H   SER A   1       5.234   3.175  20.665  0.00  0.00    +0.000 HD
ENDBRANCH  29  30
ENDBRANCH  24  29
ENDBRANCH  22  24
ENDBRANCH  19  20
ENDBRANCH   2  17
TORSDOF 10
ENDMDL
MODEL 6
REMARK VINA RESULT:      -6.9      7.855      9.847
REMARK  Name = 
REMARK  15 active torsions:
REMARK  status: ('A' for Active; 'I' for Inactive)
REMARK    1  A    between atoms: C_1  and  C_2
REMARK    2  A    between atoms: C_3  and  C_4
REMARK    3  A    between atoms: C_5  and  C_6
REMARK    4  A    between atoms: C_6  and  C_7
REMARK    5  A    between atoms: C_8  and  C_9
REMARK    6  A    between atoms: C_10  and  C_11
REMARK    7  A    between atoms: C_11  and  C_12
REMARK    8  A    between atoms: C_13  and  C_14
REMARK    9  A    between atoms: N_16  and  CA_17
REMARK   10  A    between atoms: CA_17  and  CB_18
REMARK   11  A    between atoms: CA_17  and  C_20
REMARK   12  A    between atoms: CB_18  and  OG_19
REMARK   13  A    between atoms: C_20  and  OXT_22
REMARK   14  A    between atoms: C_23  and  C_24
REMARK   15  A    between atoms: C_23  and  C_25
REMARK                            x       y       z     vdW  Elec       q    Type
REMARK                         _______ _______ _______ _____ _____    ______ ____
ROOT
ATOM      1  C   UNK A   0       1.179   9.219  19.085  0.00  0.00    +0.000 C 
ATOM      2  C   UNK A   0       1.646   8.234  19.877  0.00  0.00    +0.000 C 
ENDROOT
BRANCH   1   5
ATOM      3  C   UNK A   0      -0.689  10.871  18.923  0.00  0.00    +0.000 C 
ATOM      4  C   UNK A   0      -1.300  10.115  17.762  0.00  0.00    +0.000 C 
ATOM      5  C   UNK A   0       0.469  10.431  19.490  0.00  0.00    +0.000 C 
BRANCH   3   7
ATOM      6  C   UNK A   0      -2.082  12.213  20.554  0.00  0.00    +0.000 C 
ATOM      7  C   UNK A   0      -1.357  12.089  19.423  0.00  0.00    +0.000 C 
BRANCH   6  10
ATOM      8  C   UNK A   0      -4.983  12.834  19.982  0.00  0.00    +0.000 C 
ATOM      9  C   UNK A   0      -4.037  13.724  20.750  0.00  0.00    +0.000 C 
ATOM     10  C   UNK A   0      -2.746  13.430  21.052  0.00  0.00    +0.000 C 
ATOM     11  C   UNK A   0      -1.922  14.312  22.036  0.00  0.00    +0.000 C 
ATOM     12  C   UNK A   0      -1.248  13.490  23.162  0.00  0.00    +0.000 C 
ATOM     13  C   UNK A   0      -0.816  15.069  21.268  0.00  0.00    +0.000 C 
ATOM     14  C   UNK A   0      -2.821  15.350  22.769  0.00  0.00    +0.000 C 
ATOM     15  C   UNK A   0      -3.796  16.032  21.827  0.00  0.00    +0.000 C 
ATOM     16  C   UNK A   0      -4.723  14.993  21.218  0.00  0.00    +0.000 C 
ENDBRANCH   6  10
ENDBRANCH   3   7
ENDBRANCH   1   5
BRANCH   2  17
ATOM     17  C   UNK A   0       2.333   7.025  19.376  0.00  0.00    +0.000 C 
ATOM     18  C   UNK A   0       2.208   5.757  20.198  0.00  0.00    +0.000 C 
ATOM     19  C   UNK A   0       3.046   7.052  18.226  0.00  0.00    +0.000 C 
BRANCH  19  20
ATOM     20  C   UNK A   0       3.812   5.873  17.715  0.00  0.00    +0.000 C 
ATOM     21  O   UNK A   0       3.290   4.841  17.308  0.00  0.00    +0.000 OA
ATOM     22  N   SER A   1       5.175   6.001  17.691  0.00  0.00    +0.000 N 
ATOM     23  H   SER A   1       5.644   6.849  17.993  0.00  0.00    +0.000 HD
BRANCH  22  24
ATOM     24  CA  SER A   1       6.010   4.878  17.234  0.00  0.00    +0.000 C 
BRANCH  24  25
ATOM     25  C   SER A   1       7.204   4.706  18.167  0.00  0.00    +0.000 C 
ATOM     26  O   SER A   1       7.237   5.136  19.309  0.00  0.00    +0.000 OA
BRANCH  25  27
ATOM     27  OXT SER A   1       8.247   4.045  17.609  0.00  0.00    +0.000 OA
ATOM     28  HXT SER A   1       8.130   3.080  17.514  0.00  0.00    +0.000 HD
ENDBRANCH  25  27
ENDBRANCH  24  25
BRANCH  24  29
ATOM     29  CB  SER A   1       6.524   5.075  15.800  0.00  0.00    +0.000 C 
BRANCH  29  30
ATOM     30  OG  SER A   1       7.573   6.036  15.702  0.00  0.00    +0.000 OA
ATOM     31  H   SER A   1       7.658   6.505  16.558  0.00  0.00    +0.000 HD
ENDBRANCH  29  30
ENDBRANCH  24  29
ENDBRANCH  22  24
ENDBRANCH  19  20
ENDBRANCH   2  17
TORSDOF 10
ENDMDL
MODEL 7
REMARK VINA RESULT:      -6.8      1.038      2.062
REMARK  Name = 
REMARK  15 active torsions:
REMARK  status: ('A' for Active; 'I' for Inactive)
REMARK    1  A    between atoms: C_1  and  C_2
REMARK    2  A    between atoms: C_3  and  C_4
REMARK    3  A    between atoms: C_5  and  C_6
REMARK    4  A    between atoms: C_6  and  C_7
REMARK    5  A    between atoms: C_8  and  C_9
REMARK    6  A    between atoms: C_10  and  C_11
REMARK    7  A    between atoms: C_11  and  C_12
REMARK    8  A    between atoms: C_13  and  C_14
REMARK    9  A    between atoms: N_16  and  CA_17
REMARK   10  A    between atoms: CA_17  and  CB_18
REMARK   11  A    between atoms: CA_17  and  C_20
REMARK   12  A    between atoms: CB_18  and  OG_19
REMARK   13  A    between atoms: C_20  and  OXT_22
REMARK   14  A    between atoms: C_23  and  C_24
REMARK   15  A    between atoms: C_23  and  C_25
REMARK                            x       y       z     vdW  Elec       q    Type
REMARK                         _______ _______ _______ _____ _____    ______ ____
ROOT
ATOM      1  C   UNK A   0       8.184   9.016  18.348  0.00  0.00    +0.000 C 
ATOM      2  C   UNK A   0       7.840   7.990  17.545  0.00  0.00    +0.000 C 
ENDROOT
BRANCH   1   5
ATOM      3  C   UNK A   0       9.538  11.076  18.756  0.00  0.00    +0.000 C 
ATOM      4  C   UNK A   0       9.849  10.631  20.170  0.00  0.00    +0.000 C 
ATOM      5  C   UNK A   0       8.747  10.307  17.957  0.00  0.00    +0.000 C 
BRANCH   3   7
ATOM      6  C   UNK A   0       9.739  13.596  18.648  0.00  0.00    +0.000 C 
ATOM      7  C   UNK A   0      10.093  12.352  18.263  0.00  0.00    +0.000 C 
BRANCH   6  10
ATOM      8  C   UNK A   0      12.333  13.749  17.108  0.00  0.00    +0.000 C 
ATOM      9  C   UNK A   0      11.485  14.933  17.505  0.00  0.00    +0.000 C 
ATOM     10  C   UNK A   0      10.295  14.868  18.156  0.00  0.00    +0.000 C 
ATOM     11  C   UNK A   0       9.393  16.126  18.323  0.00  0.00    +0.000 C 
ATOM     12  C   UNK A   0       7.934  15.888  17.862  0.00  0.00    +0.000 C 
ATOM     13  C   UNK A   0       9.361  16.561  19.805  0.00  0.00    +0.000 C 
ATOM     14  C   UNK A   0       9.904  17.319  17.464  0.00  0.00    +0.000 C 
ATOM     15  C   UNK A   0      11.409  17.489  17.555  0.00  0.00    +0.000 C 
ATOM     16  C   UNK A   0      12.094  16.238  17.029  0.00  0.00    +0.000 C 
ENDBRANCH   6  10
ENDBRANCH   3   7
ENDBRANCH   1   5
BRANCH   2  17
ATOM     17  C   UNK A   0       7.299   6.704  18.032  0.00  0.00    +0.000 C 
ATOM     18  C   UNK A   0       8.157   5.902  18.992  0.00  0.00    +0.000 C 
ATOM     19  C   UNK A   0       6.083   6.260  17.635  0.00  0.00    +0.000 C 
BRANCH  19  20
ATOM     20  C   UNK A   0       5.524   4.935  18.048  0.00  0.00    +0.000 C 
ATOM     21  O   UNK A   0       6.212   3.970  18.363  0.00  0.00    +0.000 OA
ATOM     22  N   SER A   1       4.159   4.841  18.089  0.00  0.00    +0.000 N 
ATOM     23  H   SER A   1       3.556   5.625  17.863  0.00  0.00    +0.000 HD
BRANCH  22  24
ATOM     24  CA  SER A   1       3.522   3.565  18.453  0.00  0.00    +0.000 C 
BRANCH  24  25
ATOM     25  C   SER A   1       2.223   3.392  17.673  0.00  0.00    +0.000 C 
ATOM     26  O   SER A   1       1.526   4.324  17.305  0.00  0.00    +0.000 OA
BRANCH  25  27
ATOM     27  OXT SER A   1       1.893   2.100  17.435  0.00  0.00    +0.000 OA
ATOM     28  HXT SER A   1       2.101   1.771  16.539  0.00  0.00    +0.000 HD
ENDBRANCH  25  27
ENDBRANCH  24  25
BRANCH  24  29
ATOM     29  CB  SER A   1       3.216   3.469  19.955  0.00  0.00    +0.000 C 
BRANCH  29  30
ATOM     30  OG  SER A   1       1.967   4.055  20.316  0.00  0.00    +0.000 OA
ATOM     31  H   SER A   1       2.095   5.015  20.460  0.00  0.00    +0.000 HD
ENDBRANCH  29  30
ENDBRANCH  24  29
ENDBRANCH  22  24
ENDBRANCH  19  20
ENDBRANCH   2  17
TORSDOF 10
ENDMDL
MODEL 8
REMARK VINA RESULT:      -6.8      8.499     10.472
REMARK  Name = 
REMARK  15 active torsions:
REMARK  status: ('A' for Active; 'I' for Inactive)
REMARK    1  A    between atoms: C_1  and  C_2
REMARK    2  A    between atoms: C_3  and  C_4
REMARK    3  A    between atoms: C_5  and  C_6
REMARK    4  A    between atoms: C_6  and  C_7
REMARK    5  A    between atoms: C_8  and  C_9
REMARK    6  A    between atoms: C_10  and  C_11
REMARK    7  A    between atoms: C_11  and  C_12
REMARK    8  A    between atoms: C_13  and  C_14
REMARK    9  A    between atoms: N_16  and  CA_17
REMARK   10  A    between atoms: CA_17  and  CB_18
REMARK   11  A    between atoms: CA_17  and  C_20
REMARK   12  A    between atoms: CB_18  and  OG_19
REMARK   13  A    between atoms: C_20  and  OXT_22
REMARK   14  A    between atoms: C_23  and  C_24
REMARK   15  A    between atoms: C_23  and  C_25
REMARK                            x       y       z     vdW  Elec       q    Type
REMARK                         _______ _______ _______ _____ _____    ______ ____
ROOT
ATOM      1  C   UNK A   0       0.163   8.943  20.523  0.00  0.00    +0.000 C 
ATOM      2  C   UNK A   0       1.426   8.492  20.666  0.00  0.00    +0.000 C 
ENDROOT
BRANCH   1   5
ATOM      3  C   UNK A   0      -0.509  10.291  22.517  0.00  0.00    +0.000 C 
ATOM      4  C   UNK A   0       0.045   9.238  23.455  0.00  0.00    +0.000 C 
ATOM      5  C   UNK A   0      -0.450  10.102  21.168  0.00  0.00    +0.000 C 
BRANCH   3   7
ATOM      6  C   UNK A   0      -2.033  12.309  22.492  0.00  0.00    +0.000 C 
ATOM      7  C   UNK A   0      -1.117  11.512  23.080  0.00  0.00    +0.000 C 
BRANCH   6  10
ATOM      8  C   UNK A   0      -0.541  14.928  22.694  0.00  0.00    +0.000 C 
ATOM      9  C   UNK A   0      -1.947  14.687  23.187  0.00  0.00    +0.000 C 
ATOM     10  C   UNK A   0      -2.641  13.527  23.056  0.00  0.00    +0.000 C 
ATOM     11  C   UNK A   0      -4.158  13.447  23.397  0.00  0.00    +0.000 C 
ATOM     12  C   UNK A   0      -5.001  12.828  22.255  0.00  0.00    +0.000 C 
ATOM     13  C   UNK A   0      -4.371  12.592  24.666  0.00  0.00    +0.000 C 
ATOM     14  C   UNK A   0      -4.769  14.859  23.638  0.00  0.00    +0.000 C 
ATOM     15  C   UNK A   0      -3.877  15.730  24.501  0.00  0.00    +0.000 C 
ATOM     16  C   UNK A   0      -2.542  15.938  23.805  0.00  0.00    +0.000 C 
ENDBRANCH   6  10
ENDBRANCH   3   7
ENDBRANCH   1   5
BRANCH   2  17
ATOM     17  C   UNK A   0       1.956   7.290  19.991  0.00  0.00    +0.000 C 
ATOM     18  C   UNK A   0       1.821   5.964  20.713  0.00  0.00    +0.000 C 
ATOM     19  C   UNK A   0       2.541   7.373  18.772  0.00  0.00    +0.000 C 
BRANCH  19  20
ATOM     20  C   UNK A   0       3.152   6.196  18.080  0.00  0.00    +0.000 C 
ATOM     21  O   UNK A   0       2.513   5.226  17.686  0.00  0.00    +0.000 OA
ATOM     22  N   SER A   1       4.503   6.252  17.869  0.00  0.00    +0.000 N 
ATOM     23  H   SER A   1       5.062   7.049  18.155  0.00  0.00    +0.000 HD
BRANCH  22  24
ATOM     24  CA  SER A   1       5.193   5.123  17.224  0.00  0.00    +0.000 C 
BRANCH  24  25
ATOM     25  C   SER A   1       6.112   4.434  18.227  0.00  0.00    +0.000 C 
ATOM     26  O   SER A   1       7.304   4.676  18.331  0.00  0.00    +0.000 OA
BRANCH  25  27
ATOM     27  OXT SER A   1       5.490   3.504  18.991  0.00  0.00    +0.000 OA
ATOM     28  HXT SER A   1       5.994   2.680  19.143  0.00  0.00    +0.000 HD
ENDBRANCH  25  27
ENDBRANCH  24  25
BRANCH  24  29
ATOM     29  CB  SER A   1       6.024   5.560  16.009  0.00  0.00    +0.000 C 
BRANCH  29  30
ATOM     30  OG  SER A   1       5.505   6.717  15.355  0.00  0.00    +0.000 OA
ATOM     31  H   SER A   1       5.318   6.498  14.419  0.00  0.00    +0.000 HD
ENDBRANCH  29  30
ENDBRANCH  24  29
ENDBRANCH  22  24
ENDBRANCH  19  20
ENDBRANCH   2  17
TORSDOF 10
ENDMDL
MODEL 9
REMARK VINA RESULT:      -6.8      1.405      2.298
REMARK  Name = 
REMARK  15 active torsions:
REMARK  status: ('A' for Active; 'I' for Inactive)
REMARK    1  A    between atoms: C_1  and  C_2
REMARK    2  A    between atoms: C_3  and  C_4
REMARK    3  A    between atoms: C_5  and  C_6
REMARK    4  A    between atoms: C_6  and  C_7
REMARK    5  A    between atoms: C_8  and  C_9
REMARK    6  A    between atoms: C_10  and  C_11
REMARK    7  A    between atoms: C_11  and  C_12
REMARK    8  A    between atoms: C_13  and  C_14
REMARK    9  A    between atoms: N_16  and  CA_17
REMARK   10  A    between atoms: CA_17  and  CB_18
REMARK   11  A    between atoms: CA_17  and  C_20
REMARK   12  A    between atoms: CB_18  and  OG_19
REMARK   13  A    between atoms: C_20  and  OXT_22
REMARK   14  A    between atoms: C_23  and  C_24
REMARK   15  A    between atoms: C_23  and  C_25
REMARK                            x       y       z     vdW  Elec       q    Type
REMARK                         _______ _______ _______ _____ _____    ______ ____
ROOT
ATOM      1  C   UNK A   0       7.603   8.760  17.768  0.00  0.00    +0.000 C 
ATOM      2  C   UNK A   0       7.780   7.564  17.173  0.00  0.00    +0.000 C 
ENDROOT
BRANCH   1   5
ATOM      3  C   UNK A   0       9.083  10.675  18.391  0.00  0.00    +0.000 C 
ATOM      4  C   UNK A   0       9.221  10.151  19.805  0.00  0.00    +0.000 C 
ATOM      5  C   UNK A   0       8.308  10.010  17.489  0.00  0.00    +0.000 C 
BRANCH   3   7
ATOM      6  C   UNK A   0       9.529  13.165  18.445  0.00  0.00    +0.000 C 
ATOM      7  C   UNK A   0       9.788  11.914  18.008  0.00  0.00    +0.000 C 
BRANCH   6  10
ATOM      8  C   UNK A   0      12.181  13.142  16.998  0.00  0.00    +0.000 C 
ATOM      9  C   UNK A   0      11.449  14.381  17.455  0.00  0.00    +0.000 C 
ATOM     10  C   UNK A   0      10.235  14.400  18.064  0.00  0.00    +0.000 C 
ATOM     11  C   UNK A   0       9.466  15.734  18.295  0.00  0.00    +0.000 C 
ATOM     12  C   UNK A   0       8.009  15.688  17.775  0.00  0.00    +0.000 C 
ATOM     13  C   UNK A   0       9.425  16.066  19.804  0.00  0.00    +0.000 C 
ATOM     14  C   UNK A   0      10.133  16.922  17.542  0.00  0.00    +0.000 C 
ATOM     15  C   UNK A   0      11.643  16.920  17.690  0.00  0.00    +0.000 C 
ATOM     16  C   UNK A   0      12.210  15.642  17.094  0.00  0.00    +0.000 C 
ENDBRANCH   6  10
ENDBRANCH   3   7
ENDBRANCH   1   5
BRANCH   2  17
ATOM     17  C   UNK A   0       7.037   6.340  17.539  0.00  0.00    +0.000 C 
ATOM     18  C   UNK A   0       7.060   5.186  16.556  0.00  0.00    +0.000 C 
ATOM     19  C   UNK A   0       6.362   6.255  18.710  0.00  0.00    +0.000 C 
BRANCH  19  20
ATOM     20  C   UNK A   0       5.542   5.065  19.093  0.00  0.00    +0.000 C 
ATOM     21  O   UNK A   0       5.989   3.927  19.187  0.00  0.00    +0.000 OA
ATOM     22  N   SER A   1       4.223   5.303  19.372  0.00  0.00    +0.000 N 
ATOM     23  H   SER A   1       3.822   6.234  19.333  0.00  0.00    +0.000 HD
BRANCH  22  24
ATOM     24  CA  SER A   1       3.334   4.185  19.727  0.00  0.00    +0.000 C 
BRANCH  24  25
ATOM     25  C   SER A   1       2.741   3.573  18.462  0.00  0.00    +0.000 C 
ATOM     26  O   SER A   1       1.786   4.044  17.866  0.00  0.00    +0.000 OA
BRANCH  25  27
ATOM     27  OXT SER A   1       3.358   2.435  18.062  0.00  0.00    +0.000 OA
ATOM     28  HXT SER A   1       2.764   1.714  17.774  0.00  0.00    +0.000 HD
ENDBRANCH  25  27
ENDBRANCH  24  25
BRANCH  24  29
ATOM     29  CB  SER A   1       2.188   4.617  20.654  0.00  0.00    +0.000 C 
BRANCH  29  30
ATOM     30  OG  SER A   1       2.258   5.989  21.037  0.00  0.00    +0.000 OA
ATOM     31  H   SER A   1       2.744   6.488  20.349  0.00  0.00    +0.000 HD
ENDBRANCH  29  30
ENDBRANCH  24  29
ENDBRANCH  22  24
ENDBRANCH  19  20
ENDBRANCH   2  17
TORSDOF 10
ENDMDL
