MODEL 1
REMARK VINA RESULT:      -8.3      0.000      0.000
REMARK  Name = 
REMARK  9 active torsions:
REMARK  status: ('A' for Active; 'I' for Inactive)
REMARK    1  A    between atoms: C_1  and  C_2
REMARK    2  A    between atoms: C_2  and  C_3
REMARK    3  A    between atoms: C_2  and  C_4
REMARK    4  A    between atoms: C_4  and  C_5
REMARK    5  A    between atoms: C_5  and  C_6
REMARK    6  A    between atoms: C_11  and  C_12
REMARK    7  A    between atoms: N_14  and  C_15
REMARK    8  A    between atoms: C_16  and  O_17
REMARK    9  A    between atoms: C_21  and  O_22
REMARK                            x       y       z     vdW  Elec       q    Type
REMARK                         _______ _______ _______ _____ _____    ______ ____
ROOT
ATOM      1  C   UNL     1       2.930   6.128  17.841  0.00  0.00    +0.000 C 
ATOM      2  O   UNL     1       1.915   5.452  18.041  0.00  0.00    +0.000 OA
ATOM      3  N   UNL     1       3.020   7.453  18.218  0.00  0.00    +0.000 N 
ATOM      4  H   UNL     1       3.777   8.022  17.856  0.00  0.00    +0.000 HD
ENDROOT
BRANCH   3   5
ATOM      5  C   UNL     1       2.114   8.158  19.013  0.00  0.00    +0.000 A 
ATOM      6  C   UNL     1       1.717   7.855  20.264  0.00  0.00    +0.000 A 
ATOM      7  C   UNL     1       0.925   8.822  21.022  0.00  0.00    +0.000 A 
ATOM      8  C   UNL     1       0.888   8.862  22.420  0.00  0.00    +0.000 A 
ATOM      9  C   UNL     1       0.070   9.785  23.077  0.00  0.00    +0.000 A 
ATOM     10  C   UNL     1      -0.748  10.630  22.329  0.00  0.00    +0.000 A 
ATOM     11  C   UNL     1      -0.704  10.622  20.939  0.00  0.00    +0.000 A 
ATOM     12  C   UNL     1       0.186   9.757  20.307  0.00  0.00    +0.000 A 
ATOM     13  O   UNL     1       0.401   9.924  18.931  0.00  0.00    +0.000 OA
ATOM     14  C   UNL     1       1.609   9.444  18.431  0.00  0.00    +0.000 A 
ATOM     15  O   UNL     1       2.163   9.950  17.456  0.00  0.00    +0.000 OA
BRANCH   6  16
ATOM     16  O   UNL     1       2.040   6.713  20.961  0.00  0.00    +0.000 OA
ATOM     17  H   UNL     1       3.010   6.575  20.865  0.00  0.00    +0.000 HD
ENDBRANCH   6  16
BRANCH  10  18
ATOM     18  O   UNL     1      -1.590  11.515  22.935  0.00  0.00    +0.000 OA
ATOM     19  H   UNL     1      -2.499  11.173  22.876  0.00  0.00    +0.000 HD
ENDBRANCH  10  18
ENDBRANCH   3   5
BRANCH   1  25
ATOM     20  C   UNL     1       4.654   4.178  17.567  0.00  0.00    +0.000 A 
ATOM     21  C   UNL     1       5.753   3.697  16.814  0.00  0.00    +0.000 A 
ATOM     22  C   UNL     1       6.387   4.484  15.854  0.00  0.00    +0.000 A 
ATOM     23  C   UNL     1       5.919   5.762  15.600  0.00  0.00    +0.000 A 
ATOM     24  C   UNL     1       4.784   6.222  16.269  0.00  0.00    +0.000 A 
ATOM     25  C   UNL     1       4.118   5.441  17.241  0.00  0.00    +0.000 A 
BRANCH  20  26
ATOM     26  C   UNL     1       4.276   3.356  18.781  0.00  0.00    +0.000 C 
BRANCH  26  27
ATOM     27  C   UNL     1       3.265   2.242  18.437  0.00  0.00    +0.000 C 
BRANCH  27  29
ATOM     28  C   UNL     1       2.273   3.026  20.646  0.00  0.00    +0.000 C 
ATOM     29  C   UNL     1       2.110   2.089  19.449  0.00  0.00    +0.000 C 
ATOM     30  C   UNL     1       0.769   2.348  18.762  0.00  0.00    +0.000 C 
ENDBRANCH  27  29
ENDBRANCH  26  27
ENDBRANCH  20  26
ENDBRANCH   1  25
TORSDOF 7
ENDMDL
MODEL 2
REMARK VINA RESULT:      -8.1      0.746      1.058
REMARK  Name = 
REMARK  9 active torsions:
REMARK  status: ('A' for Active; 'I' for Inactive)
REMARK    1  A    between atoms: C_1  and  C_2
REMARK    2  A    between atoms: C_2  and  C_3
REMARK    3  A    between atoms: C_2  and  C_4
REMARK    4  A    between atoms: C_4  and  C_5
REMARK    5  A    between atoms: C_5  and  C_6
REMARK    6  A    between atoms: C_11  and  C_12
REMARK    7  A    between atoms: N_14  and  C_15
REMARK    8  A    between atoms: C_16  and  O_17
REMARK    9  A    between atoms: C_21  and  O_22
REMARK                            x       y       z     vdW  Elec       q    Type
REMARK                         _______ _______ _______ _____ _____    ______ ____
ROOT
ATOM      1  C   UNL     1       2.919   6.213  17.920  0.00  0.00    +0.000 C 
ATOM      2  O   UNL     1       1.920   5.522  18.149  0.00  0.00    +0.000 OA
ATOM      3  N   UNL     1       2.981   7.552  18.250  0.00  0.00    +0.000 N 
ATOM      4  H   UNL     1       3.724   8.124  17.864  0.00  0.00    +0.000 HD
ENDROOT
BRANCH   3   5
ATOM      5  C   UNL     1       2.064   8.265  19.024  0.00  0.00    +0.000 A 
ATOM      6  C   UNL     1       1.647   7.974  20.271  0.00  0.00    +0.000 A 
ATOM      7  C   UNL     1       0.844   8.949  21.007  0.00  0.00    +0.000 A 
ATOM      8  C   UNL     1       0.784   9.002  22.404  0.00  0.00    +0.000 A 
ATOM      9  C   UNL     1      -0.044   9.931  23.039  0.00  0.00    +0.000 A 
ATOM     10  C   UNL     1      -0.849  10.770  22.271  0.00  0.00    +0.000 A 
ATOM     11  C   UNL     1      -0.782  10.748  20.882  0.00  0.00    +0.000 A 
ATOM     12  C   UNL     1       0.116   9.877  20.272  0.00  0.00    +0.000 A 
ATOM     13  O   UNL     1       0.353  10.031  18.898  0.00  0.00    +0.000 OA
ATOM     14  C   UNL     1       1.569   9.546  18.421  0.00  0.00    +0.000 A 
ATOM     15  O   UNL     1       2.139  10.043  17.451  0.00  0.00    +0.000 OA
BRANCH   6  16
ATOM     16  O   UNL     1       1.958   6.838  20.984  0.00  0.00    +0.000 OA
ATOM     17  H   UNL     1       1.609   6.959  21.896  0.00  0.00    +0.000 HD
ENDBRANCH   6  16
BRANCH  10  18
ATOM     18  O   UNL     1      -1.699  11.661  22.855  0.00  0.00    +0.000 OA
ATOM     19  H   UNL     1      -2.565  11.603  22.415  0.00  0.00    +0.000 HD
ENDBRANCH  10  18
ENDBRANCH   3   5
BRANCH   1  25
ATOM     20  C   UNL     1       4.213   4.228  16.810  0.00  0.00    +0.000 A 
ATOM     21  C   UNL     1       5.446   3.815  16.247  0.00  0.00    +0.000 A 
ATOM     22  C   UNL     1       6.588   4.611  16.316  0.00  0.00    +0.000 A 
ATOM     23  C   UNL     1       6.519   5.855  16.921  0.00  0.00    +0.000 A 
ATOM     24  C   UNL     1       5.294   6.316  17.404  0.00  0.00    +0.000 A 
ATOM     25  C   UNL     1       4.120   5.531  17.339  0.00  0.00    +0.000 A 
BRANCH  20  26
ATOM     26  C   UNL     1       3.159   3.150  16.951  0.00  0.00    +0.000 C 
BRANCH  26  27
ATOM     27  C   UNL     1       3.522   2.122  18.044  0.00  0.00    +0.000 C 
BRANCH  27  29
ATOM     28  C   UNL     1       2.134   2.533  20.138  0.00  0.00    +0.000 C 
ATOM     29  C   UNL     1       3.506   2.683  19.482  0.00  0.00    +0.000 C 
ATOM     30  C   UNL     1       4.571   1.988  20.331  0.00  0.00    +0.000 C 
ENDBRANCH  27  29
ENDBRANCH  26  27
ENDBRANCH  20  26
ENDBRANCH   1  25
TORSDOF 7
ENDMDL
MODEL 3
REMARK VINA RESULT:      -7.8      2.032      4.163
REMARK  Name = 
REMARK  9 active torsions:
REMARK  status: ('A' for Active; 'I' for Inactive)
REMARK    1  A    between atoms: C_1  and  C_2
REMARK    2  A    between atoms: C_2  and  C_3
REMARK    3  A    between atoms: C_2  and  C_4
REMARK    4  A    between atoms: C_4  and  C_5
REMARK    5  A    between atoms: C_5  and  C_6
REMARK    6  A    between atoms: C_11  and  C_12
REMARK    7  A    between atoms: N_14  and  C_15
REMARK    8  A    between atoms: C_16  and  O_17
REMARK    9  A    between atoms: C_21  and  O_22
REMARK                            x       y       z     vdW  Elec       q    Type
REMARK                         _______ _______ _______ _____ _____    ______ ____
ROOT
ATOM      1  C   UNL     1       2.392   7.859  18.327  0.00  0.00    +0.000 C 
ATOM      2  O   UNL     1       2.580   8.759  17.500  0.00  0.00    +0.000 OA
ATOM      3  N   UNL     1       1.732   8.081  19.519  0.00  0.00    +0.000 N 
ATOM      4  H   UNL     1       1.780   7.380  20.251  0.00  0.00    +0.000 HD
ENDROOT
BRANCH   3   5
ATOM      5  C   UNL     1       1.038   9.235  19.887  0.00  0.00    +0.000 A 
ATOM      6  C   UNL     1       0.227   9.983  19.114  0.00  0.00    +0.000 A 
ATOM      7  C   UNL     1      -0.582  11.035  19.727  0.00  0.00    +0.000 A 
ATOM      8  C   UNL     1      -1.775  11.511  19.173  0.00  0.00    +0.000 A 
ATOM      9  C   UNL     1      -2.471  12.553  19.790  0.00  0.00    +0.000 A 
ATOM     10  C   UNL     1      -1.941  13.150  20.932  0.00  0.00    +0.000 A 
ATOM     11  C   UNL     1      -0.771  12.672  21.510  0.00  0.00    +0.000 A 
ATOM     12  C   UNL     1      -0.142  11.574  20.930  0.00  0.00    +0.000 A 
ATOM     13  O   UNL     1       0.890  10.950  21.647  0.00  0.00    +0.000 OA
ATOM     14  C   UNL     1       1.143   9.617  21.334  0.00  0.00    +0.000 A 
ATOM     15  O   UNL     1       1.584   8.821  22.162  0.00  0.00    +0.000 OA
BRANCH   6  16
ATOM     16  O   UNL     1       0.020   9.819  17.763  0.00  0.00    +0.000 OA
ATOM     17  H   UNL     1      -0.908   9.514  17.643  0.00  0.00    +0.000 HD
ENDBRANCH   6  16
BRANCH  10  18
ATOM     18  O   UNL     1      -2.571  14.197  21.538  0.00  0.00    +0.000 OA
ATOM     19  H   UNL     1      -3.351  14.441  21.011  0.00  0.00    +0.000 HD
ENDBRANCH  10  18
ENDBRANCH   3   5
BRANCH   1  25
ATOM     20  C   UNL     1       4.090   6.054  17.488  0.00  0.00    +0.000 A 
ATOM     21  C   UNL     1       4.301   4.669  17.272  0.00  0.00    +0.000 A 
ATOM     22  C   UNL     1       3.271   3.740  17.400  0.00  0.00    +0.000 A 
ATOM     23  C   UNL     1       2.008   4.166  17.777  0.00  0.00    +0.000 A 
ATOM     24  C   UNL     1       1.800   5.513  18.078  0.00  0.00    +0.000 A 
ATOM     25  C   UNL     1       2.831   6.474  17.964  0.00  0.00    +0.000 A 
BRANCH  20  26
ATOM     26  C   UNL     1       5.193   6.972  17.005  0.00  0.00    +0.000 C 
BRANCH  26  27
ATOM     27  C   UNL     1       6.501   6.206  16.713  0.00  0.00    +0.000 C 
BRANCH  27  29
ATOM     28  C   UNL     1       7.774   8.171  17.711  0.00  0.00    +0.000 C 
ATOM     29  C   UNL     1       7.708   6.651  17.565  0.00  0.00    +0.000 C 
ATOM     30  C   UNL     1       7.649   5.995  18.945  0.00  0.00    +0.000 C 
ENDBRANCH  27  29
ENDBRANCH  26  27
ENDBRANCH  20  26
ENDBRANCH   1  25
TORSDOF 7
ENDMDL
MODEL 4
REMARK VINA RESULT:      -7.6      1.729      3.111
REMARK  Name = 
REMARK  9 active torsions:
REMARK  status: ('A' for Active; 'I' for Inactive)
REMARK    1  A    between atoms: C_1  and  C_2
REMARK    2  A    between atoms: C_2  and  C_3
REMARK    3  A    between atoms: C_2  and  C_4
REMARK    4  A    between atoms: C_4  and  C_5
REMARK    5  A    between atoms: C_5  and  C_6
REMARK    6  A    between atoms: C_11  and  C_12
REMARK    7  A    between atoms: N_14  and  C_15
REMARK    8  A    between atoms: C_16  and  O_17
REMARK    9  A    between atoms: C_21  and  O_22
REMARK                            x       y       z     vdW  Elec       q    Type
REMARK                         _______ _______ _______ _____ _____    ______ ____
ROOT
ATOM      1  C   UNL     1       2.493   8.206  18.259  0.00  0.00    +0.000 C 
ATOM      2  O   UNL     1       2.605   9.148  17.466  0.00  0.00    +0.000 OA
ATOM      3  N   UNL     1       1.783   8.315  19.437  0.00  0.00    +0.000 N 
ATOM      4  H   UNL     1       1.887   7.599  20.148  0.00  0.00    +0.000 HD
ENDROOT
BRANCH   3   5
ATOM      5  C   UNL     1       0.959   9.375  19.821  0.00  0.00    +0.000 A 
ATOM      6  C   UNL     1       0.108  10.072  19.043  0.00  0.00    +0.000 A 
ATOM      7  C   UNL     1      -0.830  11.007  19.660  0.00  0.00    +0.000 A 
ATOM      8  C   UNL     1      -2.042  11.385  19.072  0.00  0.00    +0.000 A 
ATOM      9  C   UNL     1      -2.867  12.322  19.698  0.00  0.00    +0.000 A 
ATOM     10  C   UNL     1      -2.450  12.917  20.888  0.00  0.00    +0.000 A 
ATOM     11  C   UNL     1      -1.262  12.533  21.499  0.00  0.00    +0.000 A 
ATOM     12  C   UNL     1      -0.500  11.532  20.904  0.00  0.00    +0.000 A 
ATOM     13  O   UNL     1       0.560  10.983  21.642  0.00  0.00    +0.000 OA
ATOM     14  C   UNL     1       0.962   9.699  21.285  0.00  0.00    +0.000 A 
ATOM     15  O   UNL     1       1.448   8.913  22.099  0.00  0.00    +0.000 OA
BRANCH   6  16
ATOM     16  O   UNL     1      -0.024   9.950  17.678  0.00  0.00    +0.000 OA
ATOM     17  H   UNL     1      -0.687   9.243  17.509  0.00  0.00    +0.000 HD
ENDBRANCH   6  16
BRANCH  10  18
ATOM     18  O   UNL     1      -3.209  13.865  21.507  0.00  0.00    +0.000 OA
ATOM     19  H   UNL     1      -4.011  14.018  20.978  0.00  0.00    +0.000 HD
ENDBRANCH  10  18
ENDBRANCH   3   5
BRANCH   1  25
ATOM     20  C   UNL     1       2.566   5.597  18.077  0.00  0.00    +0.000 A 
ATOM     21  C   UNL     1       3.278   4.489  17.553  0.00  0.00    +0.000 A 
ATOM     22  C   UNL     1       4.526   4.635  16.951  0.00  0.00    +0.000 A 
ATOM     23  C   UNL     1       5.082   5.897  16.828  0.00  0.00    +0.000 A 
ATOM     24  C   UNL     1       4.360   7.010  17.259  0.00  0.00    +0.000 A 
ATOM     25  C   UNL     1       3.089   6.890  17.866  0.00  0.00    +0.000 A 
BRANCH  20  26
ATOM     26  C   UNL     1       1.397   5.263  18.979  0.00  0.00    +0.000 C 
BRANCH  26  27
ATOM     27  C   UNL     1       1.856   4.811  20.382  0.00  0.00    +0.000 C 
BRANCH  27  29
ATOM     28  C   UNL     1       0.859   2.589  19.643  0.00  0.00    +0.000 C 
ATOM     29  C   UNL     1       1.293   3.446  20.831  0.00  0.00    +0.000 C 
ATOM     30  C   UNL     1       2.331   2.696  21.666  0.00  0.00    +0.000 C 
ENDBRANCH  27  29
ENDBRANCH  26  27
ENDBRANCH  20  26
ENDBRANCH   1  25
TORSDOF 7
ENDMDL
MODEL 5
REMARK VINA RESULT:      -7.6      1.216      2.273
REMARK  Name = 
REMARK  9 active torsions:
REMARK  status: ('A' for Active; 'I' for Inactive)
REMARK    1  A    between atoms: C_1  and  C_2
REMARK    2  A    between atoms: C_2  and  C_3
REMARK    3  A    between atoms: C_2  and  C_4
REMARK    4  A    between atoms: C_4  and  C_5
REMARK    5  A    between atoms: C_5  and  C_6
REMARK    6  A    between atoms: C_11  and  C_12
REMARK    7  A    between atoms: N_14  and  C_15
REMARK    8  A    between atoms: C_16  and  O_17
REMARK    9  A    between atoms: C_21  and  O_22
REMARK                            x       y       z     vdW  Elec       q    Type
REMARK                         _______ _______ _______ _____ _____    ______ ____
ROOT
ATOM      1  C   UNL     1       4.243   6.641  17.681  0.00  0.00    +0.000 C 
ATOM      2  O   UNL     1       4.908   7.678  17.786  0.00  0.00    +0.000 OA
ATOM      3  N   UNL     1       3.018   6.486  18.297  0.00  0.00    +0.000 N 
ATOM      4  H   UNL     1       2.607   5.561  18.359  0.00  0.00    +0.000 HD
ENDROOT
BRANCH   3   5
ATOM      5  C   UNL     1       2.275   7.477  18.941  0.00  0.00    +0.000 A 
ATOM      6  C   UNL     1       1.878   8.660  18.433  0.00  0.00    +0.000 A 
ATOM      7  C   UNL     1       0.927   9.481  19.180  0.00  0.00    +0.000 A 
ATOM      8  C   UNL     1       0.081  10.421  18.581  0.00  0.00    +0.000 A 
ATOM      9  C   UNL     1      -0.769  11.205  19.364  0.00  0.00    +0.000 A 
ATOM     10  C   UNL     1      -0.731  11.081  20.752  0.00  0.00    +0.000 A 
ATOM     11  C   UNL     1       0.084  10.134  21.362  0.00  0.00    +0.000 A 
ATOM     12  C   UNL     1       0.855   9.301  20.556  0.00  0.00    +0.000 A 
ATOM     13  O   UNL     1       1.481   8.198  21.157  0.00  0.00    +0.000 OA
ATOM     14  C   UNL     1       1.793   7.131  20.319  0.00  0.00    +0.000 A 
ATOM     15  O   UNL     1       1.829   5.969  20.721  0.00  0.00    +0.000 OA
BRANCH   6  16
ATOM     16  O   UNL     1       2.235   9.175  17.208  0.00  0.00    +0.000 OA
ATOM     17  H   UNL     1       1.517   9.786  16.925  0.00  0.00    +0.000 HD
ENDBRANCH   6  16
BRANCH  10  18
ATOM     18  O   UNL     1      -1.516  11.858  21.551  0.00  0.00    +0.000 OA
ATOM     19  H   UNL     1      -1.152  11.846  22.453  0.00  0.00    +0.000 HD
ENDBRANCH  10  18
ENDBRANCH   3   5
BRANCH   1  25
ATOM     20  C   UNL     1       4.753   4.169  16.993  0.00  0.00    +0.000 A 
ATOM     21  C   UNL     1       5.251   3.328  15.967  0.00  0.00    +0.000 A 
ATOM     22  C   UNL     1       5.861   3.844  14.825  0.00  0.00    +0.000 A 
ATOM     23  C   UNL     1       5.962   5.215  14.665  0.00  0.00    +0.000 A 
ATOM     24  C   UNL     1       5.400   6.061  15.622  0.00  0.00    +0.000 A 
ATOM     25  C   UNL     1       4.769   5.563  16.785  0.00  0.00    +0.000 A 
BRANCH  20  26
ATOM     26  C   UNL     1       4.417   3.484  18.301  0.00  0.00    +0.000 C 
BRANCH  26  27
ATOM     27  C   UNL     1       3.509   2.253  18.097  0.00  0.00    +0.000 C 
BRANCH  27  29
ATOM     28  C   UNL     1       2.391   2.557  20.364  0.00  0.00    +0.000 C 
ATOM     29  C   UNL     1       2.175   2.305  18.872  0.00  0.00    +0.000 C 
ATOM     30  C   UNL     1       1.266   3.386  18.285  0.00  0.00    +0.000 C 
ENDBRANCH  27  29
ENDBRANCH  26  27
ENDBRANCH  20  26
ENDBRANCH   1  25
TORSDOF 7
ENDMDL
MODEL 6
REMARK VINA RESULT:      -7.6      2.280      4.381
REMARK  Name = 
REMARK  9 active torsions:
REMARK  status: ('A' for Active; 'I' for Inactive)
REMARK    1  A    between atoms: C_1  and  C_2
REMARK    2  A    between atoms: C_2  and  C_3
REMARK    3  A    between atoms: C_2  and  C_4
REMARK    4  A    between atoms: C_4  and  C_5
REMARK    5  A    between atoms: C_5  and  C_6
REMARK    6  A    between atoms: C_11  and  C_12
REMARK    7  A    between atoms: N_14  and  C_15
REMARK    8  A    between atoms: C_16  and  O_17
REMARK    9  A    between atoms: C_21  and  O_22
REMARK                            x       y       z     vdW  Elec       q    Type
REMARK                         _______ _______ _______ _____ _____    ______ ____
ROOT
ATOM      1  C   UNL     1       2.452   6.985  19.690  0.00  0.00    +0.000 C 
ATOM      2  O   UNL     1       2.914   7.491  18.660  0.00  0.00    +0.000 OA
ATOM      3  N   UNL     1       1.718   7.714  20.603  0.00  0.00    +0.000 N 
ATOM      4  H   UNL     1       1.537   7.322  21.521  0.00  0.00    +0.000 HD
ENDROOT
BRANCH   3   5
ATOM      5  C   UNL     1       1.236   9.014  20.441  0.00  0.00    +0.000 A 
ATOM      6  C   UNL     1       0.754   9.572  19.313  0.00  0.00    +0.000 A 
ATOM      7  C   UNL     1       0.097  10.876  19.379  0.00  0.00    +0.000 A 
ATOM      8  C   UNL     1      -0.849  11.311  18.446  0.00  0.00    +0.000 A 
ATOM      9  C   UNL     1      -1.401  12.591  18.545  0.00  0.00    +0.000 A 
ATOM     10  C   UNL     1      -0.963  13.450  19.551  0.00  0.00    +0.000 A 
ATOM     11  C   UNL     1      -0.043  13.024  20.503  0.00  0.00    +0.000 A 
ATOM     12  C   UNL     1       0.425  11.715  20.438  0.00  0.00    +0.000 A 
ATOM     13  O   UNL     1       1.155  11.221  21.529  0.00  0.00    +0.000 OA
ATOM     14  C   UNL     1       1.166   9.838  21.692  0.00  0.00    +0.000 A 
ATOM     15  O   UNL     1       1.272   9.308  22.797  0.00  0.00    +0.000 OA
BRANCH   6  16
ATOM     16  O   UNL     1       0.757   8.998  18.062  0.00  0.00    +0.000 OA
ATOM     17  H   UNL     1      -0.116   9.188  17.650  0.00  0.00    +0.000 HD
ENDBRANCH   6  16
BRANCH  10  18
ATOM     18  O   UNL     1      -1.448  14.719  19.655  0.00  0.00    +0.000 OA
ATOM     19  H   UNL     1      -0.727  15.308  19.937  0.00  0.00    +0.000 HD
ENDBRANCH  10  18
ENDBRANCH   3   5
BRANCH   1  25
ATOM     20  C   UNL     1       3.725   4.708  19.488  0.00  0.00    +0.000 A 
ATOM     21  C   UNL     1       3.717   3.337  19.846  0.00  0.00    +0.000 A 
ATOM     22  C   UNL     1       2.618   2.746  20.466  0.00  0.00    +0.000 A 
ATOM     23  C   UNL     1       1.510   3.517  20.774  0.00  0.00    +0.000 A 
ATOM     24  C   UNL     1       1.532   4.887  20.509  0.00  0.00    +0.000 A 
ATOM     25  C   UNL     1       2.638   5.512  19.887  0.00  0.00    +0.000 A 
BRANCH  20  26
ATOM     26  C   UNL     1       4.829   5.136  18.544  0.00  0.00    +0.000 C 
BRANCH  26  27
ATOM     27  C   UNL     1       6.169   5.358  19.278  0.00  0.00    +0.000 C 
BRANCH  27  29
ATOM     28  C   UNL     1       7.424   4.521  17.229  0.00  0.00    +0.000 C 
ATOM     29  C   UNL     1       7.384   5.561  18.348  0.00  0.00    +0.000 C 
ATOM     30  C   UNL     1       7.363   6.969  17.753  0.00  0.00    +0.000 C 
ENDBRANCH  27  29
ENDBRANCH  26  27
ENDBRANCH  20  26
ENDBRANCH   1  25
TORSDOF 7
ENDMDL
MODEL 7
REMARK VINA RESULT:      -7.6      2.136      4.208
REMARK  Name = 
REMARK  9 active torsions:
REMARK  status: ('A' for Active; 'I' for Inactive)
REMARK    1  A    between atoms: C_1  and  C_2
REMARK    2  A    between atoms: C_2  and  C_3
REMARK    3  A    between atoms: C_2  and  C_4
REMARK    4  A    between atoms: C_4  and  C_5
REMARK    5  A    between atoms: C_5  and  C_6
REMARK    6  A    between atoms: C_11  and  C_12
REMARK    7  A    between atoms: N_14  and  C_15
REMARK    8  A    between atoms: C_16  and  O_17
REMARK    9  A    between atoms: C_21  and  O_22
REMARK                            x       y       z     vdW  Elec       q    Type
REMARK                         _______ _______ _______ _____ _____    ______ ____
ROOT
ATOM      1  C   UNL     1       2.351   6.912  19.772  0.00  0.00    +0.000 C 
ATOM      2  O   UNL     1       2.863   7.387  18.751  0.00  0.00    +0.000 OA
ATOM      3  N   UNL     1       1.624   7.682  20.658  0.00  0.00    +0.000 N 
ATOM      4  H   UNL     1       1.401   7.307  21.574  0.00  0.00    +0.000 HD
ENDROOT
BRANCH   3   5
ATOM      5  C   UNL     1       1.204   9.000  20.470  0.00  0.00    +0.000 A 
ATOM      6  C   UNL     1       0.778   9.566  19.324  0.00  0.00    +0.000 A 
ATOM      7  C   UNL     1       0.176  10.897  19.359  0.00  0.00    +0.000 A 
ATOM      8  C   UNL     1      -0.724  11.363  18.395  0.00  0.00    +0.000 A 
ATOM      9  C   UNL     1      -1.222  12.666  18.467  0.00  0.00    +0.000 A 
ATOM     10  C   UNL     1      -0.776  13.516  19.477  0.00  0.00    +0.000 A 
ATOM     11  C   UNL     1       0.098  13.061  20.459  0.00  0.00    +0.000 A 
ATOM     12  C   UNL     1       0.510  11.732  20.419  0.00  0.00    +0.000 A 
ATOM     13  O   UNL     1       1.188  11.219  21.535  0.00  0.00    +0.000 OA
ATOM     14  C   UNL     1       1.134   9.839  21.711  0.00  0.00    +0.000 A 
ATOM     15  O   UNL     1       1.186   9.316  22.823  0.00  0.00    +0.000 OA
BRANCH   6  16
ATOM     16  O   UNL     1       0.791   8.980  18.079  0.00  0.00    +0.000 OA
ATOM     17  H   UNL     1       0.458   9.647  17.436  0.00  0.00    +0.000 HD
ENDBRANCH   6  16
BRANCH  10  18
ATOM     18  O   UNL     1      -1.208  14.806  19.556  0.00  0.00    +0.000 OA
ATOM     19  H   UNL     1      -2.149  14.807  19.802  0.00  0.00    +0.000 HD
ENDBRANCH  10  18
ENDBRANCH   3   5
BRANCH   1  25
ATOM     20  C   UNL     1       3.554   4.591  19.680  0.00  0.00    +0.000 A 
ATOM     21  C   UNL     1       3.467   3.222  20.040  0.00  0.00    +0.000 A 
ATOM     22  C   UNL     1       2.302   2.675  20.572  0.00  0.00    +0.000 A 
ATOM     23  C   UNL     1       1.202   3.487  20.788  0.00  0.00    +0.000 A 
ATOM     24  C   UNL     1       1.294   4.853  20.522  0.00  0.00    +0.000 A 
ATOM     25  C   UNL     1       2.468   5.435  19.989  0.00  0.00    +0.000 A 
BRANCH  20  26
ATOM     26  C   UNL     1       4.744   4.973  18.825  0.00  0.00    +0.000 C 
BRANCH  26  27
ATOM     27  C   UNL     1       4.944   4.005  17.641  0.00  0.00    +0.000 C 
BRANCH  27  29
ATOM     28  C   UNL     1       5.135   6.184  16.340  0.00  0.00    +0.000 C 
ATOM     29  C   UNL     1       4.908   4.676  16.251  0.00  0.00    +0.000 C 
ATOM     30  C   UNL     1       5.954   4.043  15.332  0.00  0.00    +0.000 C 
ENDBRANCH  27  29
ENDBRANCH  26  27
ENDBRANCH  20  26
ENDBRANCH   1  25
TORSDOF 7
ENDMDL
MODEL 8
REMARK VINA RESULT:      -7.5      2.376      7.999
REMARK  Name = 
REMARK  9 active torsions:
REMARK  status: ('A' for Active; 'I' for Inactive)
REMARK    1  A    between atoms: C_1  and  C_2
REMARK    2  A    between atoms: C_2  and  C_3
REMARK    3  A    between atoms: C_2  and  C_4
REMARK    4  A    between atoms: C_4  and  C_5
REMARK    5  A    between atoms: C_5  and  C_6
REMARK    6  A    between atoms: C_11  and  C_12
REMARK    7  A    between atoms: N_14  and  C_15
REMARK    8  A    between atoms: C_16  and  O_17
REMARK    9  A    between atoms: C_21  and  O_22
REMARK                            x       y       z     vdW  Elec       q    Type
REMARK                         _______ _______ _______ _____ _____    ______ ____
ROOT
ATOM      1  C   UNL     1       0.103   9.283  20.786  0.00  0.00    +0.000 C 
ATOM      2  O   UNL     1      -0.358   8.209  21.192  0.00  0.00    +0.000 OA
ATOM      3  N   UNL     1       1.257   9.350  20.032  0.00  0.00    +0.000 N 
ATOM      4  H   UNL     1       1.711  10.247  19.897  0.00  0.00    +0.000 HD
ENDROOT
BRANCH   3   5
ATOM      5  C   UNL     1       1.951   8.278  19.468  0.00  0.00    +0.000 A 
ATOM      6  C   UNL     1       2.186   7.073  20.025  0.00  0.00    +0.000 A 
ATOM      7  C   UNL     1       2.745   5.999  19.206  0.00  0.00    +0.000 A 
ATOM      8  C   UNL     1       2.567   4.641  19.490  0.00  0.00    +0.000 A 
ATOM      9  C   UNL     1       3.172   3.669  18.689  0.00  0.00    +0.000 A 
ATOM     10  C   UNL     1       3.995   4.063  17.637  0.00  0.00    +0.000 A 
ATOM     11  C   UNL     1       4.161   5.407  17.324  0.00  0.00    +0.000 A 
ATOM     12  C   UNL     1       3.476   6.355  18.079  0.00  0.00    +0.000 A 
ATOM     13  O   UNL     1       3.454   7.678  17.613  0.00  0.00    +0.000 OA
ATOM     14  C   UNL     1       2.394   8.470  18.048  0.00  0.00    +0.000 A 
ATOM     15  O   UNL     1       1.941   9.391  17.370  0.00  0.00    +0.000 OA
BRANCH   6  16
ATOM     16  O   UNL     1       1.888   6.708  21.318  0.00  0.00    +0.000 OA
ATOM     17  H   UNL     1       1.075   6.155  21.287  0.00  0.00    +0.000 HD
ENDBRANCH   6  16
BRANCH  10  18
ATOM     18  O   UNL     1       4.635   3.143  16.859  0.00  0.00    +0.000 OA
ATOM     19  H   UNL     1       3.972   2.546  16.472  0.00  0.00    +0.000 HD
ENDBRANCH  10  18
ENDBRANCH   3   5
BRANCH   1  25
ATOM     20  C   UNL     1      -1.219  11.446  20.143  0.00  0.00    +0.000 A 
ATOM     21  C   UNL     1      -1.989  12.528  20.640  0.00  0.00    +0.000 A 
ATOM     22  C   UNL     1      -2.118  12.772  22.005  0.00  0.00    +0.000 A 
ATOM     23  C   UNL     1      -1.508  11.923  22.912  0.00  0.00    +0.000 A 
ATOM     24  C   UNL     1      -0.818  10.803  22.447  0.00  0.00    +0.000 A 
ATOM     25  C   UNL     1      -0.679  10.528  21.067  0.00  0.00    +0.000 A 
BRANCH  20  26
ATOM     26  C   UNL     1      -0.899  11.489  18.664  0.00  0.00    +0.000 C 
BRANCH  26  27
ATOM     27  C   UNL     1      -1.636  10.384  17.877  0.00  0.00    +0.000 C 
BRANCH  27  29
ATOM     28  C   UNL     1      -2.805  10.237  15.621  0.00  0.00    +0.000 C 
ATOM     29  C   UNL     1      -2.804  10.889  17.003  0.00  0.00    +0.000 C 
ATOM     30  C   UNL     1      -4.137  10.630  17.705  0.00  0.00    +0.000 C 
ENDBRANCH  27  29
ENDBRANCH  26  27
ENDBRANCH  20  26
ENDBRANCH   1  25
TORSDOF 7
ENDMDL
MODEL 9
REMARK VINA RESULT:      -7.5      1.770      3.952
REMARK  Name = 
REMARK  9 active torsions:
REMARK  status: ('A' for Active; 'I' for Inactive)
REMARK    1  A    between atoms: C_1  and  C_2
REMARK    2  A    between atoms: C_2  and  C_3
REMARK    3  A    between atoms: C_2  and  C_4
REMARK    4  A    between atoms: C_4  and  C_5
REMARK    5  A    between atoms: C_5  and  C_6
REMARK    6  A    between atoms: C_11  and  C_12
REMARK    7  A    between atoms: N_14  and  C_15
REMARK    8  A    between atoms: C_16  and  O_17
REMARK    9  A    between atoms: C_21  and  O_22
REMARK                            x       y       z     vdW  Elec       q    Type
REMARK                         _______ _______ _______ _____ _____    ______ ____
ROOT
ATOM      1  C   UNL     1       2.525   7.359  18.519  0.00  0.00    +0.000 C 
ATOM      2  O   UNL     1       3.002   8.211  17.760  0.00  0.00    +0.000 OA
ATOM      3  N   UNL     1       1.716   7.693  19.586  0.00  0.00    +0.000 N 
ATOM      4  H   UNL     1       1.518   6.996  20.296  0.00  0.00    +0.000 HD
ENDROOT
BRANCH   3   5
ATOM      5  C   UNL     1       1.173   8.949  19.862  0.00  0.00    +0.000 A 
ATOM      6  C   UNL     1       0.588   9.795  18.992  0.00  0.00    +0.000 A 
ATOM      7  C   UNL     1      -0.113  10.974  19.497  0.00  0.00    +0.000 A 
ATOM      8  C   UNL     1      -1.142  11.617  18.800  0.00  0.00    +0.000 A 
ATOM      9  C   UNL     1      -1.735  12.769  19.322  0.00  0.00    +0.000 A 
ATOM     10  C   UNL     1      -1.257  13.304  20.517  0.00  0.00    +0.000 A 
ATOM     11  C   UNL     1      -0.253  12.664  21.236  0.00  0.00    +0.000 A 
ATOM     12  C   UNL     1       0.259  11.467  20.742  0.00  0.00    +0.000 A 
ATOM     13  O   UNL     1       1.087  10.708  21.582  0.00  0.00    +0.000 OA
ATOM     14  C   UNL     1       1.164   9.345  21.309  0.00  0.00    +0.000 A 
ATOM     15  O   UNL     1       1.372   8.510  22.188  0.00  0.00    +0.000 OA
BRANCH   6  16
ATOM     16  O   UNL     1       0.520   9.633  17.627  0.00  0.00    +0.000 OA
ATOM     17  H   UNL     1       1.418   9.809  17.266  0.00  0.00    +0.000 HD
ENDBRANCH   6  16
BRANCH  10  18
ATOM     18  O   UNL     1      -1.782  14.450  21.037  0.00  0.00    +0.000 OA
ATOM     19  H   UNL     1      -2.497  14.215  21.653  0.00  0.00    +0.000 HD
ENDBRANCH  10  18
ENDBRANCH   3   5
BRANCH   1  25
ATOM     20  C   UNL     1       4.000   5.306  17.844  0.00  0.00    +0.000 A 
ATOM     21  C   UNL     1       4.018   3.902  17.650  0.00  0.00    +0.000 A 
ATOM     22  C   UNL     1       2.851   3.141  17.679  0.00  0.00    +0.000 A 
ATOM     23  C   UNL     1       1.638   3.759  17.934  0.00  0.00    +0.000 A 
ATOM     24  C   UNL     1       1.610   5.125  18.214  0.00  0.00    +0.000 A 
ATOM     25  C   UNL     1       2.780   5.919  18.198  0.00  0.00    +0.000 A 
BRANCH  20  26
ATOM     26  C   UNL     1       5.270   6.040  17.469  0.00  0.00    +0.000 C 
BRANCH  26  27
ATOM     27  C   UNL     1       5.524   6.020  15.946  0.00  0.00    +0.000 C 
BRANCH  27  29
ATOM     28  C   UNL     1       7.458   4.548  16.701  0.00  0.00    +0.000 C 
ATOM     29  C   UNL     1       6.707   5.133  15.505  0.00  0.00    +0.000 C 
ATOM     30  C   UNL     1       6.213   4.008  14.596  0.00  0.00    +0.000 C 
ENDBRANCH  27  29
ENDBRANCH  26  27
ENDBRANCH  20  26
ENDBRANCH   1  25
TORSDOF 7
ENDMDL
