MODEL 1
REMARK VINA RESULT:      -6.7      0.000      0.000
REMARK  Name = 
REMARK  7 active torsions:
REMARK  status: ('A' for Active; 'I' for Inactive)
REMARK    1  A    between atoms: C_1  and  C_2
REMARK    2  A    between atoms: C_2  and  O_3
REMARK    3  A    between atoms: O_3  and  C_4
REMARK    4  A    between atoms: C_4  and  C_6
REMARK    5  A    between atoms: C_6  and  C_7
REMARK    6  A    between atoms: C_6  and  C_11
REMARK    7  A    between atoms: C_7  and  N_8
REMARK                            x       y       z     vdW  Elec       q    Type
REMARK                         _______ _______ _______ _____ _____    ______ ____
ROOT
ATOM      1  C   UNL     1       5.981   5.046  16.254  0.00  0.00    +0.000 C 
ENDROOT
BRANCH   1   2
ATOM      2  C   UNL     1       4.627   5.012  16.959  0.00  0.00    +0.000 A 
ATOM      3  C   UNL     1       4.063   6.199  17.456  0.00  0.00    +0.000 A 
ATOM      4  C   UNL     1       2.838   6.180  18.127  0.00  0.00    +0.000 A 
ATOM      5  C   UNL     1       2.157   4.977  18.312  0.00  0.00    +0.000 A 
ATOM      6  C   UNL     1       2.706   3.795  17.821  0.00  0.00    +0.000 A 
ATOM      7 CL   UNL     1       1.873   2.308  18.051  0.00  0.00    +0.000 Cl
ATOM      8  C   UNL     1       3.929   3.806  17.148  0.00  0.00    +0.000 A 
ENDBRANCH   1   2
BRANCH   1   9
ATOM      9  C   UNL     1       7.110   5.202  17.270  0.00  0.00    +0.000 C 
ATOM     10  O   UNL     1       7.365   4.367  18.129  0.00  0.00    +0.000 OA
BRANCH   9  11
ATOM     11  O   UNL     1       7.813   6.349  17.078  0.00  0.00    +0.000 OA
BRANCH  11  13
ATOM     12  C   UNL     1       7.896   8.664  17.737  0.00  0.00    +0.000 C 
ATOM     13  C   UNL     1       7.913   7.225  18.212  0.00  0.00    +0.000 C 
ENDBRANCH  11  13
ENDBRANCH   9  11
ENDBRANCH   1   9
BRANCH   1  14
ATOM     14  C   UNL     1       6.117   3.836  15.328  0.00  0.00    +0.000 C 
BRANCH  14  15
ATOM     15  N   UNL     1       6.562   4.249  13.951  0.00  0.00    +0.000 N 
ATOM     16  O   UNL     1       7.287   5.243  13.850  0.00  0.00    +0.000 OA
ATOM     17  O   UNL     1       6.128   3.575  13.007  0.00  0.00    +0.000 OA
ENDBRANCH  14  15
ENDBRANCH   1  14
TORSDOF 6
ENDMDL
MODEL 2
REMARK VINA RESULT:      -6.7      1.310      1.753
REMARK  Name = 
REMARK  7 active torsions:
REMARK  status: ('A' for Active; 'I' for Inactive)
REMARK    1  A    between atoms: C_1  and  C_2
REMARK    2  A    between atoms: C_2  and  O_3
REMARK    3  A    between atoms: O_3  and  C_4
REMARK    4  A    between atoms: C_4  and  C_6
REMARK    5  A    between atoms: C_6  and  C_7
REMARK    6  A    between atoms: C_6  and  C_11
REMARK    7  A    between atoms: C_7  and  N_8
REMARK                            x       y       z     vdW  Elec       q    Type
REMARK                         _______ _______ _______ _____ _____    ______ ____
ROOT
ATOM      1  C   UNL     1       5.992   5.080  16.098  0.00  0.00    +0.000 C 
ENDROOT
BRANCH   1   2
ATOM      2  C   UNL     1       4.660   5.050  16.843  0.00  0.00    +0.000 A 
ATOM      3  C   UNL     1       3.908   3.864  16.892  0.00  0.00    +0.000 A 
ATOM      4  C   UNL     1       2.675   3.827  17.548  0.00  0.00    +0.000 A 
ATOM      5  C   UNL     1       2.174   4.973  18.165  0.00  0.00    +0.000 A 
ATOM      6  C   UNL     1       2.913   6.153  18.125  0.00  0.00    +0.000 A 
ATOM      7 CL   UNL     1       2.298   7.571  18.880  0.00  0.00    +0.000 Cl
ATOM      8  C   UNL     1       4.146   6.198  17.474  0.00  0.00    +0.000 A 
ENDBRANCH   1   2
BRANCH   1   9
ATOM      9  C   UNL     1       7.146   5.303  17.074  0.00  0.00    +0.000 C 
ATOM     10  O   UNL     1       7.536   4.451  17.863  0.00  0.00    +0.000 OA
BRANCH   9  11
ATOM     11  O   UNL     1       7.705   6.533  16.929  0.00  0.00    +0.000 OA
BRANCH  11  13
ATOM     12  C   UNL     1       8.021   8.748  17.818  0.00  0.00    +0.000 C 
ATOM     13  C   UNL     1       7.929   7.270  18.141  0.00  0.00    +0.000 C 
ENDBRANCH  11  13
ENDBRANCH   9  11
ENDBRANCH   1   9
BRANCH   1  14
ATOM     14  C   UNL     1       6.129   3.834  15.221  0.00  0.00    +0.000 C 
BRANCH  14  15
ATOM     15  N   UNL     1       6.529   4.196  13.816  0.00  0.00    +0.000 N 
ATOM     16  O   UNL     1       7.287   5.158  13.659  0.00  0.00    +0.000 OA
ATOM     17  O   UNL     1       6.028   3.517  12.910  0.00  0.00    +0.000 OA
ENDBRANCH  14  15
ENDBRANCH   1  14
TORSDOF 6
ENDMDL
MODEL 3
REMARK VINA RESULT:      -6.6      2.177      3.880
REMARK  Name = 
REMARK  7 active torsions:
REMARK  status: ('A' for Active; 'I' for Inactive)
REMARK    1  A    between atoms: C_1  and  C_2
REMARK    2  A    between atoms: C_2  and  O_3
REMARK    3  A    between atoms: O_3  and  C_4
REMARK    4  A    between atoms: C_4  and  C_6
REMARK    5  A    between atoms: C_6  and  C_7
REMARK    6  A    between atoms: C_6  and  C_11
REMARK    7  A    between atoms: C_7  and  N_8
REMARK                            x       y       z     vdW  Elec       q    Type
REMARK                         _______ _______ _______ _____ _____    ______ ____
ROOT
ATOM      1  C   UNL     1       5.497   4.935  16.833  0.00  0.00    +0.000 C 
ENDROOT
BRANCH   1   2
ATOM      2  C   UNL     1       4.156   4.684  17.517  0.00  0.00    +0.000 A 
ATOM      3  C   UNL     1       3.360   3.595  17.126  0.00  0.00    +0.000 A 
ATOM      4  C   UNL     1       2.118   3.367  17.724  0.00  0.00    +0.000 A 
ATOM      5  C   UNL     1       1.653   4.223  18.723  0.00  0.00    +0.000 A 
ATOM      6  C   UNL     1       2.436   5.304  19.121  0.00  0.00    +0.000 A 
ATOM      7 CL   UNL     1       1.865   6.365  20.348  0.00  0.00    +0.000 Cl
ATOM      8  C   UNL     1       3.678   5.537  18.529  0.00  0.00    +0.000 A 
ENDBRANCH   1   2
BRANCH   1   9
ATOM      9  C   UNL     1       5.287   5.581  15.464  0.00  0.00    +0.000 C 
ATOM     10  O   UNL     1       5.259   6.793  15.288  0.00  0.00    +0.000 OA
BRANCH   9  11
ATOM     11  O   UNL     1       5.178   4.656  14.475  0.00  0.00    +0.000 OA
BRANCH  11  13
ATOM     12  C   UNL     1       6.232   3.523  12.630  0.00  0.00    +0.000 C 
ATOM     13  C   UNL     1       6.405   4.050  14.041  0.00  0.00    +0.000 C 
ENDBRANCH  11  13
ENDBRANCH   9  11
ENDBRANCH   1   9
BRANCH   1  14
ATOM     14  C   UNL     1       6.425   5.711  17.770  0.00  0.00    +0.000 C 
BRANCH  14  15
ATOM     15  N   UNL     1       7.652   4.909  18.111  0.00  0.00    +0.000 N 
ATOM     16  O   UNL     1       8.131   5.036  19.242  0.00  0.00    +0.000 OA
ATOM     17  O   UNL     1       8.118   4.205  17.205  0.00  0.00    +0.000 OA
ENDBRANCH  14  15
ENDBRANCH   1  14
TORSDOF 6
ENDMDL
MODEL 4
REMARK VINA RESULT:      -6.5      1.738      3.639
REMARK  Name = 
REMARK  7 active torsions:
REMARK  status: ('A' for Active; 'I' for Inactive)
REMARK    1  A    between atoms: C_1  and  C_2
REMARK    2  A    between atoms: C_2  and  O_3
REMARK    3  A    between atoms: O_3  and  C_4
REMARK    4  A    between atoms: C_4  and  C_6
REMARK    5  A    between atoms: C_6  and  C_7
REMARK    6  A    between atoms: C_6  and  C_11
REMARK    7  A    between atoms: C_7  and  N_8
REMARK                            x       y       z     vdW  Elec       q    Type
REMARK                         _______ _______ _______ _____ _____    ______ ____
ROOT
ATOM      1  C   UNL     1       5.859   5.344  16.733  0.00  0.00    +0.000 C 
ENDROOT
BRANCH   1   2
ATOM      2  C   UNL     1       4.465   5.100  17.306  0.00  0.00    +0.000 A 
ATOM      3  C   UNL     1       3.723   6.171  17.831  0.00  0.00    +0.000 A 
ATOM      4  C   UNL     1       2.457   5.960  18.383  0.00  0.00    +0.000 A 
ATOM      5  C   UNL     1       1.913   4.677  18.419  0.00  0.00    +0.000 A 
ATOM      6  C   UNL     1       2.638   3.608  17.899  0.00  0.00    +0.000 A 
ATOM      7 CL   UNL     1       1.973   2.023  17.945  0.00  0.00    +0.000 Cl
ATOM      8  C   UNL     1       3.902   3.811  17.344  0.00  0.00    +0.000 A 
ENDBRANCH   1   2
BRANCH   1   9
ATOM      9  C   UNL     1       5.763   5.949  15.333  0.00  0.00    +0.000 C 
ATOM     10  O   UNL     1       5.072   6.924  15.066  0.00  0.00    +0.000 OA
BRANCH   9  11
ATOM     11  O   UNL     1       6.562   5.303  14.444  0.00  0.00    +0.000 OA
BRANCH  11  13
ATOM     12  C   UNL     1       6.017   3.613  12.818  0.00  0.00    +0.000 C 
ATOM     13  C   UNL     1       6.314   3.899  14.276  0.00  0.00    +0.000 C 
ENDBRANCH  11  13
ENDBRANCH   9  11
ENDBRANCH   1   9
BRANCH   1  14
ATOM     14  C   UNL     1       6.697   6.154  17.723  0.00  0.00    +0.000 C 
BRANCH  14  15
ATOM     15  N   UNL     1       7.394   5.257  18.711  0.00  0.00    +0.000 N 
ATOM     16  O   UNL     1       7.234   5.485  19.913  0.00  0.00    +0.000 OA
ATOM     17  O   UNL     1       8.117   4.372  18.235  0.00  0.00    +0.000 OA
ENDBRANCH  14  15
ENDBRANCH   1  14
TORSDOF 6
ENDMDL
MODEL 5
REMARK VINA RESULT:      -6.5      1.773      3.763
REMARK  Name = 
REMARK  7 active torsions:
REMARK  status: ('A' for Active; 'I' for Inactive)
REMARK    1  A    between atoms: C_1  and  C_2
REMARK    2  A    between atoms: C_2  and  O_3
REMARK    3  A    between atoms: O_3  and  C_4
REMARK    4  A    between atoms: C_4  and  C_6
REMARK    5  A    between atoms: C_6  and  C_7
REMARK    6  A    between atoms: C_6  and  C_11
REMARK    7  A    between atoms: C_7  and  N_8
REMARK                            x       y       z     vdW  Elec       q    Type
REMARK                         _______ _______ _______ _____ _____    ______ ____
ROOT
ATOM      1  C   UNL     1       5.793   4.751  16.731  0.00  0.00    +0.000 C 
ENDROOT
BRANCH   1   2
ATOM      2  C   UNL     1       4.392   4.756  17.337  0.00  0.00    +0.000 A 
ATOM      3  C   UNL     1       3.785   5.971  17.695  0.00  0.00    +0.000 A 
ATOM      4  C   UNL     1       2.515   5.991  18.275  0.00  0.00    +0.000 A 
ATOM      5  C   UNL     1       1.831   4.798  18.507  0.00  0.00    +0.000 A 
ATOM      6  C   UNL     1       2.422   3.588  18.153  0.00  0.00    +0.000 A 
ATOM      7 CL   UNL     1       1.585   2.113  18.441  0.00  0.00    +0.000 Cl
ATOM      8  C   UNL     1       3.690   3.560  17.571  0.00  0.00    +0.000 A 
ENDBRANCH   1   2
BRANCH   1   9
ATOM      9  C   UNL     1       5.726   5.006  15.226  0.00  0.00    +0.000 C 
ATOM     10  O   UNL     1       5.617   6.124  14.736  0.00  0.00    +0.000 OA
BRANCH   9  11
ATOM     11  O   UNL     1       5.841   3.858  14.508  0.00  0.00    +0.000 OA
BRANCH  11  13
ATOM     12  C   UNL     1       5.733   3.212  12.192  0.00  0.00    +0.000 C 
ATOM     13  C   UNL     1       6.516   3.968  13.246  0.00  0.00    +0.000 C 
ENDBRANCH  11  13
ENDBRANCH   9  11
ENDBRANCH   1   9
BRANCH   1  14
ATOM     14  C   UNL     1       6.700   5.711  17.502  0.00  0.00    +0.000 C 
BRANCH  14  15
ATOM     15  N   UNL     1       7.693   4.963  18.350  0.00  0.00    +0.000 N 
ATOM     16  O   UNL     1       8.402   4.116  17.801  0.00  0.00    +0.000 OA
ATOM     17  O   UNL     1       7.693   5.229  19.560  0.00  0.00    +0.000 OA
ENDBRANCH  14  15
ENDBRANCH   1  14
TORSDOF 6
ENDMDL
MODEL 6
REMARK VINA RESULT:      -6.5      1.006      1.256
REMARK  Name = 
REMARK  7 active torsions:
REMARK  status: ('A' for Active; 'I' for Inactive)
REMARK    1  A    between atoms: C_1  and  C_2
REMARK    2  A    between atoms: C_2  and  O_3
REMARK    3  A    between atoms: O_3  and  C_4
REMARK    4  A    between atoms: C_4  and  C_6
REMARK    5  A    between atoms: C_6  and  C_7
REMARK    6  A    between atoms: C_6  and  C_11
REMARK    7  A    between atoms: C_7  and  N_8
REMARK                            x       y       z     vdW  Elec       q    Type
REMARK                         _______ _______ _______ _____ _____    ______ ____
ROOT
ATOM      1  C   UNL     1       6.197   5.257  16.872  0.00  0.00    +0.000 C 
ENDROOT
BRANCH   1   2
ATOM      2  C   UNL     1       4.858   5.238  17.604  0.00  0.00    +0.000 A 
ATOM      3  C   UNL     1       3.974   6.323  17.482  0.00  0.00    +0.000 A 
ATOM      4  C   UNL     1       2.756   6.332  18.166  0.00  0.00    +0.000 A 
ATOM      5  C   UNL     1       2.402   5.258  18.983  0.00  0.00    +0.000 A 
ATOM      6  C   UNL     1       3.270   4.176  19.109  0.00  0.00    +0.000 A 
ATOM      7 CL   UNL     1       2.841   2.851  20.118  0.00  0.00    +0.000 Cl
ATOM      8  C   UNL     1       4.488   4.159  18.427  0.00  0.00    +0.000 A 
ENDBRANCH   1   2
BRANCH   1   9
ATOM      9  C   UNL     1       7.352   5.312  17.871  0.00  0.00    +0.000 C 
ATOM     10  O   UNL     1       8.043   4.342  18.157  0.00  0.00    +0.000 OA
BRANCH   9  11
ATOM     11  O   UNL     1       7.540   6.565  18.364  0.00  0.00    +0.000 OA
BRANCH  11  13
ATOM     12  C   UNL     1       8.211   8.851  18.019  0.00  0.00    +0.000 C 
ATOM     13  C   UNL     1       7.576   7.624  17.396  0.00  0.00    +0.000 C 
ENDBRANCH  11  13
ENDBRANCH   9  11
ENDBRANCH   1   9
BRANCH   1  14
ATOM     14  C   UNL     1       6.267   4.096  15.879  0.00  0.00    +0.000 C 
BRANCH  14  15
ATOM     15  N   UNL     1       6.787   4.551  14.542  0.00  0.00    +0.000 N 
ATOM     16  O   UNL     1       6.386   3.963  13.533  0.00  0.00    +0.000 OA
ATOM     17  O   UNL     1       7.620   5.467  14.559  0.00  0.00    +0.000 OA
ENDBRANCH  14  15
ENDBRANCH   1  14
TORSDOF 6
ENDMDL
MODEL 7
REMARK VINA RESULT:      -6.4      2.387      3.709
REMARK  Name = 
REMARK  7 active torsions:
REMARK  status: ('A' for Active; 'I' for Inactive)
REMARK    1  A    between atoms: C_1  and  C_2
REMARK    2  A    between atoms: C_2  and  O_3
REMARK    3  A    between atoms: O_3  and  C_4
REMARK    4  A    between atoms: C_4  and  C_6
REMARK    5  A    between atoms: C_6  and  C_7
REMARK    6  A    between atoms: C_6  and  C_11
REMARK    7  A    between atoms: C_7  and  N_8
REMARK                            x       y       z     vdW  Elec       q    Type
REMARK                         _______ _______ _______ _____ _____    ______ ____
ROOT
ATOM      1  C   UNL     1       5.157   4.606  17.634  0.00  0.00    +0.000 C 
ENDROOT
BRANCH   1   2
ATOM      2  C   UNL     1       3.799   4.220  18.214  0.00  0.00    +0.000 A 
ATOM      3  C   UNL     1       2.681   4.106  17.372  0.00  0.00    +0.000 A 
ATOM      4  C   UNL     1       1.426   3.780  17.891  0.00  0.00    +0.000 A 
ATOM      5  C   UNL     1       1.268   3.561  19.259  0.00  0.00    +0.000 A 
ATOM      6  C   UNL     1       2.371   3.668  20.103  0.00  0.00    +0.000 A 
ATOM      7 CL   UNL     1       2.181   3.404  21.793  0.00  0.00    +0.000 Cl
ATOM      8  C   UNL     1       3.628   3.992  19.592  0.00  0.00    +0.000 A 
ENDBRANCH   1   2
BRANCH   1   9
ATOM      9  C   UNL     1       5.014   5.789  16.678  0.00  0.00    +0.000 C 
ATOM     10  O   UNL     1       4.689   6.913  17.040  0.00  0.00    +0.000 OA
BRANCH   9  11
ATOM     11  O   UNL     1       5.329   5.452  15.400  0.00  0.00    +0.000 OA
BRANCH  11  13
ATOM     12  C   UNL     1       6.174   3.919  13.747  0.00  0.00    +0.000 C 
ATOM     13  C   UNL     1       5.746   4.095  15.190  0.00  0.00    +0.000 C 
ENDBRANCH  11  13
ENDBRANCH   9  11
ENDBRANCH   1   9
BRANCH   1  14
ATOM     14  C   UNL     1       6.167   4.817  18.763  0.00  0.00    +0.000 C 
BRANCH  14  15
ATOM     15  N   UNL     1       7.537   5.123  18.221  0.00  0.00    +0.000 N 
ATOM     16  O   UNL     1       8.164   4.207  17.679  0.00  0.00    +0.000 OA
ATOM     17  O   UNL     1       7.955   6.275  18.400  0.00  0.00    +0.000 OA
ENDBRANCH  14  15
ENDBRANCH   1  14
TORSDOF 6
ENDMDL
MODEL 8
REMARK VINA RESULT:      -6.4      2.669      4.190
REMARK  Name = 
REMARK  7 active torsions:
REMARK  status: ('A' for Active; 'I' for Inactive)
REMARK    1  A    between atoms: C_1  and  C_2
REMARK    2  A    between atoms: C_2  and  O_3
REMARK    3  A    between atoms: O_3  and  C_4
REMARK    4  A    between atoms: C_4  and  C_6
REMARK    5  A    between atoms: C_6  and  C_7
REMARK    6  A    between atoms: C_6  and  C_11
REMARK    7  A    between atoms: C_7  and  N_8
REMARK                            x       y       z     vdW  Elec       q    Type
REMARK                         _______ _______ _______ _____ _____    ______ ____
ROOT
ATOM      1  C   UNL     1       5.162   4.777  18.238  0.00  0.00    +0.000 C 
ENDROOT
BRANCH   1   2
ATOM      2  C   UNL     1       4.124   5.887  18.379  0.00  0.00    +0.000 A 
ATOM      3  C   UNL     1       4.019   6.882  17.394  0.00  0.00    +0.000 A 
ATOM      4  C   UNL     1       3.092   7.919  17.522  0.00  0.00    +0.000 A 
ATOM      5  C   UNL     1       2.255   7.978  18.636  0.00  0.00    +0.000 A 
ATOM      6  C   UNL     1       2.348   6.995  19.618  0.00  0.00    +0.000 A 
ATOM      7 CL   UNL     1       1.321   7.065  20.996  0.00  0.00    +0.000 Cl
ATOM      8  C   UNL     1       3.270   5.955  19.496  0.00  0.00    +0.000 A 
ENDBRANCH   1   2
BRANCH   1   9
ATOM      9  C   UNL     1       4.576   3.437  18.681  0.00  0.00    +0.000 C 
ATOM     10  O   UNL     1       4.863   2.894  19.741  0.00  0.00    +0.000 OA
BRANCH   9  11
ATOM     11  O   UNL     1       3.679   2.951  17.784  0.00  0.00    +0.000 OA
BRANCH  11  13
ATOM     12  C   UNL     1       1.350   3.104  18.371  0.00  0.00    +0.000 C 
ATOM     13  C   UNL     1       2.576   2.214  18.331  0.00  0.00    +0.000 C 
ENDBRANCH  11  13
ENDBRANCH   9  11
ENDBRANCH   1   9
BRANCH   1  14
ATOM     14  C   UNL     1       5.744   4.783  16.823  0.00  0.00    +0.000 C 
BRANCH  14  15
ATOM     15  N   UNL     1       7.194   5.185  16.831  0.00  0.00    +0.000 N 
ATOM     16  O   UNL     1       7.487   6.306  16.406  0.00  0.00    +0.000 OA
ATOM     17  O   UNL     1       7.999   4.332  17.229  0.00  0.00    +0.000 OA
ENDBRANCH  14  15
ENDBRANCH   1  14
TORSDOF 6
ENDMDL
MODEL 9
REMARK VINA RESULT:      -6.4      1.015      1.435
REMARK  Name = 
REMARK  7 active torsions:
REMARK  status: ('A' for Active; 'I' for Inactive)
REMARK    1  A    between atoms: C_1  and  C_2
REMARK    2  A    between atoms: C_2  and  O_3
REMARK    3  A    between atoms: O_3  and  C_4
REMARK    4  A    between atoms: C_4  and  C_6
REMARK    5  A    between atoms: C_6  and  C_7
REMARK    6  A    between atoms: C_6  and  C_11
REMARK    7  A    between atoms: C_7  and  N_8
REMARK                            x       y       z     vdW  Elec       q    Type
REMARK                         _______ _______ _______ _____ _____    ______ ____
ROOT
ATOM      1  C   UNL     1       5.971   5.514  15.826  0.00  0.00    +0.000 C 
ENDROOT
BRANCH   1   2
ATOM      2  C   UNL     1       4.694   5.295  16.634  0.00  0.00    +0.000 A 
ATOM      3  C   UNL     1       4.053   6.384  17.247  0.00  0.00    +0.000 A 
ATOM      4  C   UNL     1       2.899   6.197  18.011  0.00  0.00    +0.000 A 
ATOM      5  C   UNL     1       2.366   4.918  18.173  0.00  0.00    +0.000 A 
ATOM      6  C   UNL     1       2.991   3.831  17.567  0.00  0.00    +0.000 A 
ATOM      7 CL   UNL     1       2.340   2.252  17.768  0.00  0.00    +0.000 Cl
ATOM      8  C   UNL     1       4.143   4.011  16.801  0.00  0.00    +0.000 A 
ENDBRANCH   1   2
BRANCH   1   9
ATOM      9  C   UNL     1       7.055   6.144  16.700  0.00  0.00    +0.000 C 
ATOM     10  O   UNL     1       7.273   7.348  16.742  0.00  0.00    +0.000 OA
BRANCH   9  11
ATOM     11  O   UNL     1       7.709   5.216  17.447  0.00  0.00    +0.000 OA
BRANCH  11  13
ATOM     12  C   UNL     1       6.559   5.352  19.558  0.00  0.00    +0.000 C 
ATOM     13  C   UNL     1       7.880   5.531  18.837  0.00  0.00    +0.000 C 
ENDBRANCH  11  13
ENDBRANCH   9  11
ENDBRANCH   1   9
BRANCH   1  14
ATOM     14  C   UNL     1       6.382   4.213  15.136  0.00  0.00    +0.000 C 
BRANCH  14  15
ATOM     15  N   UNL     1       6.848   4.465  13.727  0.00  0.00    +0.000 N 
ATOM     16  O   UNL     1       7.599   5.424  13.529  0.00  0.00    +0.000 OA
ATOM     17  O   UNL     1       6.403   3.706  12.857  0.00  0.00    +0.000 OA
ENDBRANCH  14  15
ENDBRANCH   1  14
TORSDOF 6
ENDMDL
