MODEL 1
REMARK VINA RESULT:      -8.7      0.000      0.000
REMARK  Name = 
REMARK  5 active torsions:
REMARK  status: ('A' for Active; 'I' for Inactive)
REMARK    1  A    between atoms: C_1  and  C_2
REMARK    2  A    between atoms: C_6  and  O_7
REMARK    3  A    between atoms: O_7  and  C_8
REMARK    4  A    between atoms: C_13  and  C_14
REMARK    5  A    between atoms: N_16  and  C_17
REMARK                            x       y       z     vdW  Elec       q    Type
REMARK                         _______ _______ _______ _____ _____    ______ ____
ROOT
ATOM      1  C   UNL     1      -0.277  11.393  21.292  0.00  0.00    +0.000 A 
ATOM      2  C   UNL     1      -0.121  10.415  22.273  0.00  0.00    +0.000 A 
ATOM      3  C   UNL     1       0.508   9.203  21.965  0.00  0.00    +0.000 A 
ATOM      4  C   UNL     1       1.024   8.947  20.704  0.00  0.00    +0.000 A 
ATOM      5  N   UNL     1       1.619   7.758  20.453  0.00  0.00    +0.000 NA
ATOM      6  C   UNL     1       2.113   7.571  19.199  0.00  0.00    +0.000 A 
ATOM      7  C   UNL     1       2.048   8.518  18.184  0.00  0.00    +0.000 A 
ATOM      8  C   UNL     1       1.436   9.731  18.457  0.00  0.00    +0.000 A 
ATOM      9  C   UNL     1       0.905   9.965  19.728  0.00  0.00    +0.000 A 
ATOM     10  C   UNL     1       0.262  11.178  20.027  0.00  0.00    +0.000 A 
ENDROOT
BRANCH   6  11
ATOM     11  C   UNL     1       2.753   6.253  18.895  0.00  0.00    +0.000 C 
ATOM     12  O   UNL     1       2.253   5.206  19.296  0.00  0.00    +0.000 OA
ATOM     13  N   UNL     1       3.927   6.282  18.157  0.00  0.00    +0.000 N 
ATOM     14  H   UNL     1       4.338   7.204  18.015  0.00  0.00    +0.000 HD
BRANCH  13  15
ATOM     15  C   UNL     1       4.675   5.046  17.945  0.00  0.00    +0.000 C 
ATOM     16  C   UNL     1       5.601   4.707  19.118  0.00  0.00    +0.000 C 
ATOM     17  C   UNL     1       6.857   5.541  18.933  0.00  0.00    +0.000 C 
ATOM     18  S   UNL     1       7.199   5.432  17.194  0.00  0.00    +0.000 S 
ATOM     19  O   UNL     1       8.007   4.249  16.967  0.00  0.00    +0.000 OA
ATOM     20  O   UNL     1       7.602   6.738  16.716  0.00  0.00    +0.000 OA
ATOM     21  C   UNL     1       5.533   5.083  16.669  0.00  0.00    +0.000 C 
ENDBRANCH  13  15
ENDBRANCH   6  11
BRANCH   1  22
ATOM     22  O   UNL     1      -0.867  12.617  21.505  0.00  0.00    +0.000 OA
BRANCH  22  28
ATOM     23  C   UNL     1      -4.639  12.618  24.355  0.00  0.00    +0.000 C 
ATOM     24  C   UNL     1      -4.089  12.664  22.962  0.00  0.00    +0.000 A 
ATOM     25  C   UNL     1      -4.928  12.711  21.866  0.00  0.00    +0.000 A 
ATOM     26  C   UNL     1      -4.317  12.762  20.635  0.00  0.00    +0.000 A 
ATOM     27  N   UNL     1      -2.986  12.757  20.468  0.00  0.00    +0.000 NA
ATOM     28  C   UNL     1      -2.252  12.670  21.592  0.00  0.00    +0.000 A 
ATOM     29  N   UNL     1      -2.745  12.645  22.842  0.00  0.00    +0.000 NA
ENDBRANCH  22  28
ENDBRANCH   1  22
TORSDOF 4
ENDMDL
MODEL 2
REMARK VINA RESULT:      -8.7      1.100      1.907
REMARK  Name = 
REMARK  5 active torsions:
REMARK  status: ('A' for Active; 'I' for Inactive)
REMARK    1  A    between atoms: C_1  and  C_2
REMARK    2  A    between atoms: C_6  and  O_7
REMARK    3  A    between atoms: O_7  and  C_8
REMARK    4  A    between atoms: C_13  and  C_14
REMARK    5  A    between atoms: N_16  and  C_17
REMARK                            x       y       z     vdW  Elec       q    Type
REMARK                         _______ _______ _______ _____ _____    ______ ____
ROOT
ATOM      1  C   UNL     1      -0.537  11.337  20.314  0.00  0.00    +0.000 A 
ATOM      2  C   UNL     1      -0.392  10.578  21.474  0.00  0.00    +0.000 A 
ATOM      3  C   UNL     1       0.359   9.397  21.454  0.00  0.00    +0.000 A 
ATOM      4  C   UNL     1       1.007   8.963  20.308  0.00  0.00    +0.000 A 
ATOM      5  N   UNL     1       1.717   7.812  20.336  0.00  0.00    +0.000 NA
ATOM      6  C   UNL     1       2.337   7.443  19.182  0.00  0.00    +0.000 A 
ATOM      7  C   UNL     1       2.288   8.174  18.002  0.00  0.00    +0.000 A 
ATOM      8  C   UNL     1       1.557   9.351  17.988  0.00  0.00    +0.000 A 
ATOM      9  C   UNL     1       0.894   9.765  19.147  0.00  0.00    +0.000 A 
ATOM     10  C   UNL     1       0.130  10.943  19.157  0.00  0.00    +0.000 A 
ENDROOT
BRANCH   6  11
ATOM     11  C   UNL     1       3.108   6.161  19.187  0.00  0.00    +0.000 C 
ATOM     12  O   UNL     1       2.990   5.362  20.113  0.00  0.00    +0.000 OA
ATOM     13  N   UNL     1       3.954   5.933  18.112  0.00  0.00    +0.000 N 
ATOM     14  H   UNL     1       4.097   6.726  17.487  0.00  0.00    +0.000 HD
BRANCH  13  15
ATOM     15  C   UNL     1       4.836   4.770  18.124  0.00  0.00    +0.000 C 
ATOM     16  C   UNL     1       5.846   4.806  19.276  0.00  0.00    +0.000 C 
ATOM     17  C   UNL     1       6.982   5.709  18.829  0.00  0.00    +0.000 C 
ATOM     18  S   UNL     1       7.261   5.251  17.136  0.00  0.00    +0.000 S 
ATOM     19  O   UNL     1       8.196   4.142  17.117  0.00  0.00    +0.000 OA
ATOM     20  O   UNL     1       7.482   6.452  16.358  0.00  0.00    +0.000 OA
ATOM     21  C   UNL     1       5.628   4.613  16.815  0.00  0.00    +0.000 C 
ENDBRANCH  13  15
ENDBRANCH   6  11
BRANCH   1  22
ATOM     22  O   UNL     1      -1.243  12.515  20.241  0.00  0.00    +0.000 OA
BRANCH  22  28
ATOM     23  C   UNL     1      -4.820  11.308  17.396  0.00  0.00    +0.000 C 
ATOM     24  C   UNL     1      -4.363  11.872  18.707  0.00  0.00    +0.000 A 
ATOM     25  C   UNL     1      -5.272  12.320  19.645  0.00  0.00    +0.000 A 
ATOM     26  C   UNL     1      -4.745  12.807  20.818  0.00  0.00    +0.000 A 
ATOM     27  N   UNL     1      -3.428  12.869  21.068  0.00  0.00    +0.000 NA
ATOM     28  C   UNL     1      -2.620  12.446  20.079  0.00  0.00    +0.000 A 
ATOM     29  N   UNL     1      -3.030  11.926  18.910  0.00  0.00    +0.000 NA
ENDBRANCH  22  28
ENDBRANCH   1  22
TORSDOF 4
ENDMDL
MODEL 3
REMARK VINA RESULT:      -8.7      1.229      1.512
REMARK  Name = 
REMARK  5 active torsions:
REMARK  status: ('A' for Active; 'I' for Inactive)
REMARK    1  A    between atoms: C_1  and  C_2
REMARK    2  A    between atoms: C_6  and  O_7
REMARK    3  A    between atoms: O_7  and  C_8
REMARK    4  A    between atoms: C_13  and  C_14
REMARK    5  A    between atoms: N_16  and  C_17
REMARK                            x       y       z     vdW  Elec       q    Type
REMARK                         _______ _______ _______ _____ _____    ______ ____
ROOT
ATOM      1  C   UNL     1      -0.786  11.292  19.873  0.00  0.00    +0.000 A 
ATOM      2  C   UNL     1      -0.640  10.622  21.086  0.00  0.00    +0.000 A 
ATOM      3  C   UNL     1       0.168   9.482  21.169  0.00  0.00    +0.000 A 
ATOM      4  C   UNL     1       0.871   9.004  20.074  0.00  0.00    +0.000 A 
ATOM      5  N   UNL     1       1.636   7.895  20.202  0.00  0.00    +0.000 NA
ATOM      6  C   UNL     1       2.307   7.481  19.093  0.00  0.00    +0.000 A 
ATOM      7  C   UNL     1       2.259   8.126  17.864  0.00  0.00    +0.000 A 
ATOM      8  C   UNL     1       1.472   9.261  17.749  0.00  0.00    +0.000 A 
ATOM      9  C   UNL     1       0.755   9.719  18.858  0.00  0.00    +0.000 A 
ATOM     10  C   UNL     1      -0.065  10.855  18.765  0.00  0.00    +0.000 A 
ENDROOT
BRANCH   6  11
ATOM     11  C   UNL     1       3.139   6.242  19.209  0.00  0.00    +0.000 C 
ATOM     12  O   UNL     1       2.893   5.399  20.067  0.00  0.00    +0.000 OA
ATOM     13  N   UNL     1       4.190   6.107  18.314  0.00  0.00    +0.000 N 
ATOM     14  H   UNL     1       4.403   6.932  17.755  0.00  0.00    +0.000 HD
BRANCH  13  15
ATOM     15  C   UNL     1       5.122   4.993  18.462  0.00  0.00    +0.000 C 
ATOM     16  C   UNL     1       6.348   5.356  19.306  0.00  0.00    +0.000 C 
ATOM     17  C   UNL     1       7.309   6.086  18.383  0.00  0.00    +0.000 C 
ATOM     18  S   UNL     1       7.251   5.156  16.871  0.00  0.00    +0.000 S 
ATOM     19  O   UNL     1       8.225   4.084  16.963  0.00  0.00    +0.000 OA
ATOM     20  O   UNL     1       7.231   6.079  15.756  0.00  0.00    +0.000 OA
ATOM     21  C   UNL     1       5.628   4.460  17.110  0.00  0.00    +0.000 C 
ENDBRANCH  13  15
ENDBRANCH   6  11
BRANCH   1  22
ATOM     22  O   UNL     1      -1.545  12.426  19.699  0.00  0.00    +0.000 OA
BRANCH  22  28
ATOM     23  C   UNL     1      -5.792  13.145  21.648  0.00  0.00    +0.000 C 
ATOM     24  C   UNL     1      -4.983  12.616  20.503  0.00  0.00    +0.000 A 
ATOM     25  C   UNL     1      -5.591  11.995  19.428  0.00  0.00    +0.000 A 
ATOM     26  C   UNL     1      -4.756  11.558  18.427  0.00  0.00    +0.000 A 
ATOM     27  N   UNL     1      -3.422  11.698  18.461  0.00  0.00    +0.000 NA
ATOM     28  C   UNL     1      -2.919  12.280  19.566  0.00  0.00    +0.000 A 
ATOM     29  N   UNL     1      -3.645  12.769  20.585  0.00  0.00    +0.000 NA
ENDBRANCH  22  28
ENDBRANCH   1  22
TORSDOF 4
ENDMDL
MODEL 4
REMARK VINA RESULT:      -8.5      0.335      1.304
REMARK  Name = 
REMARK  5 active torsions:
REMARK  status: ('A' for Active; 'I' for Inactive)
REMARK    1  A    between atoms: C_1  and  C_2
REMARK    2  A    between atoms: C_6  and  O_7
REMARK    3  A    between atoms: O_7  and  C_8
REMARK    4  A    between atoms: C_13  and  C_14
REMARK    5  A    between atoms: N_16  and  C_17
REMARK                            x       y       z     vdW  Elec       q    Type
REMARK                         _______ _______ _______ _____ _____    ______ ____
ROOT
ATOM      1  C   UNL     1      -0.413  11.387  21.414  0.00  0.00    +0.000 A 
ATOM      2  C   UNL     1      -0.289  10.365  22.353  0.00  0.00    +0.000 A 
ATOM      3  C   UNL     1       0.344   9.165  22.009  0.00  0.00    +0.000 A 
ATOM      4  C   UNL     1       0.896   8.963  20.753  0.00  0.00    +0.000 A 
ATOM      5  N   UNL     1       1.494   7.785  20.466  0.00  0.00    +0.000 NA
ATOM      6  C   UNL     1       2.023   7.652  19.219  0.00  0.00    +0.000 A 
ATOM      7  C   UNL     1       1.991   8.644  18.247  0.00  0.00    +0.000 A 
ATOM      8  C   UNL     1       1.376   9.846  18.557  0.00  0.00    +0.000 A 
ATOM      9  C   UNL     1       0.808  10.025  19.821  0.00  0.00    +0.000 A 
ATOM     10  C   UNL     1       0.162  11.226  20.156  0.00  0.00    +0.000 A 
ENDROOT
BRANCH   6  11
ATOM     11  C   UNL     1       2.667   6.346  18.874  0.00  0.00    +0.000 C 
ATOM     12  O   UNL     1       2.106   5.283  19.129  0.00  0.00    +0.000 OA
ATOM     13  N   UNL     1       3.914   6.402  18.271  0.00  0.00    +0.000 N 
ATOM     14  H   UNL     1       4.355   7.321  18.252  0.00  0.00    +0.000 HD
BRANCH  13  15
ATOM     15  C   UNL     1       4.657   5.167  18.036  0.00  0.00    +0.000 C 
ATOM     16  C   UNL     1       5.626   4.835  19.175  0.00  0.00    +0.000 C 
ATOM     17  C   UNL     1       6.872   5.671  18.941  0.00  0.00    +0.000 C 
ATOM     18  S   UNL     1       7.151   5.557  17.191  0.00  0.00    +0.000 S 
ATOM     19  O   UNL     1       7.953   4.375  16.938  0.00  0.00    +0.000 OA
ATOM     20  O   UNL     1       7.532   6.862  16.693  0.00  0.00    +0.000 OA
ATOM     21  C   UNL     1       5.467   5.201  16.729  0.00  0.00    +0.000 C 
ENDBRANCH  13  15
ENDBRANCH   6  11
BRANCH   1  22
ATOM     22  O   UNL     1      -1.005  12.603  21.665  0.00  0.00    +0.000 OA
BRANCH  22  28
ATOM     23  C   UNL     1      -5.170  12.516  19.430  0.00  0.00    +0.000 C 
ATOM     24  C   UNL     1      -4.412  12.612  20.719  0.00  0.00    +0.000 A 
ATOM     25  C   UNL     1      -5.071  12.773  21.922  0.00  0.00    +0.000 A 
ATOM     26  C   UNL     1      -4.280  12.837  23.045  0.00  0.00    +0.000 A 
ATOM     27  N   UNL     1      -2.940  12.762  23.011  0.00  0.00    +0.000 NA
ATOM     28  C   UNL     1      -2.387  12.645  21.790  0.00  0.00    +0.000 A 
ATOM     29  N   UNL     1      -3.067  12.543  20.636  0.00  0.00    +0.000 NA
ENDBRANCH  22  28
ENDBRANCH   1  22
TORSDOF 4
ENDMDL
MODEL 5
REMARK VINA RESULT:      -8.4      1.032      1.413
REMARK  Name = 
REMARK  5 active torsions:
REMARK  status: ('A' for Active; 'I' for Inactive)
REMARK    1  A    between atoms: C_1  and  C_2
REMARK    2  A    between atoms: C_6  and  O_7
REMARK    3  A    between atoms: O_7  and  C_8
REMARK    4  A    between atoms: C_13  and  C_14
REMARK    5  A    between atoms: N_16  and  C_17
REMARK                            x       y       z     vdW  Elec       q    Type
REMARK                         _______ _______ _______ _____ _____    ______ ____
ROOT
ATOM      1  C   UNL     1      -0.432  11.477  20.712  0.00  0.00    +0.000 A 
ATOM      2  C   UNL     1      -0.221  10.681  21.837  0.00  0.00    +0.000 A 
ATOM      3  C   UNL     1       0.488   9.479  21.726  0.00  0.00    +0.000 A 
ATOM      4  C   UNL     1       1.030   9.059  20.521  0.00  0.00    +0.000 A 
ATOM      5  N   UNL     1       1.704   7.887  20.463  0.00  0.00    +0.000 NA
ATOM      6  C   UNL     1       2.218   7.533  19.254  0.00  0.00    +0.000 A 
ATOM      7  C   UNL     1       2.101   8.299  18.101  0.00  0.00    +0.000 A 
ATOM      8  C   UNL     1       1.409   9.497  18.177  0.00  0.00    +0.000 A 
ATOM      9  C   UNL     1       0.853   9.897  19.395  0.00  0.00    +0.000 A 
ATOM     10  C   UNL     1       0.130  11.097  19.497  0.00  0.00    +0.000 A 
ENDROOT
BRANCH   6  11
ATOM     11  C   UNL     1       2.945   6.228  19.164  0.00  0.00    +0.000 C 
ATOM     12  O   UNL     1       2.596   5.268  19.844  0.00  0.00    +0.000 OA
ATOM     13  N   UNL     1       4.022   6.169  18.293  0.00  0.00    +0.000 N 
ATOM     14  H   UNL     1       4.324   7.062  17.902  0.00  0.00    +0.000 HD
BRANCH  13  15
ATOM     15  C   UNL     1       4.858   4.973  18.261  0.00  0.00    +0.000 C 
ATOM     16  C   UNL     1       5.963   4.995  19.322  0.00  0.00    +0.000 C 
ATOM     17  C   UNL     1       7.090   5.841  18.758  0.00  0.00    +0.000 C 
ATOM     18  S   UNL     1       7.206   5.334  17.060  0.00  0.00    +0.000 S 
ATOM     19  O   UNL     1       8.094   4.189  16.991  0.00  0.00    +0.000 OA
ATOM     20  O   UNL     1       7.405   6.508  16.235  0.00  0.00    +0.000 OA
ATOM     21  C   UNL     1       5.530   4.755  16.894  0.00  0.00    +0.000 C 
ENDBRANCH  13  15
ENDBRANCH   6  11
BRANCH   1  22
ATOM     22  O   UNL     1      -1.102  12.678  20.727  0.00  0.00    +0.000 OA
BRANCH  22  28
ATOM     23  C   UNL     1      -4.355  12.688  24.158  0.00  0.00    +0.000 C 
ATOM     24  C   UNL     1      -3.060  13.218  23.621  0.00  0.00    +0.000 A 
ATOM     25  C   UNL     1      -2.349  14.185  24.305  0.00  0.00    +0.000 A 
ATOM     26  C   UNL     1      -1.168  14.592  23.729  0.00  0.00    +0.000 A 
ATOM     27  N   UNL     1      -0.706  14.108  22.566  0.00  0.00    +0.000 NA
ATOM     28  C   UNL     1      -1.487  13.198  21.955  0.00  0.00    +0.000 A 
ATOM     29  N   UNL     1      -2.640  12.711  22.443  0.00  0.00    +0.000 NA
ENDBRANCH  22  28
ENDBRANCH   1  22
TORSDOF 4
ENDMDL
MODEL 6
REMARK VINA RESULT:      -8.3      3.830      9.823
REMARK  Name = 
REMARK  5 active torsions:
REMARK  status: ('A' for Active; 'I' for Inactive)
REMARK    1  A    between atoms: C_1  and  C_2
REMARK    2  A    between atoms: C_6  and  O_7
REMARK    3  A    between atoms: O_7  and  C_8
REMARK    4  A    between atoms: C_13  and  C_14
REMARK    5  A    between atoms: N_16  and  C_17
REMARK                            x       y       z     vdW  Elec       q    Type
REMARK                         _______ _______ _______ _____ _____    ______ ____
ROOT
ATOM      1  C   UNL     1       3.294   5.140  19.080  0.00  0.00    +0.000 A 
ATOM      2  C   UNL     1       2.650   5.227  20.313  0.00  0.00    +0.000 A 
ATOM      3  C   UNL     1       1.975   6.398  20.675  0.00  0.00    +0.000 A 
ATOM      4  C   UNL     1       1.891   7.487  19.820  0.00  0.00    +0.000 A 
ATOM      5  N   UNL     1       1.231   8.600  20.217  0.00  0.00    +0.000 NA
ATOM      6  C   UNL     1       1.177   9.630  19.330  0.00  0.00    +0.000 A 
ATOM      7  C   UNL     1       1.742   9.600  18.062  0.00  0.00    +0.000 A 
ATOM      8  C   UNL     1       2.414   8.453  17.670  0.00  0.00    +0.000 A 
ATOM      9  C   UNL     1       2.506   7.372  18.551  0.00  0.00    +0.000 A 
ATOM     10  C   UNL     1       3.196   6.205  18.187  0.00  0.00    +0.000 A 
ENDROOT
BRANCH   6  11
ATOM     11  C   UNL     1       0.472  10.879  19.760  0.00  0.00    +0.000 C 
ATOM     12  O   UNL     1      -0.750  10.900  19.879  0.00  0.00    +0.000 OA
ATOM     13  N   UNL     1       1.262  11.992  20.002  0.00  0.00    +0.000 N 
ATOM     14  H   UNL     1       2.238  11.912  19.718  0.00  0.00    +0.000 HD
BRANCH  13  15
ATOM     15  C   UNL     1       0.628  13.276  20.288  0.00  0.00    +0.000 C 
ATOM     16  C   UNL     1       0.426  14.129  19.031  0.00  0.00    +0.000 C 
ATOM     17  C   UNL     1       1.756  14.807  18.750  0.00  0.00    +0.000 C 
ATOM     18  S   UNL     1       2.328  15.324  20.349  0.00  0.00    +0.000 S 
ATOM     19  O   UNL     1       1.771  16.634  20.626  0.00  0.00    +0.000 OA
ATOM     20  O   UNL     1       3.749  15.061  20.444  0.00  0.00    +0.000 OA
ATOM     21  C   UNL     1       1.424  14.118  21.300  0.00  0.00    +0.000 C 
ENDBRANCH  13  15
ENDBRANCH   6  11
BRANCH   1  22
ATOM     22  O   UNL     1       3.968   4.028  18.633  0.00  0.00    +0.000 OA
BRANCH  22  28
ATOM     23  C   UNL     1       6.090   4.013  14.409  0.00  0.00    +0.000 C 
ATOM     24  C   UNL     1       6.193   4.205  15.891  0.00  0.00    +0.000 A 
ATOM     25  C   UNL     1       7.403   4.506  16.488  0.00  0.00    +0.000 A 
ATOM     26  C   UNL     1       7.382   4.674  17.853  0.00  0.00    +0.000 A 
ATOM     27  N   UNL     1       6.272   4.550  18.597  0.00  0.00    +0.000 NA
ATOM     28  C   UNL     1       5.151   4.217  17.932  0.00  0.00    +0.000 A 
ATOM     29  N   UNL     1       5.055   4.060  16.601  0.00  0.00    +0.000 NA
ENDBRANCH  22  28
ENDBRANCH   1  22
TORSDOF 4
ENDMDL
MODEL 7
REMARK VINA RESULT:      -8.3      3.369     10.517
REMARK  Name = 
REMARK  5 active torsions:
REMARK  status: ('A' for Active; 'I' for Inactive)
REMARK    1  A    between atoms: C_1  and  C_2
REMARK    2  A    between atoms: C_6  and  O_7
REMARK    3  A    between atoms: O_7  and  C_8
REMARK    4  A    between atoms: C_13  and  C_14
REMARK    5  A    between atoms: N_16  and  C_17
REMARK                            x       y       z     vdW  Elec       q    Type
REMARK                         _______ _______ _______ _____ _____    ______ ____
ROOT
ATOM      1  C   UNL     1       3.111   6.256  18.916  0.00  0.00    +0.000 A 
ATOM      2  C   UNL     1       3.156   7.127  17.828  0.00  0.00    +0.000 A 
ATOM      3  C   UNL     1       2.441   8.330  17.859  0.00  0.00    +0.000 A 
ATOM      4  C   UNL     1       1.703   8.713  18.969  0.00  0.00    +0.000 A 
ATOM      5  N   UNL     1       1.025   9.883  18.950  0.00  0.00    +0.000 NA
ATOM      6  C   UNL     1       0.326  10.207  20.072  0.00  0.00    +0.000 A 
ATOM      7  C   UNL     1       0.278   9.421  21.216  0.00  0.00    +0.000 A 
ATOM      8  C   UNL     1       0.979   8.225  21.221  0.00  0.00    +0.000 A 
ATOM      9  C   UNL     1       1.703   7.845  20.087  0.00  0.00    +0.000 A 
ATOM     10  C   UNL     1       2.407   6.630  20.056  0.00  0.00    +0.000 A 
ENDROOT
BRANCH   6  11
ATOM     11  C   UNL     1      -0.451  11.486  20.061  0.00  0.00    +0.000 C 
ATOM     12  O   UNL     1      -0.314  12.295  19.148  0.00  0.00    +0.000 OA
ATOM     13  N   UNL     1      -1.311  11.706  21.126  0.00  0.00    +0.000 N 
ATOM     14  H   UNL     1      -1.228  11.052  21.904  0.00  0.00    +0.000 HD
BRANCH  13  15
ATOM     15  C   UNL     1      -1.991  12.992  21.248  0.00  0.00    +0.000 C 
ATOM     16  C   UNL     1      -1.334  13.914  22.281  0.00  0.00    +0.000 C 
ATOM     17  C   UNL     1      -1.845  13.473  23.642  0.00  0.00    +0.000 C 
ATOM     18  S   UNL     1      -3.575  13.172  23.380  0.00  0.00    +0.000 S 
ATOM     19  O   UNL     1      -4.285  14.423  23.570  0.00  0.00    +0.000 OA
ATOM     20  O   UNL     1      -3.950  11.964  24.086  0.00  0.00    +0.000 OA
ATOM     21  C   UNL     1      -3.474  12.845  21.632  0.00  0.00    +0.000 C 
ENDBRANCH  13  15
ENDBRANCH   6  11
BRANCH   1  22
ATOM     22  O   UNL     1       3.790   5.062  18.981  0.00  0.00    +0.000 OA
BRANCH  22  28
ATOM     23  C   UNL     1       6.167   3.811  15.090  0.00  0.00    +0.000 C 
ATOM     24  C   UNL     1       6.193   4.368  16.481  0.00  0.00    +0.000 A 
ATOM     25  C   UNL     1       7.385   4.721  17.084  0.00  0.00    +0.000 A 
ATOM     26  C   UNL     1       7.292   5.233  18.357  0.00  0.00    +0.000 A 
ATOM     27  N   UNL     1       6.131   5.386  19.012  0.00  0.00    +0.000 NA
ATOM     28  C   UNL     1       5.028   4.977  18.358  0.00  0.00    +0.000 A 
ATOM     29  N   UNL     1       5.003   4.493  17.105  0.00  0.00    +0.000 NA
ENDBRANCH  22  28
ENDBRANCH   1  22
TORSDOF 4
ENDMDL
MODEL 8
REMARK VINA RESULT:      -8.2      3.979     10.205
REMARK  Name = 
REMARK  5 active torsions:
REMARK  status: ('A' for Active; 'I' for Inactive)
REMARK    1  A    between atoms: C_1  and  C_2
REMARK    2  A    between atoms: C_6  and  O_7
REMARK    3  A    between atoms: O_7  and  C_8
REMARK    4  A    between atoms: C_13  and  C_14
REMARK    5  A    between atoms: N_16  and  C_17
REMARK                            x       y       z     vdW  Elec       q    Type
REMARK                         _______ _______ _______ _____ _____    ______ ____
ROOT
ATOM      1  C   UNL     1       2.211   7.601  19.291  0.00  0.00    +0.000 A 
ATOM      2  C   UNL     1       2.011   8.401  18.167  0.00  0.00    +0.000 A 
ATOM      3  C   UNL     1       1.191   9.533  18.245  0.00  0.00    +0.000 A 
ATOM      4  C   UNL     1       0.585   9.917  19.432  0.00  0.00    +0.000 A 
ATOM      5  N   UNL     1      -0.202  11.016  19.456  0.00  0.00    +0.000 NA
ATOM      6  C   UNL     1      -0.761  11.345  20.652  0.00  0.00    +0.000 A 
ATOM      7  C   UNL     1      -0.564  10.633  21.829  0.00  0.00    +0.000 A 
ATOM      8  C   UNL     1       0.246   9.509  21.788  0.00  0.00    +0.000 A 
ATOM      9  C   UNL     1       0.833   9.126  20.579  0.00  0.00    +0.000 A 
ATOM     10  C   UNL     1       1.643   7.981  20.504  0.00  0.00    +0.000 A 
ENDROOT
BRANCH   6  11
ATOM     11  C   UNL     1      -1.655  12.544  20.694  0.00  0.00    +0.000 C 
ATOM     12  O   UNL     1      -1.479  13.485  19.925  0.00  0.00    +0.000 OA
ATOM     13  N   UNL     1      -2.670  12.537  21.639  0.00  0.00    +0.000 N 
ATOM     14  H   UNL     1      -2.627  11.787  22.328  0.00  0.00    +0.000 HD
BRANCH  13  15
ATOM     15  C   UNL     1      -3.488  13.732  21.826  0.00  0.00    +0.000 C 
ATOM     16  C   UNL     1      -3.087  14.535  23.068  0.00  0.00    +0.000 C 
ATOM     17  C   UNL     1      -3.745  13.854  24.255  0.00  0.00    +0.000 C 
ATOM     18  S   UNL     1      -5.379  13.460  23.680  0.00  0.00    +0.000 S 
ATOM     19  O   UNL     1      -6.232  14.608  23.924  0.00  0.00    +0.000 OA
ATOM     20  O   UNL     1      -5.729  12.134  24.144  0.00  0.00    +0.000 OA
ATOM     21  C   UNL     1      -4.988  13.411  21.943  0.00  0.00    +0.000 C 
ENDBRANCH  13  15
ENDBRANCH   6  11
BRANCH   1  22
ATOM     22  O   UNL     1       3.008   6.481  19.313  0.00  0.00    +0.000 OA
BRANCH  22  28
ATOM     23  C   UNL     1       1.612   2.628  21.671  0.00  0.00    +0.000 C 
ATOM     24  C   UNL     1       1.719   3.362  20.369  0.00  0.00    +0.000 A 
ATOM     25  C   UNL     1       1.268   2.794  19.193  0.00  0.00    +0.000 A 
ATOM     26  C   UNL     1       1.403   3.560  18.058  0.00  0.00    +0.000 A 
ATOM     27  N   UNL     1       1.948   4.786  18.052  0.00  0.00    +0.000 NA
ATOM     28  C   UNL     1       2.394   5.238  19.239  0.00  0.00    +0.000 A 
ATOM     29  N   UNL     1       2.284   4.587  20.409  0.00  0.00    +0.000 NA
ENDBRANCH  22  28
ENDBRANCH   1  22
TORSDOF 4
ENDMDL
MODEL 9
REMARK VINA RESULT:      -8.2      1.121      1.305
REMARK  Name = 
REMARK  5 active torsions:
REMARK  status: ('A' for Active; 'I' for Inactive)
REMARK    1  A    between atoms: C_1  and  C_2
REMARK    2  A    between atoms: C_6  and  O_7
REMARK    3  A    between atoms: O_7  and  C_8
REMARK    4  A    between atoms: C_13  and  C_14
REMARK    5  A    between atoms: N_16  and  C_17
REMARK                            x       y       z     vdW  Elec       q    Type
REMARK                         _______ _______ _______ _____ _____    ______ ____
ROOT
ATOM      1  C   UNL     1      -0.709  11.320  20.088  0.00  0.00    +0.000 A 
ATOM      2  C   UNL     1      -0.509  10.667  21.303  0.00  0.00    +0.000 A 
ATOM      3  C   UNL     1       0.293   9.521  21.363  0.00  0.00    +0.000 A 
ATOM      4  C   UNL     1       0.938   9.021  20.242  0.00  0.00    +0.000 A 
ATOM      5  N   UNL     1       1.699   7.907  20.349  0.00  0.00    +0.000 NA
ATOM      6  C   UNL     1       2.312   7.471  19.215  0.00  0.00    +0.000 A 
ATOM      7  C   UNL     1       2.208   8.098  17.980  0.00  0.00    +0.000 A 
ATOM      8  C   UNL     1       1.426   9.238  17.887  0.00  0.00    +0.000 A 
ATOM      9  C   UNL     1       0.768   9.718  19.022  0.00  0.00    +0.000 A 
ATOM     10  C   UNL     1      -0.047  10.860  18.953  0.00  0.00    +0.000 A 
ENDROOT
BRANCH   6  11
ATOM     11  C   UNL     1       3.138   6.227  19.308  0.00  0.00    +0.000 C 
ATOM     12  O   UNL     1       2.846   5.338  20.103  0.00  0.00    +0.000 OA
ATOM     13  N   UNL     1       4.238   6.140  18.467  0.00  0.00    +0.000 N 
ATOM     14  H   UNL     1       4.480   6.995  17.967  0.00  0.00    +0.000 HD
BRANCH  13  15
ATOM     15  C   UNL     1       5.163   5.019  18.605  0.00  0.00    +0.000 C 
ATOM     16  C   UNL     1       6.405   5.375  19.429  0.00  0.00    +0.000 C 
ATOM     17  C   UNL     1       7.357   6.093  18.489  0.00  0.00    +0.000 C 
ATOM     18  S   UNL     1       7.268   5.158  16.982  0.00  0.00    +0.000 S 
ATOM     19  O   UNL     1       8.235   4.079  17.063  0.00  0.00    +0.000 OA
ATOM     20  O   UNL     1       7.240   6.078  15.864  0.00  0.00    +0.000 OA
ATOM     21  C   UNL     1       5.644   4.477  17.248  0.00  0.00    +0.000 C 
ENDBRANCH  13  15
ENDBRANCH   6  11
BRANCH   1  22
ATOM     22  O   UNL     1      -1.467  12.457  19.935  0.00  0.00    +0.000 OA
BRANCH  22  28
ATOM     23  C   UNL     1      -1.411  14.761  24.063  0.00  0.00    +0.000 C 
ATOM     24  C   UNL     1      -2.192  14.011  23.027  0.00  0.00    +0.000 A 
ATOM     25  C   UNL     1      -3.540  13.760  23.196  0.00  0.00    +0.000 A 
ATOM     26  C   UNL     1      -4.162  13.074  22.179  0.00  0.00    +0.000 A 
ATOM     27  N   UNL     1      -3.527  12.646  21.077  0.00  0.00    +0.000 NA
ATOM     28  C   UNL     1      -2.207  12.903  21.022  0.00  0.00    +0.000 A 
ATOM     29  N   UNL     1      -1.509  13.589  21.942  0.00  0.00    +0.000 NA
ENDBRANCH  22  28
ENDBRANCH   1  22
TORSDOF 4
ENDMDL
