MODEL 1
REMARK VINA RESULT:      -7.6      0.000      0.000
REMARK  Name = 
REMARK  15 active torsions:
REMARK  status: ('A' for Active; 'I' for Inactive)
REMARK    1  A    between atoms: C_1  and  C_2
REMARK    2  A    between atoms: C_2  and  O_3
REMARK    3  A    between atoms: O_3  and  C_4
REMARK    4  A    between atoms: C_4  and  C_5
REMARK    5  A    between atoms: C_4  and  C_30
REMARK    6  A    between atoms: C_5  and  C_6
REMARK    7  A    between atoms: C_9  and  O_10
REMARK    8  A    between atoms: O_10  and  C_11
REMARK    9  A    between atoms: C_11  and  C_12
REMARK   10  A    between atoms: C_12  and  C_13
REMARK   11  A    between atoms: C_13  and  O_14
REMARK   12  A    between atoms: O_14  and  C_15
REMARK   13  A    between atoms: C_18  and  O_19
REMARK   14  A    between atoms: O_19  and  C_20
REMARK   15  A    between atoms: C_30  and  O_32
REMARK                            x       y       z     vdW  Elec       q    Type
REMARK                         _______ _______ _______ _____ _____    ______ ____
ROOT
ATOM      1  C   UNL     1       0.710   3.055  20.448  0.00  0.00    +0.000 C 
ENDROOT
BRANCH   1   2
ATOM      2  O   UNL     1       0.947   2.426  19.183  0.00  0.00    +0.000 OA
BRANCH   2   6
ATOM      3  C   UNL     1       4.473   3.499  17.207  0.00  0.00    +0.000 A 
ATOM      4  C   UNL     1       3.219   3.969  16.792  0.00  0.00    +0.000 A 
ATOM      5  C   UNL     1       2.062   3.604  17.487  0.00  0.00    +0.000 A 
ATOM      6  C   UNL     1       2.138   2.764  18.598  0.00  0.00    +0.000 A 
ATOM      7  C   UNL     1       3.386   2.347  19.054  0.00  0.00    +0.000 A 
ATOM      8  C   UNL     1       4.543   2.708  18.361  0.00  0.00    +0.000 A 
BRANCH   3   9
ATOM      9  C   UNL     1       5.712   3.777  16.384  0.00  0.00    +0.000 C 
BRANCH   9  10
ATOM     10  C   UNL     1       5.979   5.245  16.025  0.00  0.00    +0.000 C 
BRANCH  10  11
ATOM     11  C   UNL     1       7.237   5.743  16.744  0.00  0.00    +0.000 C 
ATOM     12  O   UNL     1       7.643   6.900  16.721  0.00  0.00    +0.000 OA
BRANCH  11  13
ATOM     13  O   UNL     1       7.882   4.743  17.397  0.00  0.00    +0.000 OA
ATOM     14  H   UNL     1       7.916   4.985  18.359  0.00  0.00    +0.000 HD
ENDBRANCH  11  13
ENDBRANCH  10  11
BRANCH  10  15
ATOM     15  O   UNL     1       6.093   5.496  14.608  0.00  0.00    +0.000 OA
BRANCH  15  17
ATOM     16  C   UNL     1       6.340   3.899  12.825  0.00  0.00    +0.000 C 
ATOM     17  C   UNL     1       7.032   4.630  13.961  0.00  0.00    +0.000 C 
ENDBRANCH  15  17
ENDBRANCH  10  15
ENDBRANCH   9  10
ENDBRANCH   3   9
ENDBRANCH   2   6
ENDBRANCH   1   2
BRANCH   1  18
ATOM     18  C   UNL     1       0.775   4.568  20.262  0.00  0.00    +0.000 C 
BRANCH  18  19
ATOM     19  C   UNL     1       1.944   5.160  21.038  0.00  0.00    +0.000 C 
BRANCH  19  20
ATOM     20  O   UNL     1       2.808   5.845  20.126  0.00  0.00    +0.000 OA
BRANCH  20  21
ATOM     21  C   UNL     1       2.308   6.998  19.589  0.00  0.00    +0.000 A 
ATOM     22  C   UNL     1       1.658   7.851  20.485  0.00  0.00    +0.000 A 
ATOM     23  C   UNL     1       1.120   9.064  20.043  0.00  0.00    +0.000 A 
ATOM     24  C   UNL     1       1.246   9.438  18.706  0.00  0.00    +0.000 A 
ATOM     25  C   UNL     1       1.868   8.572  17.805  0.00  0.00    +0.000 A 
ATOM     26  C   UNL     1       2.428   7.373  18.252  0.00  0.00    +0.000 A 
BRANCH  24  27
ATOM     27  O   UNL     1       0.683  10.645  18.356  0.00  0.00    +0.000 OA
BRANCH  27  28
ATOM     28  C   UNL     1      -0.688  10.778  18.318  0.00  0.00    +0.000 A 
ATOM     29  C   UNL     1      -1.361   9.938  17.427  0.00  0.00    +0.000 A 
ATOM     30  C   UNL     1      -2.753  10.002  17.319  0.00  0.00    +0.000 A 
ATOM     31  C   UNL     1      -3.472  10.906  18.100  0.00  0.00    +0.000 A 
ATOM     32  C   UNL     1      -2.806  11.723  19.010  0.00  0.00    +0.000 A 
ATOM     33  C   UNL     1      -1.420  11.638  19.141  0.00  0.00    +0.000 A 
ENDBRANCH  27  28
ENDBRANCH  24  27
ENDBRANCH  20  21
ENDBRANCH  19  20
ENDBRANCH  18  19
ENDBRANCH   1  18
TORSDOF 14
ENDMDL
MODEL 2
REMARK VINA RESULT:      -7.2      1.845      8.025
REMARK  Name = 
REMARK  15 active torsions:
REMARK  status: ('A' for Active; 'I' for Inactive)
REMARK    1  A    between atoms: C_1  and  C_2
REMARK    2  A    between atoms: C_2  and  O_3
REMARK    3  A    between atoms: O_3  and  C_4
REMARK    4  A    between atoms: C_4  and  C_5
REMARK    5  A    between atoms: C_4  and  C_30
REMARK    6  A    between atoms: C_5  and  C_6
REMARK    7  A    between atoms: C_9  and  O_10
REMARK    8  A    between atoms: O_10  and  C_11
REMARK    9  A    between atoms: C_11  and  C_12
REMARK   10  A    between atoms: C_12  and  C_13
REMARK   11  A    between atoms: C_13  and  O_14
REMARK   12  A    between atoms: O_14  and  C_15
REMARK   13  A    between atoms: C_18  and  O_19
REMARK   14  A    between atoms: O_19  and  C_20
REMARK   15  A    between atoms: C_30  and  O_32
REMARK                            x       y       z     vdW  Elec       q    Type
REMARK                         _______ _______ _______ _____ _____    ______ ____
ROOT
ATOM      1  C   UNL     1       1.963   4.984  21.062  0.00  0.00    +0.000 C 
ENDROOT
BRANCH   1   2
ATOM      2  O   UNL     1       2.770   5.733  20.147  0.00  0.00    +0.000 OA
BRANCH   2   6
ATOM      3  C   UNL     1       1.322   9.458  18.913  0.00  0.00    +0.000 A 
ATOM      4  C   UNL     1       1.982   8.591  18.031  0.00  0.00    +0.000 A 
ATOM      5  C   UNL     1       2.438   7.346  18.474  0.00  0.00    +0.000 A 
ATOM      6  C   UNL     1       2.247   6.950  19.798  0.00  0.00    +0.000 A 
ATOM      7  C   UNL     1       1.535   7.778  20.661  0.00  0.00    +0.000 A 
ATOM      8  C   UNL     1       1.081   9.024  20.223  0.00  0.00    +0.000 A 
BRANCH   3   9
ATOM      9  C   UNL     1       0.947  10.858  18.481  0.00  0.00    +0.000 C 
BRANCH   9  10
ATOM     10  C   UNL     1       1.506  12.009  19.328  0.00  0.00    +0.000 C 
BRANCH  10  11
ATOM     11  C   UNL     1       2.435  12.885  18.480  0.00  0.00    +0.000 C 
ATOM     12  O   UNL     1       2.933  13.941  18.854  0.00  0.00    +0.000 OA
BRANCH  11  13
ATOM     13  O   UNL     1       2.629  12.371  17.239  0.00  0.00    +0.000 OA
ATOM     14  H   UNL     1       2.558  11.384  17.307  0.00  0.00    +0.000 HD
ENDBRANCH  11  13
ENDBRANCH  10  11
BRANCH  10  15
ATOM     15  O   UNL     1       0.496  12.829  19.953  0.00  0.00    +0.000 OA
BRANCH  15  17
ATOM     16  C   UNL     1      -1.909  12.875  19.923  0.00  0.00    +0.000 C 
ATOM     17  C   UNL     1      -0.639  13.056  19.112  0.00  0.00    +0.000 C 
ENDBRANCH  15  17
ENDBRANCH  10  15
ENDBRANCH   9  10
ENDBRANCH   3   9
ENDBRANCH   2   6
ENDBRANCH   1   2
BRANCH   1  18
ATOM     18  C   UNL     1       0.848   4.295  20.280  0.00  0.00    +0.000 C 
BRANCH  18  19
ATOM     19  C   UNL     1       1.006   2.781  20.329  0.00  0.00    +0.000 C 
BRANCH  19  20
ATOM     20  O   UNL     1       1.352   2.306  19.024  0.00  0.00    +0.000 OA
BRANCH  20  21
ATOM     21  C   UNL     1       2.542   2.759  18.526  0.00  0.00    +0.000 A 
ATOM     22  C   UNL     1       2.455   3.542  17.373  0.00  0.00    +0.000 A 
ATOM     23  C   UNL     1       3.611   4.068  16.787  0.00  0.00    +0.000 A 
ATOM     24  C   UNL     1       4.858   3.828  17.363  0.00  0.00    +0.000 A 
ATOM     25  C   UNL     1       4.947   3.020  18.498  0.00  0.00    +0.000 A 
ATOM     26  C   UNL     1       3.789   2.516  19.098  0.00  0.00    +0.000 A 
BRANCH  24  27
ATOM     27  O   UNL     1       5.943   4.378  16.719  0.00  0.00    +0.000 OA
BRANCH  27  28
ATOM     28  C   UNL     1       6.685   5.360  17.337  0.00  0.00    +0.000 A 
ATOM     29  C   UNL     1       6.585   6.641  16.788  0.00  0.00    +0.000 A 
ATOM     30  C   UNL     1       7.301   7.702  17.348  0.00  0.00    +0.000 A 
ATOM     31  C   UNL     1       8.119   7.483  18.456  0.00  0.00    +0.000 A 
ATOM     32  C   UNL     1       8.198   6.214  19.024  0.00  0.00    +0.000 A 
ATOM     33  C   UNL     1       7.458   5.161  18.485  0.00  0.00    +0.000 A 
ENDBRANCH  27  28
ENDBRANCH  24  27
ENDBRANCH  20  21
ENDBRANCH  19  20
ENDBRANCH  18  19
ENDBRANCH   1  18
TORSDOF 14
ENDMDL
MODEL 3
REMARK VINA RESULT:      -7.1      1.980      3.194
REMARK  Name = 
REMARK  15 active torsions:
REMARK  status: ('A' for Active; 'I' for Inactive)
REMARK    1  A    between atoms: C_1  and  C_2
REMARK    2  A    between atoms: C_2  and  O_3
REMARK    3  A    between atoms: O_3  and  C_4
REMARK    4  A    between atoms: C_4  and  C_5
REMARK    5  A    between atoms: C_4  and  C_30
REMARK    6  A    between atoms: C_5  and  C_6
REMARK    7  A    between atoms: C_9  and  O_10
REMARK    8  A    between atoms: O_10  and  C_11
REMARK    9  A    between atoms: C_11  and  C_12
REMARK   10  A    between atoms: C_12  and  C_13
REMARK   11  A    between atoms: C_13  and  O_14
REMARK   12  A    between atoms: O_14  and  C_15
REMARK   13  A    between atoms: C_18  and  O_19
REMARK   14  A    between atoms: O_19  and  C_20
REMARK   15  A    between atoms: C_30  and  O_32
REMARK                            x       y       z     vdW  Elec       q    Type
REMARK                         _______ _______ _______ _____ _____    ______ ____
ROOT
ATOM      1  C   UNL     1       1.494   2.499  20.641  0.00  0.00    +0.000 C 
ENDROOT
BRANCH   1   2
ATOM      2  O   UNL     1       2.266   1.861  19.618  0.00  0.00    +0.000 OA
BRANCH   2   6
ATOM      3  C   UNL     1       4.415   4.596  17.294  0.00  0.00    +0.000 A 
ATOM      4  C   UNL     1       4.831   4.231  18.583  0.00  0.00    +0.000 A 
ATOM      5  C   UNL     1       4.097   3.301  19.325  0.00  0.00    +0.000 A 
ATOM      6  C   UNL     1       2.940   2.726  18.797  0.00  0.00    +0.000 A 
ATOM      7  C   UNL     1       2.559   3.036  17.495  0.00  0.00    +0.000 A 
ATOM      8  C   UNL     1       3.288   3.966  16.752  0.00  0.00    +0.000 A 
BRANCH   3   9
ATOM      9  C   UNL     1       5.123   5.699  16.540  0.00  0.00    +0.000 C 
BRANCH   9  10
ATOM     10  C   UNL     1       6.602   5.924  16.884  0.00  0.00    +0.000 C 
BRANCH  10  11
ATOM     11  C   UNL     1       7.482   4.959  16.081  0.00  0.00    +0.000 C 
ATOM     12  O   UNL     1       8.208   4.103  16.573  0.00  0.00    +0.000 OA
BRANCH  11  13
ATOM     13  O   UNL     1       7.391   5.177  14.744  0.00  0.00    +0.000 OA
ATOM     14  H   UNL     1       8.305   5.104  14.365  0.00  0.00    +0.000 HD
ENDBRANCH  11  13
ENDBRANCH  10  11
BRANCH  10  15
ATOM     15  O   UNL     1       7.056   7.280  16.688  0.00  0.00    +0.000 OA
BRANCH  15  17
ATOM     16  C   UNL     1       7.963   6.685  18.836  0.00  0.00    +0.000 C 
ATOM     17  C   UNL     1       7.845   7.768  17.778  0.00  0.00    +0.000 C 
ENDBRANCH  15  17
ENDBRANCH  10  15
ENDBRANCH   9  10
ENDBRANCH   3   9
ENDBRANCH   2   6
ENDBRANCH   1   2
BRANCH   1  18
ATOM     18  C   UNL     1       0.939   3.810  20.090  0.00  0.00    +0.000 C 
BRANCH  18  19
ATOM     19  C   UNL     1       1.460   4.998  20.888  0.00  0.00    +0.000 C 
BRANCH  19  20
ATOM     20  O   UNL     1       2.400   5.720  20.087  0.00  0.00    +0.000 OA
BRANCH  20  21
ATOM     21  C   UNL     1       2.008   6.971  19.698  0.00  0.00    +0.000 A 
ATOM     22  C   UNL     1       1.348   7.727  20.670  0.00  0.00    +0.000 A 
ATOM     23  C   UNL     1       0.915   9.026  20.382  0.00  0.00    +0.000 A 
ATOM     24  C   UNL     1       1.157   9.581  19.126  0.00  0.00    +0.000 A 
ATOM     25  C   UNL     1       1.790   8.813  18.146  0.00  0.00    +0.000 A 
ATOM     26  C   UNL     1       2.245   7.526  18.442  0.00  0.00    +0.000 A 
BRANCH  24  27
ATOM     27  O   UNL     1       0.693  10.861  18.925  0.00  0.00    +0.000 OA
BRANCH  27  28
ATOM     28  C   UNL     1       1.526  11.936  19.141  0.00  0.00    +0.000 A 
ATOM     29  C   UNL     1       1.518  12.468  20.434  0.00  0.00    +0.000 A 
ATOM     30  C   UNL     1       2.331  13.561  20.747  0.00  0.00    +0.000 A 
ATOM     31  C   UNL     1       3.151  14.124  19.769  0.00  0.00    +0.000 A 
ATOM     32  C   UNL     1       3.182  13.577  18.489  0.00  0.00    +0.000 A 
ATOM     33  C   UNL     1       2.395  12.466  18.183  0.00  0.00    +0.000 A 
ENDBRANCH  27  28
ENDBRANCH  24  27
ENDBRANCH  20  21
ENDBRANCH  19  20
ENDBRANCH  18  19
ENDBRANCH   1  18
TORSDOF 14
ENDMDL
MODEL 4
REMARK VINA RESULT:      -6.8      2.372      4.520
REMARK  Name = 
REMARK  15 active torsions:
REMARK  status: ('A' for Active; 'I' for Inactive)
REMARK    1  A    between atoms: C_1  and  C_2
REMARK    2  A    between atoms: C_2  and  O_3
REMARK    3  A    between atoms: O_3  and  C_4
REMARK    4  A    between atoms: C_4  and  C_5
REMARK    5  A    between atoms: C_4  and  C_30
REMARK    6  A    between atoms: C_5  and  C_6
REMARK    7  A    between atoms: C_9  and  O_10
REMARK    8  A    between atoms: O_10  and  C_11
REMARK    9  A    between atoms: C_11  and  C_12
REMARK   10  A    between atoms: C_12  and  C_13
REMARK   11  A    between atoms: C_13  and  O_14
REMARK   12  A    between atoms: O_14  and  C_15
REMARK   13  A    between atoms: C_18  and  O_19
REMARK   14  A    between atoms: O_19  and  C_20
REMARK   15  A    between atoms: C_30  and  O_32
REMARK                            x       y       z     vdW  Elec       q    Type
REMARK                         _______ _______ _______ _____ _____    ______ ____
ROOT
ATOM      1  C   UNL     1       1.300   8.589  21.112  0.00  0.00    +0.000 C 
ENDROOT
BRANCH   1   2
ATOM      2  O   UNL     1       1.002   7.194  20.995  0.00  0.00    +0.000 OA
BRANCH   2   6
ATOM      3  C   UNL     1       3.848   4.874  18.992  0.00  0.00    +0.000 A 
ATOM      4  C   UNL     1       3.107   4.370  20.070  0.00  0.00    +0.000 A 
ATOM      5  C   UNL     1       2.152   5.168  20.706  0.00  0.00    +0.000 A 
ATOM      6  C   UNL     1       1.924   6.477  20.280  0.00  0.00    +0.000 A 
ATOM      7  C   UNL     1       2.610   6.961  19.169  0.00  0.00    +0.000 A 
ATOM      8  C   UNL     1       3.567   6.167  18.534  0.00  0.00    +0.000 A 
BRANCH   3   9
ATOM      9  C   UNL     1       4.976   4.067  18.388  0.00  0.00    +0.000 C 
BRANCH   9  10
ATOM     10  C   UNL     1       5.785   4.749  17.275  0.00  0.00    +0.000 C 
BRANCH  10  11
ATOM     11  C   UNL     1       7.184   5.111  17.787  0.00  0.00    +0.000 C 
ATOM     12  O   UNL     1       8.052   4.296  18.081  0.00  0.00    +0.000 OA
BRANCH  11  13
ATOM     13  O   UNL     1       7.352   6.452  17.910  0.00  0.00    +0.000 OA
ATOM     14  H   UNL     1       6.540   6.818  18.347  0.00  0.00    +0.000 HD
ENDBRANCH  11  13
ENDBRANCH  10  11
BRANCH  10  15
ATOM     15  O   UNL     1       5.893   3.974  16.062  0.00  0.00    +0.000 OA
BRANCH  15  17
ATOM     16  C   UNL     1       6.285   3.949  13.689  0.00  0.00    +0.000 C 
ATOM     17  C   UNL     1       6.509   4.695  14.991  0.00  0.00    +0.000 C 
ENDBRANCH  15  17
ENDBRANCH  10  15
ENDBRANCH   9  10
ENDBRANCH   3   9
ENDBRANCH   2   6
ENDBRANCH   1   2
BRANCH   1  18
ATOM     18  C   UNL     1       0.152   9.387  20.500  0.00  0.00    +0.000 C 
BRANCH  18  19
ATOM     19  C   UNL     1       0.654  10.706  19.925  0.00  0.00    +0.000 C 
BRANCH  19  20
ATOM     20  O   UNL     1       0.231  10.810  18.563  0.00  0.00    +0.000 OA
BRANCH  20  21
ATOM     21  C   UNL     1      -1.120  10.879  18.366  0.00  0.00    +0.000 A 
ATOM     22  C   UNL     1      -1.649   9.946  17.471  0.00  0.00    +0.000 A 
ATOM     23  C   UNL     1      -3.022   9.918  17.207  0.00  0.00    +0.000 A 
ATOM     24  C   UNL     1      -3.876  10.813  17.852  0.00  0.00    +0.000 A 
ATOM     25  C   UNL     1      -3.343  11.765  18.723  0.00  0.00    +0.000 A 
ATOM     26  C   UNL     1      -1.974  11.775  19.006  0.00  0.00    +0.000 A 
BRANCH  24  27
ATOM     27  O   UNL     1      -5.211  10.721  17.529  0.00  0.00    +0.000 OA
BRANCH  27  28
ATOM     28  C   UNL     1      -6.061  11.765  17.818  0.00  0.00    +0.000 A 
ATOM     29  C   UNL     1      -6.030  12.845  16.931  0.00  0.00    +0.000 A 
ATOM     30  C   UNL     1      -6.858  13.950  17.143  0.00  0.00    +0.000 A 
ATOM     31  C   UNL     1      -7.716  13.979  18.242  0.00  0.00    +0.000 A 
ATOM     32  C   UNL     1      -7.770  12.892  19.111  0.00  0.00    +0.000 A 
ATOM     33  C   UNL     1      -6.967  11.774  18.883  0.00  0.00    +0.000 A 
ENDBRANCH  27  28
ENDBRANCH  24  27
ENDBRANCH  20  21
ENDBRANCH  19  20
ENDBRANCH  18  19
ENDBRANCH   1  18
TORSDOF 14
ENDMDL
MODEL 5
REMARK VINA RESULT:      -6.8      1.922      8.305
REMARK  Name = 
REMARK  15 active torsions:
REMARK  status: ('A' for Active; 'I' for Inactive)
REMARK    1  A    between atoms: C_1  and  C_2
REMARK    2  A    between atoms: C_2  and  O_3
REMARK    3  A    between atoms: O_3  and  C_4
REMARK    4  A    between atoms: C_4  and  C_5
REMARK    5  A    between atoms: C_4  and  C_30
REMARK    6  A    between atoms: C_5  and  C_6
REMARK    7  A    between atoms: C_9  and  O_10
REMARK    8  A    between atoms: O_10  and  C_11
REMARK    9  A    between atoms: C_11  and  C_12
REMARK   10  A    between atoms: C_12  and  C_13
REMARK   11  A    between atoms: C_13  and  O_14
REMARK   12  A    between atoms: O_14  and  C_15
REMARK   13  A    between atoms: C_18  and  O_19
REMARK   14  A    between atoms: O_19  and  C_20
REMARK   15  A    between atoms: C_30  and  O_32
REMARK                            x       y       z     vdW  Elec       q    Type
REMARK                         _______ _______ _______ _____ _____    ______ ____
ROOT
ATOM      1  C   UNL     1       1.122   4.483  20.482  0.00  0.00    +0.000 C 
ENDROOT
BRANCH   1   2
ATOM      2  O   UNL     1       2.244   5.368  20.564  0.00  0.00    +0.000 OA
BRANCH   2   6
ATOM      3  C   UNL     1       1.422   9.174  19.034  0.00  0.00    +0.000 A 
ATOM      4  C   UNL     1       1.081   8.813  20.346  0.00  0.00    +0.000 A 
ATOM      5  C   UNL     1       1.386   7.537  20.830  0.00  0.00    +0.000 A 
ATOM      6  C   UNL     1       2.030   6.605  20.016  0.00  0.00    +0.000 A 
ATOM      7  C   UNL     1       2.429   6.979  18.735  0.00  0.00    +0.000 A 
ATOM      8  C   UNL     1       2.123   8.251  18.248  0.00  0.00    +0.000 A 
BRANCH   3   9
ATOM      9  C   UNL     1       0.976  10.500  18.459  0.00  0.00    +0.000 C 
BRANCH   9  10
ATOM     10  C   UNL     1       1.323  11.752  19.277  0.00  0.00    +0.000 C 
BRANCH  10  11
ATOM     11  C   UNL     1       1.938  12.821  18.368  0.00  0.00    +0.000 C 
ATOM     12  O   UNL     1       1.600  14.000  18.350  0.00  0.00    +0.000 OA
BRANCH  11  13
ATOM     13  O   UNL     1       2.893  12.310  17.551  0.00  0.00    +0.000 OA
ATOM     14  H   UNL     1       2.784  12.732  16.660  0.00  0.00    +0.000 HD
ENDBRANCH  11  13
ENDBRANCH  10  11
BRANCH  10  15
ATOM     15  O   UNL     1       0.208  12.310  20.006  0.00  0.00    +0.000 OA
BRANCH  15  17
ATOM     16  C   UNL     1      -0.494  12.925  22.223  0.00  0.00    +0.000 C 
ATOM     17  C   UNL     1       0.139  11.850  21.359  0.00  0.00    +0.000 C 
ENDBRANCH  15  17
ENDBRANCH  10  15
ENDBRANCH   9  10
ENDBRANCH   3   9
ENDBRANCH   2   6
ENDBRANCH   1   2
BRANCH   1  18
ATOM     18  C   UNL     1       1.557   3.098  20.950  0.00  0.00    +0.000 C 
BRANCH  18  19
ATOM     19  C   UNL     1       3.072   3.023  21.091  0.00  0.00    +0.000 C 
BRANCH  19  20
ATOM     20  O   UNL     1       3.605   2.273  19.995  0.00  0.00    +0.000 OA
BRANCH  20  21
ATOM     21  C   UNL     1       4.064   3.012  18.940  0.00  0.00    +0.000 A 
ATOM     22  C   UNL     1       5.196   3.790  19.194  0.00  0.00    +0.000 A 
ATOM     23  C   UNL     1       5.756   4.574  18.180  0.00  0.00    +0.000 A 
ATOM     24  C   UNL     1       5.197   4.569  16.902  0.00  0.00    +0.000 A 
ATOM     25  C   UNL     1       4.048   3.814  16.658  0.00  0.00    +0.000 A 
ATOM     26  C   UNL     1       3.504   3.012  17.664  0.00  0.00    +0.000 A 
BRANCH  24  27
ATOM     27  O   UNL     1       5.808   5.373  15.967  0.00  0.00    +0.000 OA
BRANCH  27  28
ATOM     28  C   UNL     1       6.096   4.876  14.716  0.00  0.00    +0.000 A 
ATOM     29  C   UNL     1       7.335   5.239  14.181  0.00  0.00    +0.000 A 
ATOM     30  C   UNL     1       7.714   4.782  12.916  0.00  0.00    +0.000 A 
ATOM     31  C   UNL     1       6.855   3.963  12.184  0.00  0.00    +0.000 A 
ATOM     32  C   UNL     1       5.633   3.575  12.726  0.00  0.00    +0.000 A 
ATOM     33  C   UNL     1       5.266   4.005  14.003  0.00  0.00    +0.000 A 
ENDBRANCH  27  28
ENDBRANCH  24  27
ENDBRANCH  20  21
ENDBRANCH  19  20
ENDBRANCH  18  19
ENDBRANCH   1  18
TORSDOF 14
ENDMDL
MODEL 6
REMARK VINA RESULT:      -6.7      6.899     10.451
REMARK  Name = 
REMARK  15 active torsions:
REMARK  status: ('A' for Active; 'I' for Inactive)
REMARK    1  A    between atoms: C_1  and  C_2
REMARK    2  A    between atoms: C_2  and  O_3
REMARK    3  A    between atoms: O_3  and  C_4
REMARK    4  A    between atoms: C_4  and  C_5
REMARK    5  A    between atoms: C_4  and  C_30
REMARK    6  A    between atoms: C_5  and  C_6
REMARK    7  A    between atoms: C_9  and  O_10
REMARK    8  A    between atoms: O_10  and  C_11
REMARK    9  A    between atoms: C_11  and  C_12
REMARK   10  A    between atoms: C_12  and  C_13
REMARK   11  A    between atoms: C_13  and  O_14
REMARK   12  A    between atoms: O_14  and  C_15
REMARK   13  A    between atoms: C_18  and  O_19
REMARK   14  A    between atoms: O_19  and  C_20
REMARK   15  A    between atoms: C_30  and  O_32
REMARK                            x       y       z     vdW  Elec       q    Type
REMARK                         _______ _______ _______ _____ _____    ______ ____
ROOT
ATOM      1  C   UNL     1       8.709   9.869  18.540  0.00  0.00    +0.000 C 
ENDROOT
BRANCH   1   2
ATOM      2  O   UNL     1       9.875  10.016  19.358  0.00  0.00    +0.000 OA
BRANCH   2   6
ATOM      3  C   UNL     1      11.779  13.728  19.055  0.00  0.00    +0.000 A 
ATOM      4  C   UNL     1      11.319  13.229  20.283  0.00  0.00    +0.000 A 
ATOM      5  C   UNL     1      10.702  11.976  20.350  0.00  0.00    +0.000 A 
ATOM      6  C   UNL     1      10.531  11.207  19.198  0.00  0.00    +0.000 A 
ATOM      7  C   UNL     1      11.044  11.668  17.989  0.00  0.00    +0.000 A 
ATOM      8  C   UNL     1      11.658  12.920  17.918  0.00  0.00    +0.000 A 
BRANCH   3   9
ATOM      9  C   UNL     1      12.323  15.135  18.951  0.00  0.00    +0.000 C 
BRANCH   9  10
ATOM     10  C   UNL     1      11.297  16.274  19.039  0.00  0.00    +0.000 C 
BRANCH  10  11
ATOM     11  C   UNL     1      10.205  16.082  17.981  0.00  0.00    +0.000 C 
ATOM     12  O   UNL     1      10.392  16.125  16.770  0.00  0.00    +0.000 OA
BRANCH  11  13
ATOM     13  O   UNL     1       8.983  15.885  18.537  0.00  0.00    +0.000 OA
ATOM     14  H   UNL     1       8.547  15.140  18.048  0.00  0.00    +0.000 HD
ENDBRANCH  11  13
ENDBRANCH  10  11
BRANCH  10  15
ATOM     15  O   UNL     1      10.695  16.428  20.342  0.00  0.00    +0.000 OA
BRANCH  15  17
ATOM     16  C   UNL     1      12.051  18.334  20.903  0.00  0.00    +0.000 C 
ATOM     17  C   UNL     1      11.603  16.945  21.320  0.00  0.00    +0.000 C 
ENDBRANCH  15  17
ENDBRANCH  10  15
ENDBRANCH   9  10
ENDBRANCH   3   9
ENDBRANCH   2   6
ENDBRANCH   1   2
BRANCH   1  18
ATOM     18  C   UNL     1       8.355   8.387  18.455  0.00  0.00    +0.000 C 
BRANCH  18  19
ATOM     19  C   UNL     1       7.371   8.129  17.321  0.00  0.00    +0.000 C 
BRANCH  19  20
ATOM     20  O   UNL     1       7.592   6.814  16.804  0.00  0.00    +0.000 OA
BRANCH  20  21
ATOM     21  C   UNL     1       6.671   5.872  17.167  0.00  0.00    +0.000 A 
ATOM     22  C   UNL     1       5.857   5.393  16.138  0.00  0.00    +0.000 A 
ATOM     23  C   UNL     1       4.889   4.418  16.397  0.00  0.00    +0.000 A 
ATOM     24  C   UNL     1       4.744   3.902  17.685  0.00  0.00    +0.000 A 
ATOM     25  C   UNL     1       5.538   4.402  18.719  0.00  0.00    +0.000 A 
ATOM     26  C   UNL     1       6.521   5.358  18.454  0.00  0.00    +0.000 A 
BRANCH  24  27
ATOM     27  O   UNL     1       3.764   2.950  17.853  0.00  0.00    +0.000 OA
BRANCH  27  28
ATOM     28  C   UNL     1       2.877   3.054  18.901  0.00  0.00    +0.000 A 
ATOM     29  C   UNL     1       3.224   2.370  20.069  0.00  0.00    +0.000 A 
ATOM     30  C   UNL     1       2.385   2.417  21.185  0.00  0.00    +0.000 A 
ATOM     31  C   UNL     1       1.197   3.148  21.135  0.00  0.00    +0.000 A 
ATOM     32  C   UNL     1       0.864   3.855  19.983  0.00  0.00    +0.000 A 
ATOM     33  C   UNL     1       1.717   3.834  18.878  0.00  0.00    +0.000 A 
ENDBRANCH  27  28
ENDBRANCH  24  27
ENDBRANCH  20  21
ENDBRANCH  19  20
ENDBRANCH  18  19
ENDBRANCH   1  18
TORSDOF 14
ENDMDL
MODEL 7
REMARK VINA RESULT:      -6.6      3.485      5.227
REMARK  Name = 
REMARK  15 active torsions:
REMARK  status: ('A' for Active; 'I' for Inactive)
REMARK    1  A    between atoms: C_1  and  C_2
REMARK    2  A    between atoms: C_2  and  O_3
REMARK    3  A    between atoms: O_3  and  C_4
REMARK    4  A    between atoms: C_4  and  C_5
REMARK    5  A    between atoms: C_4  and  C_30
REMARK    6  A    between atoms: C_5  and  C_6
REMARK    7  A    between atoms: C_9  and  O_10
REMARK    8  A    between atoms: O_10  and  C_11
REMARK    9  A    between atoms: C_11  and  C_12
REMARK   10  A    between atoms: C_12  and  C_13
REMARK   11  A    between atoms: C_13  and  O_14
REMARK   12  A    between atoms: O_14  and  C_15
REMARK   13  A    between atoms: C_18  and  O_19
REMARK   14  A    between atoms: O_19  and  C_20
REMARK   15  A    between atoms: C_30  and  O_32
REMARK                            x       y       z     vdW  Elec       q    Type
REMARK                         _______ _______ _______ _____ _____    ______ ____
ROOT
ATOM      1  C   UNL     1       1.091   8.411  20.582  0.00  0.00    +0.000 C 
ENDROOT
BRANCH   1   2
ATOM      2  O   UNL     1       1.662   7.098  20.606  0.00  0.00    +0.000 OA
BRANCH   2   6
ATOM      3  C   UNL     1       4.234   6.469  17.368  0.00  0.00    +0.000 A 
ATOM      4  C   UNL     1       3.471   7.639  17.491  0.00  0.00    +0.000 A 
ATOM      5  C   UNL     1       2.634   7.823  18.596  0.00  0.00    +0.000 A 
ATOM      6  C   UNL     1       2.543   6.847  19.588  0.00  0.00    +0.000 A 
ATOM      7  C   UNL     1       3.347   5.713  19.504  0.00  0.00    +0.000 A 
ATOM      8  C   UNL     1       4.182   5.524  18.401  0.00  0.00    +0.000 A 
BRANCH   3   9
ATOM      9  C   UNL     1       5.036   6.201  16.114  0.00  0.00    +0.000 C 
BRANCH   9  10
ATOM     10  C   UNL     1       6.477   5.711  16.314  0.00  0.00    +0.000 C 
BRANCH  10  11
ATOM     11  C   UNL     1       6.882   4.780  15.165  0.00  0.00    +0.000 C 
ATOM     12  O   UNL     1       6.351   3.702  14.921  0.00  0.00    +0.000 OA
BRANCH  11  13
ATOM     13  O   UNL     1       7.927   5.271  14.453  0.00  0.00    +0.000 OA
ATOM     14  H   UNL     1       7.861   4.907  13.532  0.00  0.00    +0.000 HD
ENDBRANCH  11  13
ENDBRANCH  10  11
BRANCH  10  15
ATOM     15  O   UNL     1       7.448   6.770  16.451  0.00  0.00    +0.000 OA
BRANCH  15  17
ATOM     16  C   UNL     1       7.799   6.012  18.707  0.00  0.00    +0.000 C 
ATOM     17  C   UNL     1       7.603   7.215  17.803  0.00  0.00    +0.000 C 
ENDBRANCH  15  17
ENDBRANCH  10  15
ENDBRANCH   9  10
ENDBRANCH   3   9
ENDBRANCH   2   6
ENDBRANCH   1   2
BRANCH   1  18
ATOM     18  C   UNL     1       1.208   9.021  21.976  0.00  0.00    +0.000 C 
BRANCH  18  19
ATOM     19  C   UNL     1       0.206  10.154  22.158  0.00  0.00    +0.000 C 
BRANCH  19  20
ATOM     20  O   UNL     1      -0.454  10.396  20.912  0.00  0.00    +0.000 OA
BRANCH  20  21
ATOM     21  C   UNL     1      -0.163  11.588  20.310  0.00  0.00    +0.000 A 
ATOM     22  C   UNL     1       0.455  12.541  21.123  0.00  0.00    +0.000 A 
ATOM     23  C   UNL     1       0.809  13.791  20.605  0.00  0.00    +0.000 A 
ATOM     24  C   UNL     1       0.562  14.086  19.264  0.00  0.00    +0.000 A 
ATOM     25  C   UNL     1      -0.083  13.145  18.460  0.00  0.00    +0.000 A 
ATOM     26  C   UNL     1      -0.412  11.888  18.972  0.00  0.00    +0.000 A 
BRANCH  24  27
ATOM     27  O   UNL     1       0.936  15.341  18.838  0.00  0.00    +0.000 OA
BRANCH  27  28
ATOM     28  C   UNL     1       2.269  15.688  18.812  0.00  0.00    +0.000 A 
ATOM     29  C   UNL     1       3.061  15.009  17.882  0.00  0.00    +0.000 A 
ATOM     30  C   UNL     1       4.425  15.295  17.783  0.00  0.00    +0.000 A 
ATOM     31  C   UNL     1       4.999  16.258  18.613  0.00  0.00    +0.000 A 
ATOM     32  C   UNL     1       4.206  16.957  19.519  0.00  0.00    +0.000 A 
ATOM     33  C   UNL     1       2.838  16.695  19.597  0.00  0.00    +0.000 A 
ENDBRANCH  27  28
ENDBRANCH  24  27
ENDBRANCH  20  21
ENDBRANCH  19  20
ENDBRANCH  18  19
ENDBRANCH   1  18
TORSDOF 14
ENDMDL
MODEL 8
REMARK VINA RESULT:      -6.6      1.933      8.318
REMARK  Name = 
REMARK  15 active torsions:
REMARK  status: ('A' for Active; 'I' for Inactive)
REMARK    1  A    between atoms: C_1  and  C_2
REMARK    2  A    between atoms: C_2  and  O_3
REMARK    3  A    between atoms: O_3  and  C_4
REMARK    4  A    between atoms: C_4  and  C_5
REMARK    5  A    between atoms: C_4  and  C_30
REMARK    6  A    between atoms: C_5  and  C_6
REMARK    7  A    between atoms: C_9  and  O_10
REMARK    8  A    between atoms: O_10  and  C_11
REMARK    9  A    between atoms: C_11  and  C_12
REMARK   10  A    between atoms: C_12  and  C_13
REMARK   11  A    between atoms: C_13  and  O_14
REMARK   12  A    between atoms: O_14  and  C_15
REMARK   13  A    between atoms: C_18  and  O_19
REMARK   14  A    between atoms: O_19  and  C_20
REMARK   15  A    between atoms: C_30  and  O_32
REMARK                            x       y       z     vdW  Elec       q    Type
REMARK                         _______ _______ _______ _____ _____    ______ ____
ROOT
ATOM      1  C   UNL     1       1.491   5.217  20.933  0.00  0.00    +0.000 C 
ENDROOT
BRANCH   1   2
ATOM      2  O   UNL     1       2.298   6.130  20.181  0.00  0.00    +0.000 OA
BRANCH   2   6
ATOM      3  C   UNL     1       1.016  10.106  19.969  0.00  0.00    +0.000 A 
ATOM      4  C   UNL     1       1.624   9.464  18.881  0.00  0.00    +0.000 A 
ATOM      5  C   UNL     1       2.024   8.129  18.981  0.00  0.00    +0.000 A 
ATOM      6  C   UNL     1       1.830   7.417  20.165  0.00  0.00    +0.000 A 
ATOM      7  C   UNL     1       1.169   8.028  21.227  0.00  0.00    +0.000 A 
ATOM      8  C   UNL     1       0.770   9.363  21.131  0.00  0.00    +0.000 A 
BRANCH   3   9
ATOM      9  C   UNL     1       0.704  11.585  19.916  0.00  0.00    +0.000 C 
BRANCH   9  10
ATOM     10  C   UNL     1       0.411  12.173  18.529  0.00  0.00    +0.000 C 
BRANCH  10  11
ATOM     11  C   UNL     1      -1.090  12.449  18.380  0.00  0.00    +0.000 C 
ATOM     12  O   UNL     1      -1.873  12.570  19.315  0.00  0.00    +0.000 OA
BRANCH  11  13
ATOM     13  O   UNL     1      -1.470  12.518  17.079  0.00  0.00    +0.000 OA
ATOM     14  H   UNL     1      -2.142  11.804  16.924  0.00  0.00    +0.000 HD
ENDBRANCH  11  13
ENDBRANCH  10  11
BRANCH  10  15
ATOM     15  O   UNL     1       1.161  13.367  18.221  0.00  0.00    +0.000 OA
BRANCH  15  17
ATOM     16  C   UNL     1       3.031  14.503  19.223  0.00  0.00    +0.000 C 
ATOM     17  C   UNL     1       2.555  13.243  18.522  0.00  0.00    +0.000 C 
ENDBRANCH  15  17
ENDBRANCH  10  15
ENDBRANCH   9  10
ENDBRANCH   3   9
ENDBRANCH   2   6
ENDBRANCH   1   2
BRANCH   1  18
ATOM     18  C   UNL     1       1.939   3.793  20.616  0.00  0.00    +0.000 C 
BRANCH  18  19
ATOM     19  C   UNL     1       0.778   2.965  20.081  0.00  0.00    +0.000 C 
BRANCH  19  20
ATOM     20  O   UNL     1       0.902   2.854  18.660  0.00  0.00    +0.000 OA
BRANCH  20  21
ATOM     21  C   UNL     1       2.150   3.093  18.154  0.00  0.00    +0.000 A 
ATOM     22  C   UNL     1       2.340   4.356  17.587  0.00  0.00    +0.000 A 
ATOM     23  C   UNL     1       3.583   4.710  17.053  0.00  0.00    +0.000 A 
ATOM     24  C   UNL     1       4.647   3.810  17.099  0.00  0.00    +0.000 A 
ATOM     25  C   UNL     1       4.447   2.538  17.639  0.00  0.00    +0.000 A 
ATOM     26  C   UNL     1       3.213   2.194  18.196  0.00  0.00    +0.000 A 
BRANCH  24  27
ATOM     27  O   UNL     1       5.832   4.238  16.545  0.00  0.00    +0.000 OA
BRANCH  27  28
ATOM     28  C   UNL     1       6.568   5.220  17.171  0.00  0.00    +0.000 A 
ATOM     29  C   UNL     1       7.191   4.851  18.365  0.00  0.00    +0.000 A 
ATOM     30  C   UNL     1       7.959   5.781  19.071  0.00  0.00    +0.000 A 
ATOM     31  C   UNL     1       8.104   7.080  18.584  0.00  0.00    +0.000 A 
ATOM     32  C   UNL     1       7.508   7.441  17.379  0.00  0.00    +0.000 A 
ATOM     33  C   UNL     1       6.767   6.505  16.657  0.00  0.00    +0.000 A 
ENDBRANCH  27  28
ENDBRANCH  24  27
ENDBRANCH  20  21
ENDBRANCH  19  20
ENDBRANCH  18  19
ENDBRANCH   1  18
TORSDOF 14
ENDMDL
MODEL 9
REMARK VINA RESULT:      -6.6      5.179      7.421
REMARK  Name = 
REMARK  15 active torsions:
REMARK  status: ('A' for Active; 'I' for Inactive)
REMARK    1  A    between atoms: C_1  and  C_2
REMARK    2  A    between atoms: C_2  and  O_3
REMARK    3  A    between atoms: O_3  and  C_4
REMARK    4  A    between atoms: C_4  and  C_5
REMARK    5  A    between atoms: C_4  and  C_30
REMARK    6  A    between atoms: C_5  and  C_6
REMARK    7  A    between atoms: C_9  and  O_10
REMARK    8  A    between atoms: O_10  and  C_11
REMARK    9  A    between atoms: C_11  and  C_12
REMARK   10  A    between atoms: C_12  and  C_13
REMARK   11  A    between atoms: C_13  and  O_14
REMARK   12  A    between atoms: O_14  and  C_15
REMARK   13  A    between atoms: C_18  and  O_19
REMARK   14  A    between atoms: O_19  and  C_20
REMARK   15  A    between atoms: C_30  and  O_32
REMARK                            x       y       z     vdW  Elec       q    Type
REMARK                         _______ _______ _______ _____ _____    ______ ____
ROOT
ATOM      1  C   UNL     1       8.510   9.305  18.165  0.00  0.00    +0.000 C 
ENDROOT
BRANCH   1   2
ATOM      2  O   UNL     1       8.699   7.996  18.715  0.00  0.00    +0.000 OA
BRANCH   2   6
ATOM      3  C   UNL     1       5.804   5.313  17.329  0.00  0.00    +0.000 A 
ATOM      4  C   UNL     1       5.815   6.659  16.937  0.00  0.00    +0.000 A 
ATOM      5  C   UNL     1       6.807   7.524  17.407  0.00  0.00    +0.000 A 
ATOM      6  C   UNL     1       7.798   7.063  18.273  0.00  0.00    +0.000 A 
ATOM      7  C   UNL     1       7.831   5.714  18.614  0.00  0.00    +0.000 A 
ATOM      8  C   UNL     1       6.840   4.848  18.149  0.00  0.00    +0.000 A 
BRANCH   3   9
ATOM      9  C   UNL     1       4.660   4.405  16.936  0.00  0.00    +0.000 C 
BRANCH   9  10
ATOM     10  C   UNL     1       3.647   4.066  18.038  0.00  0.00    +0.000 C 
BRANCH  10  11
ATOM     11  C   UNL     1       3.849   2.622  18.514  0.00  0.00    +0.000 C 
ATOM     12  O   UNL     1       3.187   1.663  18.135  0.00  0.00    +0.000 OA
BRANCH  11  13
ATOM     13  O   UNL     1       4.839   2.523  19.437  0.00  0.00    +0.000 OA
ATOM     14  H   UNL     1       4.976   3.424  19.830  0.00  0.00    +0.000 HD
ENDBRANCH  11  13
ENDBRANCH  10  11
BRANCH  10  15
ATOM     15  O   UNL     1       3.679   4.963  19.168  0.00  0.00    +0.000 OA
BRANCH  15  17
ATOM     16  C   UNL     1       1.679   4.914  20.506  0.00  0.00    +0.000 C 
ATOM     17  C   UNL     1       2.429   5.624  19.393  0.00  0.00    +0.000 C 
ENDBRANCH  15  17
ENDBRANCH  10  15
ENDBRANCH   9  10
ENDBRANCH   3   9
ENDBRANCH   2   6
ENDBRANCH   1   2
BRANCH   1  18
ATOM     18  C   UNL     1       8.958  10.337  19.197  0.00  0.00    +0.000 C 
BRANCH  18  19
ATOM     19  C   UNL     1      10.150  11.134  18.685  0.00  0.00    +0.000 C 
BRANCH  19  20
ATOM     20  O   UNL     1       9.718  11.985  17.619  0.00  0.00    +0.000 OA
BRANCH  20  21
ATOM     21  C   UNL     1       8.914  13.029  17.984  0.00  0.00    +0.000 A 
ATOM     22  C   UNL     1       7.713  13.142  17.280  0.00  0.00    +0.000 A 
ATOM     23  C   UNL     1       6.810  14.166  17.582  0.00  0.00    +0.000 A 
ATOM     24  C   UNL     1       7.096  15.071  18.604  0.00  0.00    +0.000 A 
ATOM     25  C   UNL     1       8.309  14.975  19.287  0.00  0.00    +0.000 A 
ATOM     26  C   UNL     1       9.199  13.937  19.002  0.00  0.00    +0.000 A 
BRANCH  24  27
ATOM     27  O   UNL     1       6.155  16.050  18.831  0.00  0.00    +0.000 OA
BRANCH  27  28
ATOM     28  C   UNL     1       4.856  15.700  19.124  0.00  0.00    +0.000 A 
ATOM     29  C   UNL     1       3.886  16.125  18.213  0.00  0.00    +0.000 A 
ATOM     30  C   UNL     1       2.540  15.817  18.427  0.00  0.00    +0.000 A 
ATOM     31  C   UNL     1       2.162  15.086  19.554  0.00  0.00    +0.000 A 
ATOM     32  C   UNL     1       3.130  14.637  20.448  0.00  0.00    +0.000 A 
ATOM     33  C   UNL     1       4.477  14.916  20.218  0.00  0.00    +0.000 A 
ENDBRANCH  27  28
ENDBRANCH  24  27
ENDBRANCH  20  21
ENDBRANCH  19  20
ENDBRANCH  18  19
ENDBRANCH   1  18
TORSDOF 14
ENDMDL
