MODEL 1
REMARK VINA RESULT:      -5.9      0.000      0.000
REMARK  Name = 
REMARK  12 active torsions:
REMARK  status: ('A' for Active; 'I' for Inactive)
REMARK    1  A    between atoms: C_1  and  O_2
REMARK    2  A    between atoms: O_2  and  C_3
REMARK    3  A    between atoms: C_7  and  O_8
REMARK    4  A    between atoms: O_8  and  C_9
REMARK    5  A    between atoms: C_10  and  O_11
REMARK    6  A    between atoms: O_11  and  C_12
REMARK    7  A    between atoms: C_16  and  S_17
REMARK    8  A    between atoms: S_17  and  C_18
REMARK    9  A    between atoms: C_23  and  N_24
REMARK   10  A    between atoms: C_25  and  C_27
REMARK   11  A    between atoms: C_27  and  C_28
REMARK   12  A    between atoms: C_27  and  N_29
REMARK                            x       y       z     vdW  Elec       q    Type
REMARK                         _______ _______ _______ _____ _____    ______ ____
ROOT
ATOM      1  C   UNL     1      -2.750  10.642  17.903  0.00  0.00    +0.000 A 
ATOM      2  C   UNL     1      -1.420  10.728  18.303  0.00  0.00    +0.000 A 
ATOM      3  C   UNL     1      -1.035  11.609  19.309  0.00  0.00    +0.000 A 
ATOM      4  C   UNL     1      -1.993  12.457  19.928  0.00  0.00    +0.000 A 
ATOM      5  C   UNL     1      -3.351  12.409  19.494  0.00  0.00    +0.000 A 
ATOM      6  C   UNL     1      -3.724  11.496  18.471  0.00  0.00    +0.000 A 
ATOM      7  C   UNL     1      -1.457  13.399  20.980  0.00  0.00    +0.000 A 
ATOM      8  C   UNL     1      -1.993  13.211  22.197  0.00  0.00    +0.000 A 
ATOM      9  C   UNL     1      -1.905  14.010  23.390  0.00  0.00    +0.000 A 
ATOM     10  C   UNL     1      -1.052  14.979  23.758  0.00  0.00    +0.000 A 
ATOM     11  C   UNL     1       0.136  15.410  22.965  0.00  0.00    +0.000 A 
ATOM     12  O   UNL     1       1.078  16.010  23.495  0.00  0.00    +0.000 OA
ATOM     13  C   UNL     1       0.256  15.166  21.518  0.00  0.00    +0.000 A 
ATOM     14  C   UNL     1      -0.377  14.355  20.648  0.00  0.00    +0.000 A 
ATOM     15  C   UNL     1       0.147  14.231  19.196  0.00  0.00    +0.000 C 
ATOM     16  C   UNL     1       1.041  12.981  19.046  0.00  0.00    +0.000 C 
ATOM     17  C   UNL     1       0.437  11.705  19.637  0.00  0.00    +0.000 C 
ENDROOT
BRANCH  15  18
ATOM     18  N   UNL     1       0.887  15.400  18.759  0.00  0.00    +0.000 N 
ATOM     19  C   UNL     1       0.277  16.571  18.363  0.00  0.00    +0.000 C 
ATOM     20  O   UNL     1      -0.935  16.709  18.282  0.00  0.00    +0.000 OA
ATOM     21  H   UNL     1       1.902  15.438  18.830  0.00  0.00    +0.000 HD
BRANCH  19  22
ATOM     22  C   UNL     1       1.292  17.673  17.996  0.00  0.00    +0.000 C 
ATOM     23  C   UNL     1       0.781  18.503  16.826  0.00  0.00    +0.000 C 
BRANCH  22  24
ATOM     24  N   UNL     1       1.551  18.528  19.181  0.00  0.00    +0.000 NA
ATOM     25  H   UNL     1       1.080  18.108  19.986  0.00  0.00    +0.000 HD
ATOM     26  H   UNL     1       1.078  19.422  19.040  0.00  0.00    +0.000 HD
ENDBRANCH  22  24
ENDBRANCH  19  22
ENDBRANCH  15  18
BRANCH   1  28
ATOM     27  C   UNL     1      -2.743  10.101  15.600  0.00  0.00    +0.000 C 
ATOM     28  O   UNL     1      -3.149   9.757  16.924  0.00  0.00    +0.000 OA
ENDBRANCH   1  28
BRANCH   5  29
ATOM     29  O   UNL     1      -4.371  13.102  20.102  0.00  0.00    +0.000 OA
ATOM     30  C   UNL     1      -5.231  12.443  21.025  0.00  0.00    +0.000 C 
ENDBRANCH   5  29
BRANCH   6  31
ATOM     31  O   UNL     1      -4.976  11.311  17.927  0.00  0.00    +0.000 OA
ATOM     32  C   UNL     1      -5.517  12.259  17.022  0.00  0.00    +0.000 C 
ENDBRANCH   6  31
BRANCH  10  33
ATOM     33  S   UNL     1      -1.303  15.693  25.342  0.00  0.00    +0.000 S 
ATOM     34  C   UNL     1      -2.898  16.534  25.201  0.00  0.00    +0.000 C 
ENDBRANCH  10  33
TORSDOF 7
ENDMDL
MODEL 2
REMARK VINA RESULT:      -5.9      8.083     10.821
REMARK  Name = 
REMARK  12 active torsions:
REMARK  status: ('A' for Active; 'I' for Inactive)
REMARK    1  A    between atoms: C_1  and  O_2
REMARK    2  A    between atoms: O_2  and  C_3
REMARK    3  A    between atoms: C_7  and  O_8
REMARK    4  A    between atoms: O_8  and  C_9
REMARK    5  A    between atoms: C_10  and  O_11
REMARK    6  A    between atoms: O_11  and  C_12
REMARK    7  A    between atoms: C_16  and  S_17
REMARK    8  A    between atoms: S_17  and  C_18
REMARK    9  A    between atoms: C_23  and  N_24
REMARK   10  A    between atoms: C_25  and  C_27
REMARK   11  A    between atoms: C_27  and  C_28
REMARK   12  A    between atoms: C_27  and  N_29
REMARK                            x       y       z     vdW  Elec       q    Type
REMARK                         _______ _______ _______ _____ _____    ______ ____
ROOT
ATOM      1  C   UNL     1      11.230  14.992  18.983  0.00  0.00    +0.000 A 
ATOM      2  C   UNL     1      10.375  15.964  19.490  0.00  0.00    +0.000 A 
ATOM      3  C   UNL     1       9.460  15.654  20.492  0.00  0.00    +0.000 A 
ATOM      4  C   UNL     1       9.366  14.329  20.996  0.00  0.00    +0.000 A 
ATOM      5  C   UNL     1      10.208  13.314  20.450  0.00  0.00    +0.000 A 
ATOM      6  C   UNL     1      11.141  13.654  19.434  0.00  0.00    +0.000 A 
ATOM      7  C   UNL     1       8.313  14.099  22.054  0.00  0.00    +0.000 A 
ATOM      8  C   UNL     1       8.810  13.673  23.227  0.00  0.00    +0.000 A 
ATOM      9  C   UNL     1       8.142  13.159  24.393  0.00  0.00    +0.000 A 
ATOM     10  C   UNL     1       6.863  13.227  24.796  0.00  0.00    +0.000 A 
ATOM     11  C   UNL     1       5.791  13.988  24.091  0.00  0.00    +0.000 A 
ATOM     12  O   UNL     1       4.759  14.333  24.677  0.00  0.00    +0.000 OA
ATOM     13  C   UNL     1       5.884  14.360  22.670  0.00  0.00    +0.000 A 
ATOM     14  C   UNL     1       6.894  14.418  21.780  0.00  0.00    +0.000 A 
ATOM     15  C   UNL     1       6.650  15.041  20.383  0.00  0.00    +0.000 C 
ATOM     16  C   UNL     1       7.113  16.513  20.356  0.00  0.00    +0.000 C 
ATOM     17  C   UNL     1       8.509  16.740  20.940  0.00  0.00    +0.000 C 
ENDROOT
BRANCH  15  18
ATOM     18  N   UNL     1       5.261  14.972  19.967  0.00  0.00    +0.000 N 
ATOM     19  C   UNL     1       4.878  14.772  18.659  0.00  0.00    +0.000 C 
ATOM     20  O   UNL     1       5.664  14.700  17.725  0.00  0.00    +0.000 OA
ATOM     21  H   UNL     1       4.506  14.962  20.650  0.00  0.00    +0.000 HD
BRANCH  19  22
ATOM     22  C   UNL     1       3.345  14.689  18.496  0.00  0.00    +0.000 C 
ATOM     23  C   UNL     1       2.793  15.998  17.950  0.00  0.00    +0.000 C 
BRANCH  22  24
ATOM     24  N   UNL     1       2.999  13.553  17.605  0.00  0.00    +0.000 NA
ATOM     25  H   UNL     1       1.997  13.372  17.694  0.00  0.00    +0.000 HD
ATOM     26  H   UNL     1       3.449  12.711  17.970  0.00  0.00    +0.000 HD
ENDBRANCH  22  24
ENDBRANCH  19  22
ENDBRANCH  15  18
BRANCH   1  28
ATOM     27  C   UNL     1      11.829  16.413  17.188  0.00  0.00    +0.000 C 
ATOM     28  O   UNL     1      12.157  15.291  18.007  0.00  0.00    +0.000 OA
ENDBRANCH   1  28
BRANCH   5  29
ATOM     29  O   UNL     1      10.275  12.032  20.943  0.00  0.00    +0.000 OA
ATOM     30  C   UNL     1       9.370  11.039  20.475  0.00  0.00    +0.000 C 
ENDBRANCH   5  29
BRANCH   6  31
ATOM     31  O   UNL     1      12.025  12.816  18.793  0.00  0.00    +0.000 OA
ATOM     32  C   UNL     1      11.593  11.987  17.728  0.00  0.00    +0.000 C 
ENDBRANCH   6  31
BRANCH  10  33
ATOM     33  S   UNL     1       6.475  12.458  26.326  0.00  0.00    +0.000 S 
ATOM     34  C   UNL     1       5.549  10.978  25.854  0.00  0.00    +0.000 C 
ENDBRANCH  10  33
TORSDOF 7
ENDMDL
MODEL 3
REMARK VINA RESULT:      -5.8      3.016      6.066
REMARK  Name = 
REMARK  12 active torsions:
REMARK  status: ('A' for Active; 'I' for Inactive)
REMARK    1  A    between atoms: C_1  and  O_2
REMARK    2  A    between atoms: O_2  and  C_3
REMARK    3  A    between atoms: C_7  and  O_8
REMARK    4  A    between atoms: O_8  and  C_9
REMARK    5  A    between atoms: C_10  and  O_11
REMARK    6  A    between atoms: O_11  and  C_12
REMARK    7  A    between atoms: C_16  and  S_17
REMARK    8  A    between atoms: S_17  and  C_18
REMARK    9  A    between atoms: C_23  and  N_24
REMARK   10  A    between atoms: C_25  and  C_27
REMARK   11  A    between atoms: C_27  and  C_28
REMARK   12  A    between atoms: C_27  and  N_29
REMARK                            x       y       z     vdW  Elec       q    Type
REMARK                         _______ _______ _______ _____ _____    ______ ____
ROOT
ATOM      1  C   UNL     1      -3.227  12.909  23.922  0.00  0.00    +0.000 A 
ATOM      2  C   UNL     1      -2.397  11.882  23.486  0.00  0.00    +0.000 A 
ATOM      3  C   UNL     1      -1.348  12.140  22.607  0.00  0.00    +0.000 A 
ATOM      4  C   UNL     1      -1.125  13.455  22.119  0.00  0.00    +0.000 A 
ATOM      5  C   UNL     1      -1.999  14.507  22.525  0.00  0.00    +0.000 A 
ATOM      6  C   UNL     1      -3.058  14.224  23.429  0.00  0.00    +0.000 A 
ATOM      7  C   UNL     1       0.016  13.611  21.142  0.00  0.00    +0.000 A 
ATOM      8  C   UNL     1       0.979  14.447  21.565  0.00  0.00    +0.000 A 
ATOM      9  C   UNL     1       2.103  15.008  20.864  0.00  0.00    +0.000 A 
ATOM     10  C   UNL     1       2.712  14.657  19.720  0.00  0.00    +0.000 A 
ATOM     11  C   UNL     1       2.363  13.455  18.908  0.00  0.00    +0.000 A 
ATOM     12  O   UNL     1       3.166  12.971  18.103  0.00  0.00    +0.000 OA
ATOM     13  C   UNL     1       1.056  12.786  19.001  0.00  0.00    +0.000 A 
ATOM     14  C   UNL     1       0.047  12.817  19.894  0.00  0.00    +0.000 A 
ATOM     15  C   UNL     1      -1.130  11.820  19.755  0.00  0.00    +0.000 C 
ATOM     16  C   UNL     1      -0.923  10.602  20.679  0.00  0.00    +0.000 C 
ATOM     17  C   UNL     1      -0.535  10.964  22.115  0.00  0.00    +0.000 C 
ENDROOT
BRANCH  15  18
ATOM     18  N   UNL     1      -1.323  11.357  18.393  0.00  0.00    +0.000 N 
ATOM     19  C   UNL     1      -2.531  11.437  17.736  0.00  0.00    +0.000 C 
ATOM     20  O   UNL     1      -3.561  11.843  18.257  0.00  0.00    +0.000 OA
ATOM     21  H   UNL     1      -0.536  11.048  17.826  0.00  0.00    +0.000 HD
BRANCH  19  22
ATOM     22  C   UNL     1      -2.451  10.922  16.284  0.00  0.00    +0.000 C 
ATOM     23  C   UNL     1      -2.699   9.421  16.234  0.00  0.00    +0.000 C 
BRANCH  22  24
ATOM     24  N   UNL     1      -3.432  11.651  15.441  0.00  0.00    +0.000 NA
ATOM     25  H   UNL     1      -3.604  11.096  14.599  0.00  0.00    +0.000 HD
ATOM     26  H   UNL     1      -2.990  12.507  15.103  0.00  0.00    +0.000 HD
ENDBRANCH  22  24
ENDBRANCH  19  22
ENDBRANCH  15  18
BRANCH   1  28
ATOM     27  C   UNL     1      -5.533  12.467  24.210  0.00  0.00    +0.000 C 
ATOM     28  O   UNL     1      -4.255  12.672  24.809  0.00  0.00    +0.000 OA
ENDBRANCH   1  28
BRANCH   5  29
ATOM     29  O   UNL     1      -1.803  15.829  22.201  0.00  0.00    +0.000 OA
ATOM     30  C   UNL     1      -2.414  16.377  21.039  0.00  0.00    +0.000 C 
ENDBRANCH   5  29
BRANCH   6  31
ATOM     31  O   UNL     1      -3.994  15.103  23.926  0.00  0.00    +0.000 OA
ATOM     32  C   UNL     1      -3.659  16.005  24.966  0.00  0.00    +0.000 C 
ENDBRANCH   6  31
BRANCH  10  33
ATOM     33  S   UNL     1       4.088  15.629  19.227  0.00  0.00    +0.000 S 
ATOM     34  C   UNL     1       3.496  16.530  17.775  0.00  0.00    +0.000 C 
ENDBRANCH  10  33
TORSDOF 7
ENDMDL
MODEL 4
REMARK VINA RESULT:      -5.8      3.074      6.913
REMARK  Name = 
REMARK  12 active torsions:
REMARK  status: ('A' for Active; 'I' for Inactive)
REMARK    1  A    between atoms: C_1  and  O_2
REMARK    2  A    between atoms: O_2  and  C_3
REMARK    3  A    between atoms: C_7  and  O_8
REMARK    4  A    between atoms: O_8  and  C_9
REMARK    5  A    between atoms: C_10  and  O_11
REMARK    6  A    between atoms: O_11  and  C_12
REMARK    7  A    between atoms: C_16  and  S_17
REMARK    8  A    between atoms: S_17  and  C_18
REMARK    9  A    between atoms: C_23  and  N_24
REMARK   10  A    between atoms: C_25  and  C_27
REMARK   11  A    between atoms: C_27  and  C_28
REMARK   12  A    between atoms: C_27  and  N_29
REMARK                            x       y       z     vdW  Elec       q    Type
REMARK                         _______ _______ _______ _____ _____    ______ ____
ROOT
ATOM      1  C   UNL     1      -0.030  15.603  22.950  0.00  0.00    +0.000 A 
ATOM      2  C   UNL     1       0.093  15.576  21.565  0.00  0.00    +0.000 A 
ATOM      3  C   UNL     1      -0.754  14.788  20.791  0.00  0.00    +0.000 A 
ATOM      4  C   UNL     1      -1.745  13.977  21.407  0.00  0.00    +0.000 A 
ATOM      5  C   UNL     1      -1.849  13.963  22.830  0.00  0.00    +0.000 A 
ATOM      6  C   UNL     1      -0.980  14.780  23.601  0.00  0.00    +0.000 A 
ATOM      7  C   UNL     1      -2.581  13.135  20.473  0.00  0.00    +0.000 A 
ATOM      8  C   UNL     1      -3.894  13.412  20.526  0.00  0.00    +0.000 A 
ATOM      9  C   UNL     1      -5.020  12.717  19.961  0.00  0.00    +0.000 A 
ATOM     10  C   UNL     1      -5.108  11.798  18.986  0.00  0.00    +0.000 A 
ATOM     11  C   UNL     1      -3.959  11.326  18.159  0.00  0.00    +0.000 A 
ATOM     12  O   UNL     1      -4.138  10.790  17.060  0.00  0.00    +0.000 OA
ATOM     13  C   UNL     1      -2.560  11.451  18.598  0.00  0.00    +0.000 A 
ATOM     14  C   UNL     1      -1.936  12.176  19.549  0.00  0.00    +0.000 A 
ATOM     15  C   UNL     1      -0.389  12.190  19.609  0.00  0.00    +0.000 C 
ATOM     16  C   UNL     1       0.172  13.439  18.898  0.00  0.00    +0.000 C 
ATOM     17  C   UNL     1      -0.512  14.748  19.300  0.00  0.00    +0.000 C 
ENDROOT
BRANCH  15  18
ATOM     18  N   UNL     1       0.212  11.003  19.029  0.00  0.00    +0.000 N 
ATOM     19  C   UNL     1       0.737   9.979  19.788  0.00  0.00    +0.000 C 
ATOM     20  O   UNL     1       0.805  10.006  21.009  0.00  0.00    +0.000 OA
ATOM     21  H   UNL     1       0.171  10.828  18.027  0.00  0.00    +0.000 HD
BRANCH  19  22
ATOM     22  C   UNL     1       1.267   8.814  18.925  0.00  0.00    +0.000 C 
ATOM     23  C   UNL     1       2.115   9.341  17.776  0.00  0.00    +0.000 C 
BRANCH  22  24
ATOM     24  N   UNL     1       2.046   7.879  19.775  0.00  0.00    +0.000 NA
ATOM     25  H   UNL     1       2.646   8.432  20.392  0.00  0.00    +0.000 HD
ATOM     26  H   UNL     1       2.694   7.365  19.176  0.00  0.00    +0.000 HD
ENDBRANCH  22  24
ENDBRANCH  19  22
ENDBRANCH  15  18
BRANCH   1  28
ATOM     27  C   UNL     1       0.650  17.800  23.508  0.00  0.00    +0.000 C 
ATOM     28  O   UNL     1       0.787  16.396  23.728  0.00  0.00    +0.000 OA
ENDBRANCH   1  28
BRANCH   5  29
ATOM     29  O   UNL     1      -2.841  13.303  23.515  0.00  0.00    +0.000 OA
ATOM     30  C   UNL     1      -4.059  13.971  23.827  0.00  0.00    +0.000 C 
ENDBRANCH   5  29
BRANCH   6  31
ATOM     31  O   UNL     1      -0.933  14.895  24.972  0.00  0.00    +0.000 OA
ATOM     32  C   UNL     1      -1.756  15.831  25.648  0.00  0.00    +0.000 C 
ENDBRANCH   6  31
BRANCH  10  33
ATOM     33  S   UNL     1      -6.716  11.213  18.594  0.00  0.00    +0.000 S 
ATOM     34  C   UNL     1      -7.307  10.477  20.137  0.00  0.00    +0.000 C 
ENDBRANCH  10  33
TORSDOF 7
ENDMDL
MODEL 5
REMARK VINA RESULT:      -5.7      3.598      6.078
REMARK  Name = 
REMARK  12 active torsions:
REMARK  status: ('A' for Active; 'I' for Inactive)
REMARK    1  A    between atoms: C_1  and  O_2
REMARK    2  A    between atoms: O_2  and  C_3
REMARK    3  A    between atoms: C_7  and  O_8
REMARK    4  A    between atoms: O_8  and  C_9
REMARK    5  A    between atoms: C_10  and  O_11
REMARK    6  A    between atoms: O_11  and  C_12
REMARK    7  A    between atoms: C_16  and  S_17
REMARK    8  A    between atoms: S_17  and  C_18
REMARK    9  A    between atoms: C_23  and  N_24
REMARK   10  A    between atoms: C_25  and  C_27
REMARK   11  A    between atoms: C_27  and  C_28
REMARK   12  A    between atoms: C_27  and  N_29
REMARK                            x       y       z     vdW  Elec       q    Type
REMARK                         _______ _______ _______ _____ _____    ______ ____
ROOT
ATOM      1  C   UNL     1      -3.169  13.090  21.660  0.00  0.00    +0.000 A 
ATOM      2  C   UNL     1      -3.065  12.835  20.296  0.00  0.00    +0.000 A 
ATOM      3  C   UNL     1      -2.056  12.013  19.801  0.00  0.00    +0.000 A 
ATOM      4  C   UNL     1      -1.097  11.442  20.680  0.00  0.00    +0.000 A 
ATOM      5  C   UNL     1      -1.167  11.735  22.075  0.00  0.00    +0.000 A 
ATOM      6  C   UNL     1      -2.210  12.569  22.560  0.00  0.00    +0.000 A 
ATOM      7  C   UNL     1      -0.026  10.599  20.028  0.00  0.00    +0.000 A 
ATOM      8  C   UNL     1      -0.015   9.323  20.447  0.00  0.00    +0.000 A 
ATOM      9  C   UNL     1       0.949   8.277  20.230  0.00  0.00    +0.000 A 
ATOM     10  C   UNL     1       1.935   8.141  19.329  0.00  0.00    +0.000 A 
ATOM     11  C   UNL     1       2.207   9.098  18.217  0.00  0.00    +0.000 A 
ATOM     12  O   UNL     1       2.849   8.755  17.219  0.00  0.00    +0.000 OA
ATOM     13  C   UNL     1       1.748  10.496  18.242  0.00  0.00    +0.000 A 
ATOM     14  C   UNL     1       0.836  11.171  18.971  0.00  0.00    +0.000 A 
ATOM     15  C   UNL     1       0.482  12.630  18.592  0.00  0.00    +0.000 C 
ATOM     16  C   UNL     1      -0.803  12.674  17.738  0.00  0.00    +0.000 C 
ATOM     17  C   UNL     1      -1.958  11.843  18.302  0.00  0.00    +0.000 C 
ENDROOT
BRANCH  15  18
ATOM     18  N   UNL     1       1.550  13.306  17.879  0.00  0.00    +0.000 N 
ATOM     19  C   UNL     1       2.246  14.373  18.404  0.00  0.00    +0.000 C 
ATOM     20  O   UNL     1       1.986  14.887  19.483  0.00  0.00    +0.000 OA
ATOM     21  H   UNL     1       1.903  12.946  16.995  0.00  0.00    +0.000 HD
BRANCH  19  22
ATOM     22  C   UNL     1       3.362  14.874  17.463  0.00  0.00    +0.000 C 
ATOM     23  C   UNL     1       3.434  16.394  17.480  0.00  0.00    +0.000 C 
BRANCH  22  24
ATOM     24  N   UNL     1       4.659  14.275  17.866  0.00  0.00    +0.000 NA
ATOM     25  H   UNL     1       5.395  14.694  17.293  0.00  0.00    +0.000 HD
ATOM     26  H   UNL     1       4.653  13.289  17.600  0.00  0.00    +0.000 HD
ENDBRANCH  22  24
ENDBRANCH  19  22
ENDBRANCH  15  18
BRANCH   1  28
ATOM     27  C   UNL     1      -5.497  13.386  21.956  0.00  0.00    +0.000 C 
ATOM     28  O   UNL     1      -4.176  13.883  22.166  0.00  0.00    +0.000 OA
ENDBRANCH   1  28
BRANCH   5  29
ATOM     29  O   UNL     1      -0.361  11.145  23.019  0.00  0.00    +0.000 OA
ATOM     30  C   UNL     1      -0.639   9.825  23.472  0.00  0.00    +0.000 C 
ENDBRANCH   5  29
BRANCH   6  31
ATOM     31  O   UNL     1      -2.435  12.959  23.861  0.00  0.00    +0.000 OA
ATOM     32  C   UNL     1      -1.856  14.150  24.369  0.00  0.00    +0.000 C 
ENDBRANCH   6  31
BRANCH  10  33
ATOM     33  S   UNL     1       2.884   6.666  19.413  0.00  0.00    +0.000 S 
ATOM     34  C   UNL     1       2.116   5.576  18.190  0.00  0.00    +0.000 C 
ENDBRANCH  10  33
TORSDOF 7
ENDMDL
MODEL 6
REMARK VINA RESULT:      -5.6      3.341      5.509
REMARK  Name = 
REMARK  12 active torsions:
REMARK  status: ('A' for Active; 'I' for Inactive)
REMARK    1  A    between atoms: C_1  and  O_2
REMARK    2  A    between atoms: O_2  and  C_3
REMARK    3  A    between atoms: C_7  and  O_8
REMARK    4  A    between atoms: O_8  and  C_9
REMARK    5  A    between atoms: C_10  and  O_11
REMARK    6  A    between atoms: O_11  and  C_12
REMARK    7  A    between atoms: C_16  and  S_17
REMARK    8  A    between atoms: S_17  and  C_18
REMARK    9  A    between atoms: C_23  and  N_24
REMARK   10  A    between atoms: C_25  and  C_27
REMARK   11  A    between atoms: C_27  and  C_28
REMARK   12  A    between atoms: C_27  and  N_29
REMARK                            x       y       z     vdW  Elec       q    Type
REMARK                         _______ _______ _______ _____ _____    ______ ____
ROOT
ATOM      1  C   UNL     1       1.504   9.011  19.514  0.00  0.00    +0.000 A 
ATOM      2  C   UNL     1       1.246  10.230  18.895  0.00  0.00    +0.000 A 
ATOM      3  C   UNL     1       0.416  11.172  19.497  0.00  0.00    +0.000 A 
ATOM      4  C   UNL     1      -0.203  10.893  20.745  0.00  0.00    +0.000 A 
ATOM      5  C   UNL     1       0.019   9.627  21.366  0.00  0.00    +0.000 A 
ATOM      6  C   UNL     1       0.876   8.683  20.739  0.00  0.00    +0.000 A 
ATOM      7  C   UNL     1      -1.112  11.971  21.286  0.00  0.00    +0.000 A 
ATOM      8  C   UNL     1      -0.723  12.457  22.476  0.00  0.00    +0.000 A 
ATOM      9  C   UNL     1      -1.406  13.325  23.398  0.00  0.00    +0.000 A 
ATOM     10  C   UNL     1      -2.458  14.145  23.246  0.00  0.00    +0.000 A 
ATOM     11  C   UNL     1      -3.149  14.406  21.949  0.00  0.00    +0.000 A 
ATOM     12  O   UNL     1      -3.837  15.419  21.783  0.00  0.00    +0.000 OA
ATOM     13  C   UNL     1      -3.069  13.482  20.807  0.00  0.00    +0.000 A 
ATOM     14  C   UNL     1      -2.256  12.457  20.484  0.00  0.00    +0.000 A 
ATOM     15  C   UNL     1      -2.359  11.810  19.081  0.00  0.00    +0.000 C 
ATOM     16  C   UNL     1      -1.290  12.393  18.133  0.00  0.00    +0.000 C 
ATOM     17  C   UNL     1       0.118  12.441  18.732  0.00  0.00    +0.000 C 
ENDROOT
BRANCH  15  18
ATOM     18  N   UNL     1      -3.669  11.972  18.477  0.00  0.00    +0.000 N 
ATOM     19  C   UNL     1      -4.334  10.948  17.838  0.00  0.00    +0.000 C 
ATOM     20  O   UNL     1      -3.858   9.835  17.665  0.00  0.00    +0.000 OA
ATOM     21  H   UNL     1      -4.201  12.832  18.596  0.00  0.00    +0.000 HD
BRANCH  19  22
ATOM     22  C   UNL     1      -5.728  11.373  17.331  0.00  0.00    +0.000 C 
ATOM     23  C   UNL     1      -6.804  10.991  18.338  0.00  0.00    +0.000 C 
BRANCH  22  24
ATOM     24  N   UNL     1      -5.740  12.834  17.068  0.00  0.00    +0.000 NA
ATOM     25  H   UNL     1      -5.835  13.318  17.964  0.00  0.00    +0.000 HD
ATOM     26  H   UNL     1      -6.595  13.061  16.557  0.00  0.00    +0.000 HD
ENDBRANCH  22  24
ENDBRANCH  19  22
ENDBRANCH  15  18
BRANCH   1  28
ATOM     27  C   UNL     1       2.648   8.310  17.565  0.00  0.00    +0.000 C 
ATOM     28  O   UNL     1       2.341   8.079  18.940  0.00  0.00    +0.000 OA
ENDBRANCH   1  28
BRANCH   5  29
ATOM     29  O   UNL     1      -0.439   9.303  22.621  0.00  0.00    +0.000 OA
ATOM     30  C   UNL     1       0.424   9.414  23.747  0.00  0.00    +0.000 C 
ENDBRANCH   5  29
BRANCH   6  31
ATOM     31  O   UNL     1       1.205   7.422  21.184  0.00  0.00    +0.000 OA
ATOM     32  C   UNL     1       0.785   6.272  20.471  0.00  0.00    +0.000 C 
ENDBRANCH   6  31
BRANCH  10  33
ATOM     33  S   UNL     1      -2.965  15.052  24.661  0.00  0.00    +0.000 S 
ATOM     34  C   UNL     1      -1.419  15.434  25.519  0.00  0.00    +0.000 C 
ENDBRANCH  10  33
TORSDOF 7
ENDMDL
MODEL 7
REMARK VINA RESULT:      -5.5      7.796     10.705
REMARK  Name = 
REMARK  12 active torsions:
REMARK  status: ('A' for Active; 'I' for Inactive)
REMARK    1  A    between atoms: C_1  and  O_2
REMARK    2  A    between atoms: O_2  and  C_3
REMARK    3  A    between atoms: C_7  and  O_8
REMARK    4  A    between atoms: O_8  and  C_9
REMARK    5  A    between atoms: C_10  and  O_11
REMARK    6  A    between atoms: O_11  and  C_12
REMARK    7  A    between atoms: C_16  and  S_17
REMARK    8  A    between atoms: S_17  and  C_18
REMARK    9  A    between atoms: C_23  and  N_24
REMARK   10  A    between atoms: C_25  and  C_27
REMARK   11  A    between atoms: C_27  and  C_28
REMARK   12  A    between atoms: C_27  and  N_29
REMARK                            x       y       z     vdW  Elec       q    Type
REMARK                         _______ _______ _______ _____ _____    ______ ____
ROOT
ATOM      1  C   UNL     1      10.529  15.874  18.333  0.00  0.00    +0.000 A 
ATOM      2  C   UNL     1       9.580  16.699  18.927  0.00  0.00    +0.000 A 
ATOM      3  C   UNL     1       8.832  16.254  20.014  0.00  0.00    +0.000 A 
ATOM      4  C   UNL     1       9.009  14.938  20.519  0.00  0.00    +0.000 A 
ATOM      5  C   UNL     1       9.948  14.069  19.888  0.00  0.00    +0.000 A 
ATOM      6  C   UNL     1      10.706  14.545  18.785  0.00  0.00    +0.000 A 
ATOM      7  C   UNL     1       8.118  14.551  21.676  0.00  0.00    +0.000 A 
ATOM      8  C   UNL     1       8.792  14.227  22.791  0.00  0.00    +0.000 A 
ATOM      9  C   UNL     1       8.337  13.624  24.016  0.00  0.00    +0.000 A 
ATOM     10  C   UNL     1       7.111  13.486  24.546  0.00  0.00    +0.000 A 
ATOM     11  C   UNL     1       5.863  14.052  23.954  0.00  0.00    +0.000 A 
ATOM     12  O   UNL     1       4.852  14.229  24.641  0.00  0.00    +0.000 OA
ATOM     13  C   UNL     1       5.753  14.417  22.533  0.00  0.00    +0.000 A 
ATOM     14  C   UNL     1       6.646  14.629  21.546  0.00  0.00    +0.000 A 
ATOM     15  C   UNL     1       6.165  15.186  20.184  0.00  0.00    +0.000 C 
ATOM     16  C   UNL     1       6.374  16.714  20.116  0.00  0.00    +0.000 C 
ATOM     17  C   UNL     1       7.765  17.175  20.560  0.00  0.00    +0.000 C 
ENDROOT
BRANCH  15  18
ATOM     18  N   UNL     1       4.772  14.885  19.908  0.00  0.00    +0.000 N 
ATOM     19  C   UNL     1       4.278  14.714  18.633  0.00  0.00    +0.000 C 
ATOM     20  O   UNL     1       4.948  14.864  17.621  0.00  0.00    +0.000 OA
ATOM     21  H   UNL     1       4.119  14.679  20.661  0.00  0.00    +0.000 HD
BRANCH  19  22
ATOM     22  C   UNL     1       2.778  14.352  18.622  0.00  0.00    +0.000 C 
ATOM     23  C   UNL     1       2.572  12.941  18.091  0.00  0.00    +0.000 C 
BRANCH  22  24
ATOM     24  N   UNL     1       2.222  14.492  19.991  0.00  0.00    +0.000 NA
ATOM     25  H   UNL     1       2.031  15.482  20.159  0.00  0.00    +0.000 HD
ATOM     26  H   UNL     1       2.954  14.251  20.661  0.00  0.00    +0.000 HD
ENDBRANCH  22  24
ENDBRANCH  19  22
ENDBRANCH  15  18
BRANCH   1  28
ATOM     27  C   UNL     1      12.129  17.431  17.550  0.00  0.00    +0.000 C 
ATOM     28  O   UNL     1      11.292  16.309  17.270  0.00  0.00    +0.000 OA
ENDBRANCH   1  28
BRANCH   5  29
ATOM     29  O   UNL     1      10.274  12.822  20.366  0.00  0.00    +0.000 OA
ATOM     30  C   UNL     1       9.505  11.687  19.983  0.00  0.00    +0.000 C 
ENDBRANCH   5  29
BRANCH   6  31
ATOM     31  O   UNL     1      11.649  13.856  18.055  0.00  0.00    +0.000 OA
ATOM     32  C   UNL     1      11.257  12.982  17.010  0.00  0.00    +0.000 C 
ENDBRANCH   6  31
BRANCH  10  33
ATOM     33  S   UNL     1       7.009  12.683  26.103  0.00  0.00    +0.000 S 
ATOM     34  C   UNL     1       6.083  11.167  25.759  0.00  0.00    +0.000 C 
ENDBRANCH  10  33
TORSDOF 7
ENDMDL
MODEL 8
REMARK VINA RESULT:      -5.4      8.324     11.158
REMARK  Name = 
REMARK  12 active torsions:
REMARK  status: ('A' for Active; 'I' for Inactive)
REMARK    1  A    between atoms: C_1  and  O_2
REMARK    2  A    between atoms: O_2  and  C_3
REMARK    3  A    between atoms: C_7  and  O_8
REMARK    4  A    between atoms: O_8  and  C_9
REMARK    5  A    between atoms: C_10  and  O_11
REMARK    6  A    between atoms: O_11  and  C_12
REMARK    7  A    between atoms: C_16  and  S_17
REMARK    8  A    between atoms: S_17  and  C_18
REMARK    9  A    between atoms: C_23  and  N_24
REMARK   10  A    between atoms: C_25  and  C_27
REMARK   11  A    between atoms: C_27  and  C_28
REMARK   12  A    between atoms: C_27  and  N_29
REMARK                            x       y       z     vdW  Elec       q    Type
REMARK                         _______ _______ _______ _____ _____    ______ ____
ROOT
ATOM      1  C   UNL     1      11.293  15.883  18.364  0.00  0.00    +0.000 A 
ATOM      2  C   UNL     1      10.467  16.686  19.143  0.00  0.00    +0.000 A 
ATOM      3  C   UNL     1       9.608  16.124  20.083  0.00  0.00    +0.000 A 
ATOM      4  C   UNL     1       9.541  14.714  20.243  0.00  0.00    +0.000 A 
ATOM      5  C   UNL     1      10.350  13.878  19.416  0.00  0.00    +0.000 A 
ATOM      6  C   UNL     1      11.226  14.474  18.469  0.00  0.00    +0.000 A 
ATOM      7  C   UNL     1       8.546  14.213  21.263  0.00  0.00    +0.000 A 
ATOM      8  C   UNL     1       9.106  13.514  22.264  0.00  0.00    +0.000 A 
ATOM      9  C   UNL     1       8.503  12.715  23.298  0.00  0.00    +0.000 A 
ATOM     10  C   UNL     1       7.248  12.664  23.773  0.00  0.00    +0.000 A 
ATOM     11  C   UNL     1       6.139  13.564  23.339  0.00  0.00    +0.000 A 
ATOM     12  O   UNL     1       5.141  13.738  24.046  0.00  0.00    +0.000 OA
ATOM     13  C   UNL     1       6.155  14.281  22.053  0.00  0.00    +0.000 A 
ATOM     14  C   UNL     1       7.115  14.573  21.154  0.00  0.00    +0.000 A 
ATOM     15  C   UNL     1       6.796  15.522  19.973  0.00  0.00    +0.000 C 
ATOM     16  C   UNL     1       7.258  16.960  20.290  0.00  0.00    +0.000 C 
ATOM     17  C   UNL     1       8.684  17.051  20.839  0.00  0.00    +0.000 C 
ENDROOT
BRANCH  15  18
ATOM     18  N   UNL     1       5.386  15.542  19.627  0.00  0.00    +0.000 N 
ATOM     19  C   UNL     1       4.919  15.262  18.361  0.00  0.00    +0.000 C 
ATOM     20  O   UNL     1       5.646  15.038  17.404  0.00  0.00    +0.000 OA
ATOM     21  H   UNL     1       4.670  15.660  20.341  0.00  0.00    +0.000 HD
BRANCH  19  22
ATOM     22  C   UNL     1       3.379  15.303  18.276  0.00  0.00    +0.000 C 
ATOM     23  C   UNL     1       2.770  15.472  19.661  0.00  0.00    +0.000 C 
BRANCH  22  24
ATOM     24  N   UNL     1       2.959  16.404  17.373  0.00  0.00    +0.000 NA
ATOM     25  H   UNL     1       2.289  16.026  16.699  0.00  0.00    +0.000 HD
ATOM     26  H   UNL     1       3.765  16.682  16.810  0.00  0.00    +0.000 HD
ENDBRANCH  22  24
ENDBRANCH  19  22
ENDBRANCH  15  18
BRANCH   1  28
ATOM     27  C   UNL     1      12.333  17.842  17.541  0.00  0.00    +0.000 C 
ATOM     28  O   UNL     1      12.165  16.428  17.446  0.00  0.00    +0.000 OA
ENDBRANCH   1  28
BRANCH   5  29
ATOM     29  O   UNL     1      10.443  12.515  19.567  0.00  0.00    +0.000 OA
ATOM     30  C   UNL     1      11.646  11.932  20.054  0.00  0.00    +0.000 C 
ENDBRANCH   5  29
BRANCH   6  31
ATOM     31  O   UNL     1      12.074  13.834  17.592  0.00  0.00    +0.000 OA
ATOM     32  C   UNL     1      11.557  13.053  16.528  0.00  0.00    +0.000 C 
ENDBRANCH   6  31
BRANCH  10  33
ATOM     33  S   UNL     1       6.943  11.532  25.079  0.00  0.00    +0.000 S 
ATOM     34  C   UNL     1       7.004  12.551  26.572  0.00  0.00    +0.000 C 
ENDBRANCH  10  33
TORSDOF 7
ENDMDL
MODEL 9
REMARK VINA RESULT:      -5.4      2.342      3.217
REMARK  Name = 
REMARK  12 active torsions:
REMARK  status: ('A' for Active; 'I' for Inactive)
REMARK    1  A    between atoms: C_1  and  O_2
REMARK    2  A    between atoms: O_2  and  C_3
REMARK    3  A    between atoms: C_7  and  O_8
REMARK    4  A    between atoms: O_8  and  C_9
REMARK    5  A    between atoms: C_10  and  O_11
REMARK    6  A    between atoms: O_11  and  C_12
REMARK    7  A    between atoms: C_16  and  S_17
REMARK    8  A    between atoms: S_17  and  C_18
REMARK    9  A    between atoms: C_23  and  N_24
REMARK   10  A    between atoms: C_25  and  C_27
REMARK   11  A    between atoms: C_27  and  C_28
REMARK   12  A    between atoms: C_27  and  N_29
REMARK                            x       y       z     vdW  Elec       q    Type
REMARK                         _______ _______ _______ _____ _____    ______ ____
ROOT
ATOM      1  C   UNL     1      -0.855  10.433  18.445  0.00  0.00    +0.000 A 
ATOM      2  C   UNL     1      -0.393  11.011  19.622  0.00  0.00    +0.000 A 
ATOM      3  C   UNL     1      -1.195  11.890  20.345  0.00  0.00    +0.000 A 
ATOM      4  C   UNL     1      -2.493  12.231  19.878  0.00  0.00    +0.000 A 
ATOM      5  C   UNL     1      -2.958  11.678  18.647  0.00  0.00    +0.000 A 
ATOM      6  C   UNL     1      -2.127  10.777  17.929  0.00  0.00    +0.000 A 
ATOM      7  C   UNL     1      -3.258  13.222  20.722  0.00  0.00    +0.000 A 
ATOM      8  C   UNL     1      -4.414  12.739  21.206  0.00  0.00    +0.000 A 
ATOM      9  C   UNL     1      -5.503  13.409  21.867  0.00  0.00    +0.000 A 
ATOM     10  C   UNL     1      -5.585  14.605  22.470  0.00  0.00    +0.000 A 
ATOM     11  C   UNL     1      -4.436  15.538  22.665  0.00  0.00    +0.000 A 
ATOM     12  O   UNL     1      -4.466  16.420  23.530  0.00  0.00    +0.000 OA
ATOM     13  C   UNL     1      -3.216  15.478  21.843  0.00  0.00    +0.000 A 
ATOM     14  C   UNL     1      -2.685  14.553  21.019  0.00  0.00    +0.000 A 
ATOM     15  C   UNL     1      -1.261  14.766  20.446  0.00  0.00    +0.000 C 
ATOM     16  C   UNL     1      -0.218  13.995  21.283  0.00  0.00    +0.000 C 
ATOM     17  C   UNL     1      -0.599  12.541  21.573  0.00  0.00    +0.000 C 
ENDROOT
BRANCH  15  18
ATOM     18  N   UNL     1      -0.879  16.164  20.382  0.00  0.00    +0.000 N 
ATOM     19  C   UNL     1      -0.071  16.677  19.391  0.00  0.00    +0.000 C 
ATOM     20  O   UNL     1       0.449  15.995  18.519  0.00  0.00    +0.000 OA
ATOM     21  H   UNL     1      -1.286  16.851  21.014  0.00  0.00    +0.000 HD
BRANCH  19  22
ATOM     22  C   UNL     1       0.140  18.200  19.526  0.00  0.00    +0.000 C 
ATOM     23  C   UNL     1       0.058  18.624  20.986  0.00  0.00    +0.000 C 
BRANCH  22  24
ATOM     24  N   UNL     1       1.448  18.577  18.936  0.00  0.00    +0.000 NA
ATOM     25  H   UNL     1       1.352  18.574  17.918  0.00  0.00    +0.000 HD
ATOM     26  H   UNL     1       2.117  17.831  19.136  0.00  0.00    +0.000 HD
ENDBRANCH  22  24
ENDBRANCH  19  22
ENDBRANCH  15  18
BRANCH   1  28
ATOM     27  C   UNL     1       1.322   9.635  17.977  0.00  0.00    +0.000 C 
ATOM     28  O   UNL     1      -0.081   9.544  17.731  0.00  0.00    +0.000 OA
ENDBRANCH   1  28
BRANCH   5  29
ATOM     29  O   UNL     1      -4.234  11.855  18.166  0.00  0.00    +0.000 OA
ATOM     30  C   UNL     1      -5.214  10.840  18.355  0.00  0.00    +0.000 C 
ENDBRANCH   5  29
BRANCH   6  31
ATOM     31  O   UNL     1      -2.404  10.152  16.734  0.00  0.00    +0.000 OA
ATOM     32  C   UNL     1      -2.740  10.907  15.583  0.00  0.00    +0.000 C 
ENDBRANCH   6  31
BRANCH  10  33
ATOM     33  S   UNL     1      -7.135  15.030  23.176  0.00  0.00    +0.000 S 
ATOM     34  C   UNL     1      -7.756  16.357  22.114  0.00  0.00    +0.000 C 
ENDBRANCH  10  33
TORSDOF 7
ENDMDL
