MODEL 1
REMARK VINA RESULT:      -6.5      0.000      0.000
REMARK  Name = 
REMARK  5 active torsions:
REMARK  status: ('A' for Active; 'I' for Inactive)
REMARK    1  A    between atoms: C_1  and  O_2
REMARK    2  A    between atoms: O_2  and  C_3
REMARK    3  A    between atoms: C_4  and  O_5
REMARK    4  A    between atoms: C_9  and  C_10
REMARK    5  A    between atoms: C_10  and  O_11
REMARK                            x       y       z     vdW  Elec       q    Type
REMARK                         _______ _______ _______ _____ _____    ______ ____
ROOT
ATOM      1  C   UNL     1       5.941   6.181  16.491  0.00  0.00    +0.000 A 
ATOM      2  C   UNL     1       6.558   5.193  15.719  0.00  0.00    +0.000 A 
ATOM      3  C   UNL     1       6.006   3.926  15.586  0.00  0.00    +0.000 A 
ATOM      4  C   UNL     1       4.812   3.619  16.248  0.00  0.00    +0.000 A 
ATOM      5  C   UNL     1       4.151   4.582  17.025  0.00  0.00    +0.000 A 
ATOM      6  C   UNL     1       2.906   4.305  17.769  0.00  0.00    +0.000 A 
ATOM      7  C   UNL     1       2.358   5.295  18.491  0.00  0.00    +0.000 A 
ATOM      8  C   UNL     1       2.910   6.652  18.557  0.00  0.00    +0.000 A 
ATOM      9  O   UNL     1       2.375   7.522  19.229  0.00  0.00    +0.000 OA
ATOM     10  O   UNL     1       4.053   6.881  17.821  0.00  0.00    +0.000 OA
ATOM     11  C   UNL     1       4.723   5.864  17.109  0.00  0.00    +0.000 A 
ENDROOT
BRANCH   1  13
ATOM     12  C   UNL     1       7.530   7.547  17.617  0.00  0.00    +0.000 C 
ATOM     13  O   UNL     1       6.615   7.375  16.536  0.00  0.00    +0.000 OA
ENDBRANCH   1  13
BRANCH   2  14
ATOM     14  O   UNL     1       7.746   5.447  15.087  0.00  0.00    +0.000 OA
ATOM     15  H   UNL     1       8.108   4.570  14.856  0.00  0.00    +0.000 HD
ENDBRANCH   2  14
BRANCH   6  16
ATOM     16  C   UNL     1       2.293   2.933  17.785  0.00  0.00    +0.000 C 
BRANCH  16  17
ATOM     17  O   UNL     1       0.923   3.004  18.151  0.00  0.00    +0.000 OA
ATOM     18  H   UNL     1       0.406   2.642  17.411  0.00  0.00    +0.000 HD
ENDBRANCH  16  17
ENDBRANCH   6  16
TORSDOF 4
ENDMDL
MODEL 2
REMARK VINA RESULT:      -6.4      2.330      5.108
REMARK  Name = 
REMARK  5 active torsions:
REMARK  status: ('A' for Active; 'I' for Inactive)
REMARK    1  A    between atoms: C_1  and  O_2
REMARK    2  A    between atoms: O_2  and  C_3
REMARK    3  A    between atoms: C_4  and  O_5
REMARK    4  A    between atoms: C_9  and  C_10
REMARK    5  A    between atoms: C_10  and  O_11
REMARK                            x       y       z     vdW  Elec       q    Type
REMARK                         _______ _______ _______ _____ _____    ______ ____
ROOT
ATOM      1  C   UNL     1       3.586   2.869  19.380  0.00  0.00    +0.000 A 
ATOM      2  C   UNL     1       2.570   2.422  18.533  0.00  0.00    +0.000 A 
ATOM      3  C   UNL     1       2.462   2.879  17.225  0.00  0.00    +0.000 A 
ATOM      4  C   UNL     1       3.381   3.817  16.742  0.00  0.00    +0.000 A 
ATOM      5  C   UNL     1       4.425   4.286  17.554  0.00  0.00    +0.000 A 
ATOM      6  C   UNL     1       5.404   5.298  17.108  0.00  0.00    +0.000 A 
ATOM      7  C   UNL     1       6.360   5.685  17.966  0.00  0.00    +0.000 A 
ATOM      8  C   UNL     1       6.509   5.135  19.317  0.00  0.00    +0.000 A 
ATOM      9  O   UNL     1       7.397   5.519  20.064  0.00  0.00    +0.000 OA
ATOM     10  O   UNL     1       5.598   4.167  19.684  0.00  0.00    +0.000 OA
ATOM     11  C   UNL     1       4.521   3.776  18.861  0.00  0.00    +0.000 A 
ENDROOT
BRANCH   1  13
ATOM     12  C   UNL     1       2.623   2.926  21.554  0.00  0.00    +0.000 C 
ATOM     13  O   UNL     1       3.551   2.337  20.645  0.00  0.00    +0.000 OA
ENDBRANCH   1  13
BRANCH   2  14
ATOM     14  O   UNL     1       1.632   1.532  18.982  0.00  0.00    +0.000 OA
ATOM     15  H   UNL     1       0.964   1.480  18.272  0.00  0.00    +0.000 HD
ENDBRANCH   2  14
BRANCH   6  16
ATOM     16  C   UNL     1       5.303   5.940  15.753  0.00  0.00    +0.000 C 
BRANCH  16  17
ATOM     17  O   UNL     1       6.517   5.783  15.035  0.00  0.00    +0.000 OA
ATOM     18  H   UNL     1       6.644   6.585  14.500  0.00  0.00    +0.000 HD
ENDBRANCH  16  17
ENDBRANCH   6  16
TORSDOF 4
ENDMDL
MODEL 3
REMARK VINA RESULT:      -6.4      2.497      3.454
REMARK  Name = 
REMARK  5 active torsions:
REMARK  status: ('A' for Active; 'I' for Inactive)
REMARK    1  A    between atoms: C_1  and  O_2
REMARK    2  A    between atoms: O_2  and  C_3
REMARK    3  A    between atoms: C_4  and  O_5
REMARK    4  A    between atoms: C_9  and  C_10
REMARK    5  A    between atoms: C_10  and  O_11
REMARK                            x       y       z     vdW  Elec       q    Type
REMARK                         _______ _______ _______ _____ _____    ______ ____
ROOT
ATOM      1  C   UNL     1       5.407   5.104  17.769  0.00  0.00    +0.000 A 
ATOM      2  C   UNL     1       4.863   6.271  17.230  0.00  0.00    +0.000 A 
ATOM      3  C   UNL     1       3.599   6.718  17.593  0.00  0.00    +0.000 A 
ATOM      4  C   UNL     1       2.843   5.981  18.511  0.00  0.00    +0.000 A 
ATOM      5  C   UNL     1       3.353   4.808  19.088  0.00  0.00    +0.000 A 
ATOM      6  C   UNL     1       2.589   3.975  20.038  0.00  0.00    +0.000 A 
ATOM      7  C   UNL     1       3.166   2.866  20.526  0.00  0.00    +0.000 A 
ATOM      8  C   UNL     1       4.533   2.450  20.193  0.00  0.00    +0.000 A 
ATOM      9  O   UNL     1       5.017   1.431  20.663  0.00  0.00    +0.000 OA
ATOM     10  O   UNL     1       5.226   3.272  19.332  0.00  0.00    +0.000 OA
ATOM     11  C   UNL     1       4.649   4.405  18.720  0.00  0.00    +0.000 A 
ENDROOT
BRANCH   1  13
ATOM     12  C   UNL     1       7.752   5.066  18.173  0.00  0.00    +0.000 C 
ATOM     13  O   UNL     1       6.658   4.786  17.301  0.00  0.00    +0.000 OA
ENDBRANCH   1  13
BRANCH   2  14
ATOM     14  O   UNL     1       5.560   6.997  16.302  0.00  0.00    +0.000 OA
ATOM     15  H   UNL     1       4.901   7.589  15.889  0.00  0.00    +0.000 HD
ENDBRANCH   2  14
BRANCH   6  16
ATOM     16  C   UNL     1       1.170   4.309  20.405  0.00  0.00    +0.000 C 
BRANCH  16  17
ATOM     17  O   UNL     1       0.363   3.141  20.386  0.00  0.00    +0.000 OA
ATOM     18  H   UNL     1       0.955   2.377  20.497  0.00  0.00    +0.000 HD
ENDBRANCH  16  17
ENDBRANCH   6  16
TORSDOF 4
ENDMDL
MODEL 4
REMARK VINA RESULT:      -6.3      2.352      2.900
REMARK  Name = 
REMARK  5 active torsions:
REMARK  status: ('A' for Active; 'I' for Inactive)
REMARK    1  A    between atoms: C_1  and  O_2
REMARK    2  A    between atoms: O_2  and  C_3
REMARK    3  A    between atoms: C_4  and  O_5
REMARK    4  A    between atoms: C_9  and  C_10
REMARK    5  A    between atoms: C_10  and  O_11
REMARK                            x       y       z     vdW  Elec       q    Type
REMARK                         _______ _______ _______ _____ _____    ______ ____
ROOT
ATOM      1  C   UNL     1       6.490   4.989  18.048  0.00  0.00    +0.000 A 
ATOM      2  C   UNL     1       6.322   5.927  17.027  0.00  0.00    +0.000 A 
ATOM      3  C   UNL     1       5.069   6.201  16.493  0.00  0.00    +0.000 A 
ATOM      4  C   UNL     1       3.947   5.519  16.976  0.00  0.00    +0.000 A 
ATOM      5  C   UNL     1       4.067   4.576  18.009  0.00  0.00    +0.000 A 
ATOM      6  C   UNL     1       2.924   3.805  18.537  0.00  0.00    +0.000 A 
ATOM      7  C   UNL     1       3.148   2.920  19.521  0.00  0.00    +0.000 A 
ATOM      8  C   UNL     1       4.464   2.699  20.128  0.00  0.00    +0.000 A 
ATOM      9  O   UNL     1       4.619   1.881  21.024  0.00  0.00    +0.000 OA
ATOM     10  O   UNL     1       5.498   3.463  19.633  0.00  0.00    +0.000 OA
ATOM     11  C   UNL     1       5.347   4.349  18.546  0.00  0.00    +0.000 A 
ENDROOT
BRANCH   1  13
ATOM     12  C   UNL     1       8.206   5.594  19.580  0.00  0.00    +0.000 C 
ATOM     13  O   UNL     1       7.789   4.818  18.458  0.00  0.00    +0.000 OA
ENDBRANCH   1  13
BRANCH   2  14
ATOM     14  O   UNL     1       7.401   6.587  16.505  0.00  0.00    +0.000 OA
ATOM     15  H   UNL     1       8.121   6.457  17.152  0.00  0.00    +0.000 HD
ENDBRANCH   2  14
BRANCH   6  16
ATOM     16  C   UNL     1       1.548   3.943  17.947  0.00  0.00    +0.000 C 
BRANCH  16  17
ATOM     17  O   UNL     1       0.797   2.756  18.151  0.00  0.00    +0.000 OA
ATOM     18  H   UNL     1       1.370   2.127  18.622  0.00  0.00    +0.000 HD
ENDBRANCH  16  17
ENDBRANCH   6  16
TORSDOF 4
ENDMDL
MODEL 5
REMARK VINA RESULT:      -6.2      1.366      3.259
REMARK  Name = 
REMARK  5 active torsions:
REMARK  status: ('A' for Active; 'I' for Inactive)
REMARK    1  A    between atoms: C_1  and  O_2
REMARK    2  A    between atoms: O_2  and  C_3
REMARK    3  A    between atoms: C_4  and  O_5
REMARK    4  A    between atoms: C_9  and  C_10
REMARK    5  A    between atoms: C_10  and  O_11
REMARK                            x       y       z     vdW  Elec       q    Type
REMARK                         _______ _______ _______ _____ _____    ______ ____
ROOT
ATOM      1  C   UNL     1       5.702   4.652  16.097  0.00  0.00    +0.000 A 
ATOM      2  C   UNL     1       6.553   5.757  16.159  0.00  0.00    +0.000 A 
ATOM      3  C   UNL     1       6.256   6.858  16.951  0.00  0.00    +0.000 A 
ATOM      4  C   UNL     1       5.073   6.874  17.698  0.00  0.00    +0.000 A 
ATOM      5  C   UNL     1       4.193   5.781  17.675  0.00  0.00    +0.000 A 
ATOM      6  C   UNL     1       2.917   5.756  18.418  0.00  0.00    +0.000 A 
ATOM      7  C   UNL     1       2.142   4.664  18.322  0.00  0.00    +0.000 A 
ATOM      8  C   UNL     1       2.508   3.476  17.544  0.00  0.00    +0.000 A 
ATOM      9  O   UNL     1       1.768   2.504  17.487  0.00  0.00    +0.000 OA
ATOM     10  O   UNL     1       3.722   3.524  16.894  0.00  0.00    +0.000 OA
ATOM     11  C   UNL     1       4.544   4.671  16.887  0.00  0.00    +0.000 A 
ENDROOT
BRANCH   1  13
ATOM     12  C   UNL     1       5.801   3.799  13.878  0.00  0.00    +0.000 C 
ATOM     13  O   UNL     1       6.125   3.650  15.260  0.00  0.00    +0.000 OA
ENDBRANCH   1  13
BRANCH   2  14
ATOM     14  O   UNL     1       7.701   5.792  15.414  0.00  0.00    +0.000 OA
ATOM     15  H   UNL     1       8.210   5.004  15.687  0.00  0.00    +0.000 HD
ENDBRANCH   2  14
BRANCH   6  16
ATOM     16  C   UNL     1       2.449   6.944  19.210  0.00  0.00    +0.000 C 
BRANCH  16  17
ATOM     17  O   UNL     1       2.164   6.569  20.549  0.00  0.00    +0.000 OA
ATOM     18  H   UNL     1       2.944   6.792  21.086  0.00  0.00    +0.000 HD
ENDBRANCH  16  17
ENDBRANCH   6  16
TORSDOF 4
ENDMDL
MODEL 6
REMARK VINA RESULT:      -6.2      1.564      4.721
REMARK  Name = 
REMARK  5 active torsions:
REMARK  status: ('A' for Active; 'I' for Inactive)
REMARK    1  A    between atoms: C_1  and  O_2
REMARK    2  A    between atoms: O_2  and  C_3
REMARK    3  A    between atoms: C_4  and  O_5
REMARK    4  A    between atoms: C_9  and  C_10
REMARK    5  A    between atoms: C_10  and  O_11
REMARK                            x       y       z     vdW  Elec       q    Type
REMARK                         _______ _______ _______ _____ _____    ______ ____
ROOT
ATOM      1  C   UNL     1       2.060   3.653  18.861  0.00  0.00    +0.000 A 
ATOM      2  C   UNL     1       2.629   2.481  18.358  0.00  0.00    +0.000 A 
ATOM      3  C   UNL     1       3.703   2.515  17.478  0.00  0.00    +0.000 A 
ATOM      4  C   UNL     1       4.225   3.748  17.071  0.00  0.00    +0.000 A 
ATOM      5  C   UNL     1       3.692   4.951  17.559  0.00  0.00    +0.000 A 
ATOM      6  C   UNL     1       4.182   6.280  17.141  0.00  0.00    +0.000 A 
ATOM      7  C   UNL     1       3.598   7.371  17.661  0.00  0.00    +0.000 A 
ATOM      8  C   UNL     1       2.517   7.317  18.651  0.00  0.00    +0.000 A 
ATOM      9  O   UNL     1       2.015   8.339  19.097  0.00  0.00    +0.000 OA
ATOM     10  O   UNL     1       2.112   6.059  19.042  0.00  0.00    +0.000 OA
ATOM     11  C   UNL     1       2.627   4.875  18.473  0.00  0.00    +0.000 A 
ENDROOT
BRANCH   1  13
ATOM     12  C   UNL     1       1.301   3.383  21.100  0.00  0.00    +0.000 C 
ATOM     13  O   UNL     1       0.998   3.455  19.708  0.00  0.00    +0.000 OA
ENDBRANCH   1  13
BRANCH   2  14
ATOM     14  O   UNL     1       2.122   1.258  18.706  0.00  0.00    +0.000 OA
ATOM     15  H   UNL     1       1.253   1.445  19.113  0.00  0.00    +0.000 HD
ENDBRANCH   2  14
BRANCH   6  16
ATOM     16  C   UNL     1       5.261   6.426  16.105  0.00  0.00    +0.000 C 
BRANCH  16  17
ATOM     17  O   UNL     1       6.393   7.083  16.653  0.00  0.00    +0.000 OA
ATOM     18  H   UNL     1       6.850   6.444  17.228  0.00  0.00    +0.000 HD
ENDBRANCH  16  17
ENDBRANCH   6  16
TORSDOF 4
ENDMDL
MODEL 7
REMARK VINA RESULT:      -6.1      2.073      2.617
REMARK  Name = 
REMARK  5 active torsions:
REMARK  status: ('A' for Active; 'I' for Inactive)
REMARK    1  A    between atoms: C_1  and  O_2
REMARK    2  A    between atoms: O_2  and  C_3
REMARK    3  A    between atoms: C_4  and  O_5
REMARK    4  A    between atoms: C_9  and  C_10
REMARK    5  A    between atoms: C_10  and  O_11
REMARK                            x       y       z     vdW  Elec       q    Type
REMARK                         _______ _______ _______ _____ _____    ______ ____
ROOT
ATOM      1  C   UNL     1       4.306   5.036  17.416  0.00  0.00    +0.000 A 
ATOM      2  C   UNL     1       4.643   3.732  17.045  0.00  0.00    +0.000 A 
ATOM      3  C   UNL     1       4.122   2.631  17.711  0.00  0.00    +0.000 A 
ATOM      4  C   UNL     1       3.248   2.823  18.787  0.00  0.00    +0.000 A 
ATOM      5  C   UNL     1       2.873   4.115  19.188  0.00  0.00    +0.000 A 
ATOM      6  C   UNL     1       1.980   4.378  20.335  0.00  0.00    +0.000 A 
ATOM      7  C   UNL     1       1.690   5.652  20.641  0.00  0.00    +0.000 A 
ATOM      8  C   UNL     1       2.185   6.802  19.878  0.00  0.00    +0.000 A 
ATOM      9  O   UNL     1       1.893   7.946  20.196  0.00  0.00    +0.000 OA
ATOM     10  O   UNL     1       2.986   6.514  18.794  0.00  0.00    +0.000 OA
ATOM     11  C   UNL     1       3.396   5.204  18.469  0.00  0.00    +0.000 A 
ENDROOT
BRANCH   1  13
ATOM     12  C   UNL     1       6.051   6.646  17.260  0.00  0.00    +0.000 C 
ATOM     13  O   UNL     1       4.913   6.017  16.672  0.00  0.00    +0.000 OA
ENDBRANCH   1  13
BRANCH   2  14
ATOM     14  O   UNL     1       5.522   3.508  16.020  0.00  0.00    +0.000 OA
ATOM     15  H   UNL     1       5.420   4.271  15.419  0.00  0.00    +0.000 HD
ENDBRANCH   2  14
BRANCH   6  16
ATOM     16  C   UNL     1       1.458   3.259  21.192  0.00  0.00    +0.000 C 
BRANCH  16  17
ATOM     17  O   UNL     1       2.356   2.986  22.257  0.00  0.00    +0.000 OA
ATOM     18  H   UNL     1       3.217   3.369  22.016  0.00  0.00    +0.000 HD
ENDBRANCH  16  17
ENDBRANCH   6  16
TORSDOF 4
ENDMDL
MODEL 8
REMARK VINA RESULT:      -6.1      2.358      5.153
REMARK  Name = 
REMARK  5 active torsions:
REMARK  status: ('A' for Active; 'I' for Inactive)
REMARK    1  A    between atoms: C_1  and  O_2
REMARK    2  A    between atoms: O_2  and  C_3
REMARK    3  A    between atoms: C_4  and  O_5
REMARK    4  A    between atoms: C_9  and  C_10
REMARK    5  A    between atoms: C_10  and  O_11
REMARK                            x       y       z     vdW  Elec       q    Type
REMARK                         _______ _______ _______ _____ _____    ______ ____
ROOT
ATOM      1  C   UNL     1       2.613   4.106  19.860  0.00  0.00    +0.000 A 
ATOM      2  C   UNL     1       1.504   3.640  19.149  0.00  0.00    +0.000 A 
ATOM      3  C   UNL     1       1.559   3.425  17.778  0.00  0.00    +0.000 A 
ATOM      4  C   UNL     1       2.744   3.691  17.083  0.00  0.00    +0.000 A 
ATOM      5  C   UNL     1       3.886   4.150  17.757  0.00  0.00    +0.000 A 
ATOM      6  C   UNL     1       5.153   4.476  17.071  0.00  0.00    +0.000 A 
ATOM      7  C   UNL     1       6.185   4.916  17.808  0.00  0.00    +0.000 A 
ATOM      8  C   UNL     1       6.136   5.062  19.266  0.00  0.00    +0.000 A 
ATOM      9  O   UNL     1       7.103   5.467  19.895  0.00  0.00    +0.000 OA
ATOM     10  O   UNL     1       4.949   4.714  19.873  0.00  0.00    +0.000 OA
ATOM     11  C   UNL     1       3.802   4.324  19.150  0.00  0.00    +0.000 A 
ENDROOT
BRANCH   1  13
ATOM     12  C   UNL     1       2.295   3.096  21.990  0.00  0.00    +0.000 C 
ATOM     13  O   UNL     1       2.398   4.281  21.204  0.00  0.00    +0.000 OA
ENDBRANCH   1  13
BRANCH   2  14
ATOM     14  O   UNL     1       0.318   3.403  19.790  0.00  0.00    +0.000 OA
ATOM     15  H   UNL     1      -0.366   3.457  19.096  0.00  0.00    +0.000 HD
ENDBRANCH   2  14
BRANCH   6  16
ATOM     16  C   UNL     1       5.277   4.390  15.576  0.00  0.00    +0.000 C 
BRANCH  16  17
ATOM     17  O   UNL     1       6.199   3.374  15.211  0.00  0.00    +0.000 OA
ATOM     18  H   UNL     1       6.531   2.973  16.033  0.00  0.00    +0.000 HD
ENDBRANCH  16  17
ENDBRANCH   6  16
TORSDOF 4
ENDMDL
MODEL 9
REMARK VINA RESULT:      -6.1      2.276      5.309
REMARK  Name = 
REMARK  5 active torsions:
REMARK  status: ('A' for Active; 'I' for Inactive)
REMARK    1  A    between atoms: C_1  and  O_2
REMARK    2  A    between atoms: O_2  and  C_3
REMARK    3  A    between atoms: C_4  and  O_5
REMARK    4  A    between atoms: C_9  and  C_10
REMARK    5  A    between atoms: C_10  and  O_11
REMARK                            x       y       z     vdW  Elec       q    Type
REMARK                         _______ _______ _______ _____ _____    ______ ____
ROOT
ATOM      1  C   UNL     1       3.476   3.512  19.762  0.00  0.00    +0.000 A 
ATOM      2  C   UNL     1       2.603   3.557  20.851  0.00  0.00    +0.000 A 
ATOM      3  C   UNL     1       1.831   4.680  21.117  0.00  0.00    +0.000 A 
ATOM      4  C   UNL     1       1.932   5.801  20.285  0.00  0.00    +0.000 A 
ATOM      5  C   UNL     1       2.787   5.797  19.172  0.00  0.00    +0.000 A 
ATOM      6  C   UNL     1       2.956   6.960  18.278  0.00  0.00    +0.000 A 
ATOM      7  C   UNL     1       3.806   6.856  17.245  0.00  0.00    +0.000 A 
ATOM      8  C   UNL     1       4.555   5.635  16.932  0.00  0.00    +0.000 A 
ATOM      9  O   UNL     1       5.319   5.587  15.978  0.00  0.00    +0.000 OA
ATOM     10  O   UNL     1       4.343   4.559  17.768  0.00  0.00    +0.000 OA
ATOM     11  C   UNL     1       3.528   4.630  18.917  0.00  0.00    +0.000 A 
ENDROOT
BRANCH   1  13
ATOM     12  C   UNL     1       3.705   1.411  18.668  0.00  0.00    +0.000 C 
ATOM     13  O   UNL     1       4.180   2.340  19.641  0.00  0.00    +0.000 OA
ENDBRANCH   1  13
BRANCH   2  14
ATOM     14  O   UNL     1       2.506   2.493  21.707  0.00  0.00    +0.000 OA
ATOM     15  H   UNL     1       1.746   1.970  21.384  0.00  0.00    +0.000 HD
ENDBRANCH   2  14
BRANCH   6  16
ATOM     16  C   UNL     1       2.255   8.262  18.547  0.00  0.00    +0.000 C 
BRANCH  16  17
ATOM     17  O   UNL     1       2.192   9.047  17.367  0.00  0.00    +0.000 OA
ATOM     18  H   UNL     1       2.573   8.518  16.645  0.00  0.00    +0.000 HD
ENDBRANCH  16  17
ENDBRANCH   6  16
TORSDOF 4
ENDMDL
