MODEL 1
REMARK VINA RESULT:      -8.5      0.000      0.000
REMARK  Name = 
REMARK  7 active torsions:
REMARK  status: ('A' for Active; 'I' for Inactive)
REMARK    1  A    between atoms: C_1  and  C_2
REMARK    2  A    between atoms: C_2  and  C_3
REMARK    3  A    between atoms: C_3  and  C_4
REMARK    4  A    between atoms: C_13  and  O_14
REMARK    5  A    between atoms: O_14  and  C_15
REMARK    6  A    between atoms: C_15  and  C_16
REMARK    7  A    between atoms: C_16  and  O_18
REMARK                            x       y       z     vdW  Elec       q    Type
REMARK                         _______ _______ _______ _____ _____    ______ ____
ROOT
ATOM      1  C   UNL     1       6.131   5.162  16.036  0.00  0.00    +0.000 C 
ATOM      2  C   UNL     1       5.539   4.028  16.920  0.00  0.00    +0.000 C 
ATOM      3  C   UNL     1       4.605   4.738  17.844  0.00  0.00    +0.000 A 
ATOM      4  C   UNL     1       4.098   4.241  19.029  0.00  0.00    +0.000 A 
ATOM      5  C   UNL     1       3.255   5.043  19.802  0.00  0.00    +0.000 A 
ATOM      6  C   UNL     1       2.855   6.316  19.305  0.00  0.00    +0.000 A 
ATOM      7 CL   UNL     1       1.766   7.288  20.251  0.00  0.00    +0.000 Cl
ATOM      8  C   UNL     1       3.354   6.802  18.074  0.00  0.00    +0.000 A 
ATOM      9 CL   UNL     1       2.956   8.372  17.476  0.00  0.00    +0.000 Cl
ATOM     10  C   UNL     1       4.233   5.986  17.375  0.00  0.00    +0.000 A 
ATOM     11  C   UNL     1       5.021   6.230  16.152  0.00  0.00    +0.000 C 
ATOM     12  O   UNL     1       4.846   7.183  15.417  0.00  0.00    +0.000 OA
ENDROOT
BRANCH   1  13
ATOM     13  C   UNL     1       6.399   4.747  14.578  0.00  0.00    +0.000 A 
ATOM     14  C   UNL     1       5.631   3.790  13.891  0.00  0.00    +0.000 A 
ATOM     15  C   UNL     1       5.900   3.471  12.554  0.00  0.00    +0.000 A 
ATOM     16  C   UNL     1       6.966   4.066  11.888  0.00  0.00    +0.000 A 
ATOM     17  C   UNL     1       7.766   4.983  12.557  0.00  0.00    +0.000 A 
ATOM     18  C   UNL     1       7.480   5.321  13.880  0.00  0.00    +0.000 A 
ENDBRANCH   1  13
BRANCH   1  20
ATOM     19  C   UNL     1       7.341   7.071  17.425  0.00  0.00    +0.000 C 
ATOM     20  C   UNL     1       7.448   5.770  16.631  0.00  0.00    +0.000 C 
ENDBRANCH   1  20
BRANCH   5  21
ATOM     21  O   UNL     1       2.817   4.619  21.045  0.00  0.00    +0.000 OA
BRANCH  21  22
ATOM     22  C   UNL     1       2.722   3.188  21.185  0.00  0.00    +0.000 C 
BRANCH  22  23
ATOM     23  C   UNL     1       1.314   2.727  21.503  0.00  0.00    +0.000 C 
ATOM     24  O   UNL     1       0.995   2.192  22.563  0.00  0.00    +0.000 OA
BRANCH  23  25
ATOM     25  O   UNL     1       0.436   2.968  20.507  0.00  0.00    +0.000 OA
ATOM     26  H   UNL     1      -0.476   3.003  20.859  0.00  0.00    +0.000 HD
ENDBRANCH  23  25
ENDBRANCH  22  23
ENDBRANCH  21  22
ENDBRANCH   5  21
TORSDOF 6
ENDMDL
MODEL 2
REMARK VINA RESULT:      -8.5      0.650      1.222
REMARK  Name = 
REMARK  7 active torsions:
REMARK  status: ('A' for Active; 'I' for Inactive)
REMARK    1  A    between atoms: C_1  and  C_2
REMARK    2  A    between atoms: C_2  and  C_3
REMARK    3  A    between atoms: C_3  and  C_4
REMARK    4  A    between atoms: C_13  and  O_14
REMARK    5  A    between atoms: O_14  and  C_15
REMARK    6  A    between atoms: C_15  and  C_16
REMARK    7  A    between atoms: C_16  and  O_18
REMARK                            x       y       z     vdW  Elec       q    Type
REMARK                         _______ _______ _______ _____ _____    ______ ____
ROOT
ATOM      1  C   UNL     1       5.990   5.046  16.007  0.00  0.00    +0.000 C 
ATOM      2  C   UNL     1       5.220   3.987  16.846  0.00  0.00    +0.000 C 
ATOM      3  C   UNL     1       4.354   4.799  17.750  0.00  0.00    +0.000 A 
ATOM      4  C   UNL     1       3.741   4.355  18.906  0.00  0.00    +0.000 A 
ATOM      5  C   UNL     1       2.983   5.250  19.665  0.00  0.00    +0.000 A 
ATOM      6  C   UNL     1       2.774   6.572  19.182  0.00  0.00    +0.000 A 
ATOM      7 CL   UNL     1       1.789   7.665  20.109  0.00  0.00    +0.000 Cl
ATOM      8  C   UNL     1       3.380   7.007  17.979  0.00  0.00    +0.000 A 
ATOM      9 CL   UNL     1       3.216   8.626  17.401  0.00  0.00    +0.000 Cl
ATOM     10  C   UNL     1       4.168   6.093  17.295  0.00  0.00    +0.000 A 
ATOM     11  C   UNL     1       5.027   6.250  16.106  0.00  0.00    +0.000 C 
ATOM     12  O   UNL     1       5.008   7.229  15.385  0.00  0.00    +0.000 OA
ENDROOT
BRANCH   1  13
ATOM     13  C   UNL     1       6.255   4.623  14.550  0.00  0.00    +0.000 A 
ATOM     14  C   UNL     1       7.370   5.052  13.809  0.00  0.00    +0.000 A 
ATOM     15  C   UNL     1       7.579   4.612  12.495  0.00  0.00    +0.000 A 
ATOM     16  C   UNL     1       6.658   3.773  11.879  0.00  0.00    +0.000 A 
ATOM     17  C   UNL     1       5.526   3.369  12.575  0.00  0.00    +0.000 A 
ATOM     18  C   UNL     1       5.333   3.784  13.893  0.00  0.00    +0.000 A 
ENDBRANCH   1  13
BRANCH   1  20
ATOM     19  C   UNL     1       7.804   4.718  17.914  0.00  0.00    +0.000 C 
ATOM     20  C   UNL     1       7.352   5.464  16.660  0.00  0.00    +0.000 C 
ENDBRANCH   1  20
BRANCH   5  21
ATOM     21  O   UNL     1       2.447   4.867  20.883  0.00  0.00    +0.000 OA
BRANCH  21  22
ATOM     22  C   UNL     1       1.228   4.105  20.783  0.00  0.00    +0.000 C 
BRANCH  22  23
ATOM     23  C   UNL     1       1.424   2.645  21.137  0.00  0.00    +0.000 C 
ATOM     24  O   UNL     1       1.420   2.218  22.290  0.00  0.00    +0.000 OA
BRANCH  23  25
ATOM     25  O   UNL     1       1.598   1.853  20.059  0.00  0.00    +0.000 OA
ATOM     26  H   UNL     1       1.315   2.318  19.246  0.00  0.00    +0.000 HD
ENDBRANCH  23  25
ENDBRANCH  22  23
ENDBRANCH  21  22
ENDBRANCH   5  21
TORSDOF 6
ENDMDL
MODEL 3
REMARK VINA RESULT:      -8.5      0.604      1.221
REMARK  Name = 
REMARK  7 active torsions:
REMARK  status: ('A' for Active; 'I' for Inactive)
REMARK    1  A    between atoms: C_1  and  C_2
REMARK    2  A    between atoms: C_2  and  C_3
REMARK    3  A    between atoms: C_3  and  C_4
REMARK    4  A    between atoms: C_13  and  O_14
REMARK    5  A    between atoms: O_14  and  C_15
REMARK    6  A    between atoms: C_15  and  C_16
REMARK    7  A    between atoms: C_16  and  O_18
REMARK                            x       y       z     vdW  Elec       q    Type
REMARK                         _______ _______ _______ _____ _____    ______ ____
ROOT
ATOM      1  C   UNL     1       6.182   5.163  16.092  0.00  0.00    +0.000 C 
ATOM      2  C   UNL     1       5.619   3.989  16.943  0.00  0.00    +0.000 C 
ATOM      3  C   UNL     1       4.656   4.645  17.876  0.00  0.00    +0.000 A 
ATOM      4  C   UNL     1       4.156   4.102  19.044  0.00  0.00    +0.000 A 
ATOM      5  C   UNL     1       3.282   4.858  19.829  0.00  0.00    +0.000 A 
ATOM      6  C   UNL     1       2.846   6.130  19.362  0.00  0.00    +0.000 A 
ATOM      7 CL   UNL     1       1.720   7.043  20.322  0.00  0.00    +0.000 Cl
ATOM      8  C   UNL     1       3.339   6.662  18.147  0.00  0.00    +0.000 A 
ATOM      9 CL   UNL     1       2.896   8.235  17.586  0.00  0.00    +0.000 Cl
ATOM     10  C   UNL     1       4.249   5.892  17.435  0.00  0.00    +0.000 A 
ATOM     11  C   UNL     1       5.038   6.192  16.226  0.00  0.00    +0.000 C 
ATOM     12  O   UNL     1       4.839   7.157  15.514  0.00  0.00    +0.000 OA
ENDROOT
BRANCH   1  13
ATOM     13  C   UNL     1       6.474   4.794  14.626  0.00  0.00    +0.000 A 
ATOM     14  C   UNL     1       7.508   5.374  13.872  0.00  0.00    +0.000 A 
ATOM     15  C   UNL     1       7.748   4.981  12.549  0.00  0.00    +0.000 A 
ATOM     16  C   UNL     1       6.936   4.032  11.939  0.00  0.00    +0.000 A 
ATOM     17  C   UNL     1       5.881   3.474  12.648  0.00  0.00    +0.000 A 
ATOM     18  C   UNL     1       5.659   3.846  13.974  0.00  0.00    +0.000 A 
ENDBRANCH   1  13
BRANCH   1  20
ATOM     19  C   UNL     1       7.338   7.133  17.442  0.00  0.00    +0.000 C 
ATOM     20  C   UNL     1       7.474   5.797  16.713  0.00  0.00    +0.000 C 
ENDBRANCH   1  20
BRANCH   5  21
ATOM     21  O   UNL     1       2.848   4.389  21.057  0.00  0.00    +0.000 OA
BRANCH  21  22
ATOM     22  C   UNL     1       2.530   2.984  21.078  0.00  0.00    +0.000 C 
BRANCH  22  23
ATOM     23  C   UNL     1       1.417   2.625  20.114  0.00  0.00    +0.000 C 
ATOM     24  O   UNL     1       1.532   1.788  19.222  0.00  0.00    +0.000 OA
BRANCH  23  25
ATOM     25  O   UNL     1       0.278   3.315  20.334  0.00  0.00    +0.000 OA
ATOM     26  H   UNL     1       0.480   4.190  20.722  0.00  0.00    +0.000 HD
ENDBRANCH  23  25
ENDBRANCH  22  23
ENDBRANCH  21  22
ENDBRANCH   5  21
TORSDOF 6
ENDMDL
MODEL 4
REMARK VINA RESULT:      -7.8      1.097      1.583
REMARK  Name = 
REMARK  7 active torsions:
REMARK  status: ('A' for Active; 'I' for Inactive)
REMARK    1  A    between atoms: C_1  and  C_2
REMARK    2  A    between atoms: C_2  and  C_3
REMARK    3  A    between atoms: C_3  and  C_4
REMARK    4  A    between atoms: C_13  and  O_14
REMARK    5  A    between atoms: O_14  and  C_15
REMARK    6  A    between atoms: C_15  and  C_16
REMARK    7  A    between atoms: C_16  and  O_18
REMARK                            x       y       z     vdW  Elec       q    Type
REMARK                         _______ _______ _______ _____ _____    ______ ____
ROOT
ATOM      1  C   UNL     1       5.935   4.591  15.889  0.00  0.00    +0.000 C 
ATOM      2  C   UNL     1       4.820   3.556  16.208  0.00  0.00    +0.000 C 
ATOM      3  C   UNL     1       3.919   4.273  17.159  0.00  0.00    +0.000 A 
ATOM      4  C   UNL     1       2.986   3.690  17.994  0.00  0.00    +0.000 A 
ATOM      5  C   UNL     1       2.237   4.498  18.853  0.00  0.00    +0.000 A 
ATOM      6  C   UNL     1       2.378   5.912  18.780  0.00  0.00    +0.000 A 
ATOM      7 CL   UNL     1       1.406   6.913  19.818  0.00  0.00    +0.000 Cl
ATOM      8  C   UNL     1       3.313   6.501  17.896  0.00  0.00    +0.000 A 
ATOM      9 CL   UNL     1       3.570   8.208  17.835  0.00  0.00    +0.000 Cl
ATOM     10  C   UNL     1       4.071   5.648  17.106  0.00  0.00    +0.000 A 
ATOM     11  C   UNL     1       5.198   5.915  16.193  0.00  0.00    +0.000 C 
ATOM     12  O   UNL     1       5.516   7.028  15.823  0.00  0.00    +0.000 OA
ENDROOT
BRANCH   1  13
ATOM     13  C   UNL     1       6.457   4.527  14.441  0.00  0.00    +0.000 A 
ATOM     14  C   UNL     1       7.514   5.320  13.963  0.00  0.00    +0.000 A 
ATOM     15  C   UNL     1       7.968   5.201  12.643  0.00  0.00    +0.000 A 
ATOM     16  C   UNL     1       7.350   4.321  11.763  0.00  0.00    +0.000 A 
ATOM     17  C   UNL     1       6.275   3.557  12.198  0.00  0.00    +0.000 A 
ATOM     18  C   UNL     1       5.842   3.656  13.520  0.00  0.00    +0.000 A 
ENDBRANCH   1  13
BRANCH   1  20
ATOM     19  C   UNL     1       7.132   5.329  18.139  0.00  0.00    +0.000 C 
ATOM     20  C   UNL     1       7.158   4.487  16.864  0.00  0.00    +0.000 C 
ENDBRANCH   1  20
BRANCH   5  21
ATOM     21  O   UNL     1       1.373   3.937  19.778  0.00  0.00    +0.000 OA
BRANCH  21  22
ATOM     22  C   UNL     1       1.757   2.624  20.231  0.00  0.00    +0.000 C 
BRANCH  22  23
ATOM     23  C   UNL     1       2.619   2.667  21.477  0.00  0.00    +0.000 C 
ATOM     24  O   UNL     1       2.252   3.158  22.542  0.00  0.00    +0.000 OA
BRANCH  23  25
ATOM     25  O   UNL     1       3.834   2.106  21.304  0.00  0.00    +0.000 OA
ATOM     26  H   UNL     1       3.741   1.195  20.959  0.00  0.00    +0.000 HD
ENDBRANCH  23  25
ENDBRANCH  22  23
ENDBRANCH  21  22
ENDBRANCH   5  21
TORSDOF 6
ENDMDL
MODEL 5
REMARK VINA RESULT:      -7.1      3.087      7.422
REMARK  Name = 
REMARK  7 active torsions:
REMARK  status: ('A' for Active; 'I' for Inactive)
REMARK    1  A    between atoms: C_1  and  C_2
REMARK    2  A    between atoms: C_2  and  C_3
REMARK    3  A    between atoms: C_3  and  C_4
REMARK    4  A    between atoms: C_13  and  O_14
REMARK    5  A    between atoms: O_14  and  C_15
REMARK    6  A    between atoms: C_15  and  C_16
REMARK    7  A    between atoms: C_16  and  O_18
REMARK                            x       y       z     vdW  Elec       q    Type
REMARK                         _______ _______ _______ _____ _____    ______ ____
ROOT
ATOM      1  C   UNL     1       3.375   4.466  18.014  0.00  0.00    +0.000 C 
ATOM      2  C   UNL     1       3.535   3.469  16.830  0.00  0.00    +0.000 C 
ATOM      3  C   UNL     1       4.716   3.985  16.077  0.00  0.00    +0.000 A 
ATOM      4  C   UNL     1       5.056   3.665  14.777  0.00  0.00    +0.000 A 
ATOM      5  C   UNL     1       6.181   4.258  14.199  0.00  0.00    +0.000 A 
ATOM      6  C   UNL     1       7.010   5.102  14.991  0.00  0.00    +0.000 A 
ATOM      7 CL   UNL     1       8.436   5.797  14.278  0.00  0.00    +0.000 Cl
ATOM      8  C   UNL     1       6.670   5.397  16.333  0.00  0.00    +0.000 A 
ATOM      9 CL   UNL     1       7.606   6.478  17.301  0.00  0.00    +0.000 Cl
ATOM     10  C   UNL     1       5.511   4.825  16.838  0.00  0.00    +0.000 A 
ATOM     11  C   UNL     1       4.813   5.019  18.123  0.00  0.00    +0.000 C 
ATOM     12  O   UNL     1       5.300   5.601  19.073  0.00  0.00    +0.000 OA
ENDROOT
BRANCH   1  13
ATOM     13  C   UNL     1       2.893   3.815  19.323  0.00  0.00    +0.000 A 
ATOM     14  C   UNL     1       3.664   2.902  20.064  0.00  0.00    +0.000 A 
ATOM     15  C   UNL     1       3.188   2.361  21.266  0.00  0.00    +0.000 A 
ATOM     16  C   UNL     1       1.918   2.685  21.729  0.00  0.00    +0.000 A 
ATOM     17  C   UNL     1       1.120   3.551  20.994  0.00  0.00    +0.000 A 
ATOM     18  C   UNL     1       1.605   4.111  19.812  0.00  0.00    +0.000 A 
ENDBRANCH   1  13
BRANCH   1  20
ATOM     19  C   UNL     1       2.826   7.058  18.153  0.00  0.00    +0.000 C 
ATOM     20  C   UNL     1       2.424   5.664  17.673  0.00  0.00    +0.000 C 
ENDBRANCH   1  20
BRANCH   5  21
ATOM     21  O   UNL     1       6.488   4.044  12.866  0.00  0.00    +0.000 OA
BRANCH  21  22
ATOM     22  C   UNL     1       5.669   3.050  12.220  0.00  0.00    +0.000 C 
BRANCH  22  23
ATOM     23  C   UNL     1       6.491   1.980  11.528  0.00  0.00    +0.000 C 
ATOM     24  O   UNL     1       7.616   2.174  11.074  0.00  0.00    +0.000 OA
BRANCH  23  25
ATOM     25  O   UNL     1       5.866   0.786  11.463  0.00  0.00    +0.000 OA
ATOM     26  H   UNL     1       5.338   0.634  12.274  0.00  0.00    +0.000 HD
ENDBRANCH  23  25
ENDBRANCH  22  23
ENDBRANCH  21  22
ENDBRANCH   5  21
TORSDOF 6
ENDMDL
MODEL 6
REMARK VINA RESULT:      -6.8      7.507      9.431
REMARK  Name = 
REMARK  7 active torsions:
REMARK  status: ('A' for Active; 'I' for Inactive)
REMARK    1  A    between atoms: C_1  and  C_2
REMARK    2  A    between atoms: C_2  and  C_3
REMARK    3  A    between atoms: C_3  and  C_4
REMARK    4  A    between atoms: C_13  and  O_14
REMARK    5  A    between atoms: O_14  and  C_15
REMARK    6  A    between atoms: C_15  and  C_16
REMARK    7  A    between atoms: C_16  and  O_18
REMARK                            x       y       z     vdW  Elec       q    Type
REMARK                         _______ _______ _______ _____ _____    ______ ____
ROOT
ATOM      1  C   UNL     1       0.521  10.693  19.331  0.00  0.00    +0.000 C 
ATOM      2  C   UNL     1       0.123  10.987  20.806  0.00  0.00    +0.000 C 
ATOM      3  C   UNL     1      -1.215  11.640  20.698  0.00  0.00    +0.000 A 
ATOM      4  C   UNL     1      -1.836  12.391  21.676  0.00  0.00    +0.000 A 
ATOM      5  C   UNL     1      -3.082  12.965  21.410  0.00  0.00    +0.000 A 
ATOM      6  C   UNL     1      -3.731  12.682  20.175  0.00  0.00    +0.000 A 
ATOM      7 CL   UNL     1      -5.303  13.360  19.872  0.00  0.00    +0.000 Cl
ATOM      8  C   UNL     1      -3.100  11.883  19.192  0.00  0.00    +0.000 A 
ATOM      9 CL   UNL     1      -3.820  11.583  17.651  0.00  0.00    +0.000 Cl
ATOM     10  C   UNL     1      -1.838  11.386  19.488  0.00  0.00    +0.000 A 
ATOM     11  C   UNL     1      -0.869  10.644  18.660  0.00  0.00    +0.000 C 
ATOM     12  O   UNL     1      -1.141  10.153  17.581  0.00  0.00    +0.000 OA
ENDROOT
BRANCH   1  13
ATOM     13  C   UNL     1       1.312   9.385  19.143  0.00  0.00    +0.000 A 
ATOM     14  C   UNL     1       1.418   8.393  20.135  0.00  0.00    +0.000 A 
ATOM     15  C   UNL     1       2.126   7.208  19.901  0.00  0.00    +0.000 A 
ATOM     16  C   UNL     1       2.780   7.006  18.690  0.00  0.00    +0.000 A 
ATOM     17  C   UNL     1       2.727   7.988  17.710  0.00  0.00    +0.000 A 
ATOM     18  C   UNL     1       1.998   9.156  17.934  0.00  0.00    +0.000 A 
ENDBRANCH   1  13
BRANCH   1  20
ATOM     19  C   UNL     1       1.977  12.894  19.601  0.00  0.00    +0.000 C 
ATOM     20  C   UNL     1       1.331  11.863  18.676  0.00  0.00    +0.000 C 
ENDBRANCH   1  20
BRANCH   5  21
ATOM     21  O   UNL     1      -3.682  13.812  22.327  0.00  0.00    +0.000 OA
BRANCH  21  22
ATOM     22  C   UNL     1      -3.541  13.398  23.700  0.00  0.00    +0.000 C 
BRANCH  22  23
ATOM     23  C   UNL     1      -4.755  12.646  24.208  0.00  0.00    +0.000 C 
ATOM     24  O   UNL     1      -5.763  12.446  23.534  0.00  0.00    +0.000 OA
BRANCH  23  25
ATOM     25  O   UNL     1      -4.620  12.210  25.478  0.00  0.00    +0.000 OA
ATOM     26  H   UNL     1      -4.194  12.897  26.030  0.00  0.00    +0.000 HD
ENDBRANCH  23  25
ENDBRANCH  22  23
ENDBRANCH  21  22
ENDBRANCH   5  21
TORSDOF 6
ENDMDL
MODEL 7
REMARK VINA RESULT:      -6.7      7.378      9.295
REMARK  Name = 
REMARK  7 active torsions:
REMARK  status: ('A' for Active; 'I' for Inactive)
REMARK    1  A    between atoms: C_1  and  C_2
REMARK    2  A    between atoms: C_2  and  C_3
REMARK    3  A    between atoms: C_3  and  C_4
REMARK    4  A    between atoms: C_13  and  O_14
REMARK    5  A    between atoms: O_14  and  C_15
REMARK    6  A    between atoms: C_15  and  C_16
REMARK    7  A    between atoms: C_16  and  O_18
REMARK                            x       y       z     vdW  Elec       q    Type
REMARK                         _______ _______ _______ _____ _____    ______ ____
ROOT
ATOM      1  C   UNL     1       0.767  10.547  19.284  0.00  0.00    +0.000 C 
ATOM      2  C   UNL     1       0.470  10.862  20.777  0.00  0.00    +0.000 C 
ATOM      3  C   UNL     1      -0.851  11.558  20.747  0.00  0.00    +0.000 A 
ATOM      4  C   UNL     1      -1.386  12.334  21.756  0.00  0.00    +0.000 A 
ATOM      5  C   UNL     1      -2.626  12.947  21.563  0.00  0.00    +0.000 A 
ATOM      6  C   UNL     1      -3.359  12.679  20.372  0.00  0.00    +0.000 A 
ATOM      7 CL   UNL     1      -4.923  13.407  20.161  0.00  0.00    +0.000 Cl
ATOM      8  C   UNL     1      -2.815  11.855  19.358  0.00  0.00    +0.000 A 
ATOM      9 CL   UNL     1      -3.638  11.570  17.866  0.00  0.00    +0.000 Cl
ATOM     10  C   UNL     1      -1.555  11.317  19.580  0.00  0.00    +0.000 A 
ATOM     11  C   UNL     1      -0.663  10.540  18.699  0.00  0.00    +0.000 C 
ATOM     12  O   UNL     1      -1.017  10.052  17.643  0.00  0.00    +0.000 OA
ENDROOT
BRANCH   1  13
ATOM     13  C   UNL     1       1.502   9.212  19.057  0.00  0.00    +0.000 A 
ATOM     14  C   UNL     1       2.155   8.882  17.857  0.00  0.00    +0.000 A 
ATOM     15  C   UNL     1       2.834   7.665  17.714  0.00  0.00    +0.000 A 
ATOM     16  C   UNL     1       2.838   6.735  18.748  0.00  0.00    +0.000 A 
ATOM     17  C   UNL     1       2.165   7.020  19.929  0.00  0.00    +0.000 A 
ATOM     18  C   UNL     1       1.513   8.244  20.080  0.00  0.00    +0.000 A 
ENDBRANCH   1  13
BRANCH   1  20
ATOM     19  C   UNL     1       2.113  12.828  19.431  0.00  0.00    +0.000 C 
ATOM     20  C   UNL     1       1.573  11.687  18.571  0.00  0.00    +0.000 C 
ENDBRANCH   1  20
BRANCH   5  21
ATOM     21  O   UNL     1      -3.140  13.818  22.508  0.00  0.00    +0.000 OA
BRANCH  21  22
ATOM     22  C   UNL     1      -3.296  13.246  23.822  0.00  0.00    +0.000 C 
BRANCH  22  23
ATOM     23  C   UNL     1      -4.730  12.853  24.118  0.00  0.00    +0.000 C 
ATOM     24  O   UNL     1      -5.705  13.428  23.641  0.00  0.00    +0.000 OA
BRANCH  23  25
ATOM     25  O   UNL     1      -4.832  11.801  24.958  0.00  0.00    +0.000 OA
ATOM     26  H   UNL     1      -5.771  11.552  25.077  0.00  0.00    +0.000 HD
ENDBRANCH  23  25
ENDBRANCH  22  23
ENDBRANCH  21  22
ENDBRANCH   5  21
TORSDOF 6
ENDMDL
MODEL 8
REMARK VINA RESULT:      -6.6      4.077      6.263
REMARK  Name = 
REMARK  7 active torsions:
REMARK  status: ('A' for Active; 'I' for Inactive)
REMARK    1  A    between atoms: C_1  and  C_2
REMARK    2  A    between atoms: C_2  and  C_3
REMARK    3  A    between atoms: C_3  and  C_4
REMARK    4  A    between atoms: C_13  and  O_14
REMARK    5  A    between atoms: O_14  and  C_15
REMARK    6  A    between atoms: C_15  and  C_16
REMARK    7  A    between atoms: C_16  and  O_18
REMARK                            x       y       z     vdW  Elec       q    Type
REMARK                         _______ _______ _______ _____ _____    ______ ____
ROOT
ATOM      1  C   UNL     1       2.827   6.483  18.109  0.00  0.00    +0.000 C 
ATOM      2  C   UNL     1       2.699   7.840  17.361  0.00  0.00    +0.000 C 
ATOM      3  C   UNL     1       1.823   8.663  18.247  0.00  0.00    +0.000 A 
ATOM      4  C   UNL     1       1.137   9.805  17.881  0.00  0.00    +0.000 A 
ATOM      5  C   UNL     1       0.329  10.448  18.822  0.00  0.00    +0.000 A 
ATOM      6  C   UNL     1       0.307   9.974  20.164  0.00  0.00    +0.000 A 
ATOM      7 CL   UNL     1      -0.663  10.810  21.340  0.00  0.00    +0.000 Cl
ATOM      8  C   UNL     1       1.041   8.822  20.536  0.00  0.00    +0.000 A 
ATOM      9 CL   UNL     1       0.977   8.169  22.134  0.00  0.00    +0.000 Cl
ATOM     10  C   UNL     1       1.782   8.190  19.547  0.00  0.00    +0.000 A 
ATOM     11  C   UNL     1       2.540   6.925  19.562  0.00  0.00    +0.000 C 
ATOM     12  O   UNL     1       2.808   6.312  20.577  0.00  0.00    +0.000 OA
ENDROOT
BRANCH   1  13
ATOM     13  C   UNL     1       4.205   5.811  17.960  0.00  0.00    +0.000 A 
ATOM     14  C   UNL     1       5.031   5.488  19.050  0.00  0.00    +0.000 A 
ATOM     15  C   UNL     1       6.264   4.850  18.860  0.00  0.00    +0.000 A 
ATOM     16  C   UNL     1       6.716   4.561  17.578  0.00  0.00    +0.000 A 
ATOM     17  C   UNL     1       5.938   4.908  16.481  0.00  0.00    +0.000 A 
ATOM     18  C   UNL     1       4.698   5.518  16.673  0.00  0.00    +0.000 A 
ENDBRANCH   1  13
BRANCH   1  20
ATOM     19  C   UNL     1       1.828   4.029  18.235  0.00  0.00    +0.000 C 
ATOM     20  C   UNL     1       1.722   5.453  17.692  0.00  0.00    +0.000 C 
ENDBRANCH   1  20
BRANCH   5  21
ATOM     21  O   UNL     1      -0.456  11.530  18.459  0.00  0.00    +0.000 OA
BRANCH  21  22
ATOM     22  C   UNL     1      -1.865  11.240  18.375  0.00  0.00    +0.000 C 
BRANCH  22  23
ATOM     23  C   UNL     1      -2.275  10.743  17.003  0.00  0.00    +0.000 C 
ATOM     24  O   UNL     1      -2.611   9.584  16.772  0.00  0.00    +0.000 OA
BRANCH  23  25
ATOM     25  O   UNL     1      -2.242  11.703  16.056  0.00  0.00    +0.000 OA
ATOM     26  H   UNL     1      -1.894  11.340  15.216  0.00  0.00    +0.000 HD
ENDBRANCH  23  25
ENDBRANCH  22  23
ENDBRANCH  21  22
ENDBRANCH   5  21
TORSDOF 6
ENDMDL
MODEL 9
REMARK VINA RESULT:      -6.5      7.803      9.789
REMARK  Name = 
REMARK  7 active torsions:
REMARK  status: ('A' for Active; 'I' for Inactive)
REMARK    1  A    between atoms: C_1  and  C_2
REMARK    2  A    between atoms: C_2  and  C_3
REMARK    3  A    between atoms: C_3  and  C_4
REMARK    4  A    between atoms: C_13  and  O_14
REMARK    5  A    between atoms: O_14  and  C_15
REMARK    6  A    between atoms: C_15  and  C_16
REMARK    7  A    between atoms: C_16  and  O_18
REMARK                            x       y       z     vdW  Elec       q    Type
REMARK                         _______ _______ _______ _____ _____    ______ ____
ROOT
ATOM      1  C   UNL     1       0.109  11.020  19.246  0.00  0.00    +0.000 C 
ATOM      2  C   UNL     1      -0.354  11.289  20.706  0.00  0.00    +0.000 C 
ATOM      3  C   UNL     1      -1.729  11.851  20.554  0.00  0.00    +0.000 A 
ATOM      4  C   UNL     1      -2.429  12.561  21.510  0.00  0.00    +0.000 A 
ATOM      5  C   UNL     1      -3.700  13.051  21.203  0.00  0.00    +0.000 A 
ATOM      6  C   UNL     1      -4.290  12.724  19.950  0.00  0.00    +0.000 A 
ATOM      7 CL   UNL     1      -5.893  13.297  19.595  0.00  0.00    +0.000 Cl
ATOM      8  C   UNL     1      -3.576  11.968  18.990  0.00  0.00    +0.000 A 
ATOM      9 CL   UNL     1      -4.226  11.619  17.428  0.00  0.00    +0.000 Cl
ATOM     10  C   UNL     1      -2.295  11.555  19.326  0.00  0.00    +0.000 A 
ATOM     11  C   UNL     1      -1.253  10.878  18.532  0.00  0.00    +0.000 C 
ATOM     12  O   UNL     1      -1.458  10.369  17.447  0.00  0.00    +0.000 OA
ENDROOT
BRANCH   1  13
ATOM     13  C   UNL     1       0.990   9.767  19.088  0.00  0.00    +0.000 A 
ATOM     14  C   UNL     1       1.674   9.445  17.902  0.00  0.00    +0.000 A 
ATOM     15  C   UNL     1       2.486   8.307  17.821  0.00  0.00    +0.000 A 
ATOM     16  C   UNL     1       2.599   7.444  18.905  0.00  0.00    +0.000 A 
ATOM     17  C   UNL     1       1.900   7.716  20.073  0.00  0.00    +0.000 A 
ATOM     18  C   UNL     1       1.114   8.864  20.163  0.00  0.00    +0.000 A 
ENDBRANCH   1  13
BRANCH   1  20
ATOM     19  C   UNL     1       2.051  12.823  19.374  0.00  0.00    +0.000 C 
ATOM     20  C   UNL     1       0.860  12.241  18.613  0.00  0.00    +0.000 C 
ENDBRANCH   1  20
BRANCH   5  21
ATOM     21  O   UNL     1      -4.383  13.857  22.098  0.00  0.00    +0.000 OA
BRANCH  21  22
ATOM     22  C   UNL     1      -5.194  13.138  23.048  0.00  0.00    +0.000 C 
BRANCH  22  23
ATOM     23  C   UNL     1      -4.479  12.905  24.364  0.00  0.00    +0.000 C 
ATOM     24  O   UNL     1      -3.612  13.653  24.809  0.00  0.00    +0.000 OA
BRANCH  23  25
ATOM     25  O   UNL     1      -4.894  11.794  25.007  0.00  0.00    +0.000 OA
ATOM     26  H   UNL     1      -5.233  12.023  25.896  0.00  0.00    +0.000 HD
ENDBRANCH  23  25
ENDBRANCH  22  23
ENDBRANCH  21  22
ENDBRANCH   5  21
TORSDOF 6
ENDMDL
