MODEL 1
REMARK VINA RESULT:      -6.7      0.000      0.000
REMARK  Name = 
REMARK  9 active torsions:
REMARK  status: ('A' for Active; 'I' for Inactive)
REMARK    1  A    between atoms: C_1  and  C_2
REMARK    2  A    between atoms: C_2  and  C_3
REMARK    3  A    between atoms: C_3  and  C_4
REMARK    4  A    between atoms: C_4  and  S_5
REMARK    5  A    between atoms: S_5  and  N_8
REMARK    6  A    between atoms: N_8  and  C_9
REMARK    7  A    between atoms: C_9  and  C_10
REMARK    8  A    between atoms: C_10  and  N_11
REMARK    9  A    between atoms: C_15  and  C_16
REMARK                            x       y       z     vdW  Elec       q    Type
REMARK                         _______ _______ _______ _____ _____    ______ ____
ROOT
ATOM      1  C   UNL     1       7.341   5.458  17.361  0.00  0.00    +0.000 C 
ENDROOT
BRANCH   1   2
ATOM      2  N   UNL     1       7.277   4.542  16.202  0.00  0.00    +0.000 NA
ATOM      3  H   UNL     1       8.077   3.919  16.091  0.00  0.00    +0.000 HD
BRANCH   2   4
ATOM      4  S   UNL     1       6.737   5.242  14.760  0.00  0.00    +0.000 S 
ATOM      5  O   UNL     1       7.899   5.585  13.968  0.00  0.00    +0.000 OA
ATOM      6  O   UNL     1       5.738   6.222  15.114  0.00  0.00    +0.000 OA
BRANCH   4   7
ATOM      7  C   UNL     1       5.899   3.865  13.964  0.00  0.00    +0.000 C 
BRANCH   7   8
ATOM      8  C   UNL     1       6.480   3.631  12.572  0.00  0.00    +0.000 C 
BRANCH   8  10
ATOM      9  C   UNL     1       4.276   3.208  11.454  0.00  0.00    +0.000 C 
ATOM     10  C   UNL     1       5.657   2.642  11.753  0.00  0.00    +0.000 C 
ENDBRANCH   8  10
ENDBRANCH   7   8
ENDBRANCH   4   7
ENDBRANCH   2   4
ENDBRANCH   1   2
BRANCH   1  11
ATOM     11  C   UNL     1       6.637   4.883  18.600  0.00  0.00    +0.000 C 
BRANCH  11  12
ATOM     12  N   UNL     1       5.372   5.597  18.795  0.00  0.00    +0.000 N 
ATOM     13  C   UNL     1       4.231   4.775  18.819  0.00  0.00    +0.000 A 
ATOM     14  C   UNL     1       2.992   5.384  18.980  0.00  0.00    +0.000 A 
ATOM     15  C   UNL     1       1.840   4.608  19.000  0.00  0.00    +0.000 A 
ATOM     16  C   UNL     1       1.962   3.239  18.855  0.00  0.00    +0.000 A 
ATOM     17  C   UNL     1       0.770   2.335  18.834  0.00  0.00    +0.000 C 
ATOM     18  N   UNL     1       3.172   2.659  18.725  0.00  0.00    +0.000 NA
ATOM     19  N   UNL     1       4.309   3.435  18.718  0.00  0.00    +0.000 NA
ATOM     20  H   UNL     1       5.227   6.312  18.085  0.00  0.00    +0.000 HD
ENDBRANCH  11  12
ENDBRANCH   1  11
TORSDOF 7
ENDMDL
MODEL 2
REMARK VINA RESULT:      -6.6      2.781      3.711
REMARK  Name = 
REMARK  9 active torsions:
REMARK  status: ('A' for Active; 'I' for Inactive)
REMARK    1  A    between atoms: C_1  and  C_2
REMARK    2  A    between atoms: C_2  and  C_3
REMARK    3  A    between atoms: C_3  and  C_4
REMARK    4  A    between atoms: C_4  and  S_5
REMARK    5  A    between atoms: S_5  and  N_8
REMARK    6  A    between atoms: N_8  and  C_9
REMARK    7  A    between atoms: C_9  and  C_10
REMARK    8  A    between atoms: C_10  and  N_11
REMARK    9  A    between atoms: C_15  and  C_16
REMARK                            x       y       z     vdW  Elec       q    Type
REMARK                         _______ _______ _______ _____ _____    ______ ____
ROOT
ATOM      1  C   UNL     1       4.712   3.659  18.387  0.00  0.00    +0.000 C 
ENDROOT
BRANCH   1   2
ATOM      2  N   UNL     1       6.103   4.153  18.468  0.00  0.00    +0.000 NA
ATOM      3  H   UNL     1       6.310   4.751  19.268  0.00  0.00    +0.000 HD
BRANCH   2   4
ATOM      4  S   UNL     1       6.760   4.697  17.006  0.00  0.00    +0.000 S 
ATOM      5  O   UNL     1       8.136   4.253  16.944  0.00  0.00    +0.000 OA
ATOM      6  O   UNL     1       6.400   6.088  16.873  0.00  0.00    +0.000 OA
BRANCH   4   7
ATOM      7  C   UNL     1       5.812   3.764  15.797  0.00  0.00    +0.000 C 
BRANCH   7   8
ATOM      8  C   UNL     1       5.722   4.542  14.488  0.00  0.00    +0.000 C 
BRANCH   8  10
ATOM      9  C   UNL     1       5.341   3.395  12.290  0.00  0.00    +0.000 C 
ATOM     10  C   UNL     1       6.380   3.807  13.324  0.00  0.00    +0.000 C 
ENDBRANCH   8  10
ENDBRANCH   7   8
ENDBRANCH   4   7
ENDBRANCH   2   4
ENDBRANCH   1   2
BRANCH   1  11
ATOM     11  C   UNL     1       3.701   4.660  18.968  0.00  0.00    +0.000 C 
BRANCH  11  12
ATOM     12  N   UNL     1       3.522   5.756  18.011  0.00  0.00    +0.000 N 
ATOM     13  C   UNL     1       2.813   6.863  18.512  0.00  0.00    +0.000 A 
ATOM     14  C   UNL     1       2.586   7.933  17.656  0.00  0.00    +0.000 A 
ATOM     15  C   UNL     1       1.882   9.042  18.109  0.00  0.00    +0.000 A 
ATOM     16  C   UNL     1       1.424   9.047  19.413  0.00  0.00    +0.000 A 
ATOM     17  C   UNL     1       0.633  10.187  19.971  0.00  0.00    +0.000 C 
ATOM     18  N   UNL     1       1.675   8.013  20.241  0.00  0.00    +0.000 NA
ATOM     19  N   UNL     1       2.382   6.923  19.786  0.00  0.00    +0.000 NA
ATOM     20  H   UNL     1       3.053   5.444  17.163  0.00  0.00    +0.000 HD
ENDBRANCH  11  12
ENDBRANCH   1  11
TORSDOF 7
ENDMDL
MODEL 3
REMARK VINA RESULT:      -6.5      3.231      6.448
REMARK  Name = 
REMARK  9 active torsions:
REMARK  status: ('A' for Active; 'I' for Inactive)
REMARK    1  A    between atoms: C_1  and  C_2
REMARK    2  A    between atoms: C_2  and  C_3
REMARK    3  A    between atoms: C_3  and  C_4
REMARK    4  A    between atoms: C_4  and  S_5
REMARK    5  A    between atoms: S_5  and  N_8
REMARK    6  A    between atoms: N_8  and  C_9
REMARK    7  A    between atoms: C_9  and  C_10
REMARK    8  A    between atoms: C_10  and  N_11
REMARK    9  A    between atoms: C_15  and  C_16
REMARK                            x       y       z     vdW  Elec       q    Type
REMARK                         _______ _______ _______ _____ _____    ______ ____
ROOT
ATOM      1  C   UNL     1       4.584   4.113  16.110  0.00  0.00    +0.000 C 
ENDROOT
BRANCH   1   2
ATOM      2  N   UNL     1       4.184   5.227  16.997  0.00  0.00    +0.000 NA
ATOM      3  H   UNL     1       4.873   5.971  17.105  0.00  0.00    +0.000 HD
BRANCH   2   4
ATOM      4  S   UNL     1       3.430   4.764  18.439  0.00  0.00    +0.000 S 
ATOM      5  O   UNL     1       2.603   5.865  18.884  0.00  0.00    +0.000 OA
ATOM      6  O   UNL     1       4.450   4.186  19.282  0.00  0.00    +0.000 OA
BRANCH   4   7
ATOM      7  C   UNL     1       2.352   3.434  17.891  0.00  0.00    +0.000 C 
BRANCH   7   8
ATOM      8  C   UNL     1       1.207   3.245  18.882  0.00  0.00    +0.000 C 
BRANCH   8  10
ATOM      9  C   UNL     1       1.475   3.090  21.371  0.00  0.00    +0.000 C 
ATOM     10  C   UNL     1       1.587   2.340  20.050  0.00  0.00    +0.000 C 
ENDBRANCH   8  10
ENDBRANCH   7   8
ENDBRANCH   4   7
ENDBRANCH   2   4
ENDBRANCH   1   2
BRANCH   1  11
ATOM     11  C   UNL     1       6.106   4.035  15.921  0.00  0.00    +0.000 C 
BRANCH  11  12
ATOM     12  N   UNL     1       6.751   4.214  17.224  0.00  0.00    +0.000 N 
ATOM     13  C   UNL     1       7.189   5.525  17.488  0.00  0.00    +0.000 A 
ATOM     14  C   UNL     1       7.829   5.768  18.697  0.00  0.00    +0.000 A 
ATOM     15  C   UNL     1       8.285   7.046  18.992  0.00  0.00    +0.000 A 
ATOM     16  C   UNL     1       8.086   8.050  18.062  0.00  0.00    +0.000 A 
ATOM     17  C   UNL     1       8.573   9.446  18.288  0.00  0.00    +0.000 C 
ATOM     18  N   UNL     1       7.441   7.806  16.904  0.00  0.00    +0.000 NA
ATOM     19  N   UNL     1       6.983   6.538  16.626  0.00  0.00    +0.000 NA
ATOM     20  H   UNL     1       7.548   3.590  17.341  0.00  0.00    +0.000 HD
ENDBRANCH  11  12
ENDBRANCH   1  11
TORSDOF 7
ENDMDL
MODEL 4
REMARK VINA RESULT:      -6.5      3.074      4.619
REMARK  Name = 
REMARK  9 active torsions:
REMARK  status: ('A' for Active; 'I' for Inactive)
REMARK    1  A    between atoms: C_1  and  C_2
REMARK    2  A    between atoms: C_2  and  C_3
REMARK    3  A    between atoms: C_3  and  C_4
REMARK    4  A    between atoms: C_4  and  S_5
REMARK    5  A    between atoms: S_5  and  N_8
REMARK    6  A    between atoms: N_8  and  C_9
REMARK    7  A    between atoms: C_9  and  C_10
REMARK    8  A    between atoms: C_10  and  N_11
REMARK    9  A    between atoms: C_15  and  C_16
REMARK                            x       y       z     vdW  Elec       q    Type
REMARK                         _______ _______ _______ _____ _____    ______ ____
ROOT
ATOM      1  C   UNL     1       5.091   5.262  16.650  0.00  0.00    +0.000 C 
ENDROOT
BRANCH   1   2
ATOM      2  N   UNL     1       5.877   4.294  17.445  0.00  0.00    +0.000 NA
ATOM      3  H   UNL     1       5.333   3.683  18.055  0.00  0.00    +0.000 HD
BRANCH   2   4
ATOM      4  S   UNL     1       7.277   4.919  18.161  0.00  0.00    +0.000 S 
ATOM      5  O   UNL     1       8.391   4.085  17.763  0.00  0.00    +0.000 OA
ATOM      6  O   UNL     1       6.968   5.169  19.548  0.00  0.00    +0.000 OA
BRANCH   4   7
ATOM      7  C   UNL     1       7.442   6.510  17.339  0.00  0.00    +0.000 C 
BRANCH   7   8
ATOM      8  C   UNL     1       8.110   7.515  18.272  0.00  0.00    +0.000 C 
BRANCH   8  10
ATOM      9  C   UNL     1       8.891   9.881  18.564  0.00  0.00    +0.000 C 
ATOM     10  C   UNL     1       7.976   8.952  17.777  0.00  0.00    +0.000 C 
ENDBRANCH   8  10
ENDBRANCH   7   8
ENDBRANCH   4   7
ENDBRANCH   2   4
ENDBRANCH   1   2
BRANCH   1  11
ATOM     11  C   UNL     1       4.030   5.985  17.492  0.00  0.00    +0.000 C 
BRANCH  11  12
ATOM     12  N   UNL     1       2.773   5.236  17.408  0.00  0.00    +0.000 N 
ATOM     13  C   UNL     1       2.434   4.524  18.573  0.00  0.00    +0.000 A 
ATOM     14  C   UNL     1       1.265   3.773  18.562  0.00  0.00    +0.000 A 
ATOM     15  C   UNL     1       0.900   3.048  19.689  0.00  0.00    +0.000 A 
ATOM     16  C   UNL     1       1.721   3.095  20.800  0.00  0.00    +0.000 A 
ATOM     17  C   UNL     1       1.417   2.320  22.043  0.00  0.00    +0.000 C 
ATOM     18  N   UNL     1       2.839   3.849  20.807  0.00  0.00    +0.000 NA
ATOM     19  N   UNL     1       3.186   4.573  19.689  0.00  0.00    +0.000 NA
ATOM     20  H   UNL     1       2.775   4.579  16.631  0.00  0.00    +0.000 HD
ENDBRANCH  11  12
ENDBRANCH   1  11
TORSDOF 7
ENDMDL
MODEL 5
REMARK VINA RESULT:      -6.4      3.529      6.671
REMARK  Name = 
REMARK  9 active torsions:
REMARK  status: ('A' for Active; 'I' for Inactive)
REMARK    1  A    between atoms: C_1  and  C_2
REMARK    2  A    between atoms: C_2  and  C_3
REMARK    3  A    between atoms: C_3  and  C_4
REMARK    4  A    between atoms: C_4  and  S_5
REMARK    5  A    between atoms: S_5  and  N_8
REMARK    6  A    between atoms: N_8  and  C_9
REMARK    7  A    between atoms: C_9  and  C_10
REMARK    8  A    between atoms: C_10  and  N_11
REMARK    9  A    between atoms: C_15  and  C_16
REMARK                            x       y       z     vdW  Elec       q    Type
REMARK                         _______ _______ _______ _____ _____    ______ ____
ROOT
ATOM      1  C   UNL     1       3.417   3.536  17.352  0.00  0.00    +0.000 C 
ENDROOT
BRANCH   1   2
ATOM      2  N   UNL     1       2.581   4.676  17.786  0.00  0.00    +0.000 NA
ATOM      3  H   UNL     1       2.384   5.373  17.069  0.00  0.00    +0.000 HD
BRANCH   2   4
ATOM      4  S   UNL     1       2.980   5.327  19.296  0.00  0.00    +0.000 S 
ATOM      5  O   UNL     1       3.066   6.764  19.153  0.00  0.00    +0.000 OA
ATOM      6  O   UNL     1       4.075   4.545  19.818  0.00  0.00    +0.000 OA
BRANCH   4   7
ATOM      7  C   UNL     1       1.518   4.943  20.269  0.00  0.00    +0.000 C 
BRANCH   7   8
ATOM      8  C   UNL     1       0.843   3.686  19.727  0.00  0.00    +0.000 C 
BRANCH   8  10
ATOM      9  C   UNL     1       1.763   2.653  21.819  0.00  0.00    +0.000 C 
ATOM     10  C   UNL     1       1.385   2.410  20.364  0.00  0.00    +0.000 C 
ENDBRANCH   8  10
ENDBRANCH   7   8
ENDBRANCH   4   7
ENDBRANCH   2   4
ENDBRANCH   1   2
BRANCH   1  11
ATOM     11  C   UNL     1       4.665   3.988  16.577  0.00  0.00    +0.000 C 
BRANCH  11  12
ATOM     12  N   UNL     1       5.799   4.040  17.504  0.00  0.00    +0.000 N 
ATOM     13  C   UNL     1       6.407   5.304  17.620  0.00  0.00    +0.000 A 
ATOM     14  C   UNL     1       7.502   5.426  18.465  0.00  0.00    +0.000 A 
ATOM     15  C   UNL     1       8.136   6.655  18.600  0.00  0.00    +0.000 A 
ATOM     16  C   UNL     1       7.651   7.731  17.880  0.00  0.00    +0.000 A 
ATOM     17  C   UNL     1       8.293   9.080  17.945  0.00  0.00    +0.000 C 
ATOM     18  N   UNL     1       6.571   7.605  17.084  0.00  0.00    +0.000 NA
ATOM     19  N   UNL     1       5.943   6.386  16.965  0.00  0.00    +0.000 NA
ATOM     20  H   UNL     1       6.523   3.369  17.254  0.00  0.00    +0.000 HD
ENDBRANCH  11  12
ENDBRANCH   1  11
TORSDOF 7
ENDMDL
MODEL 6
REMARK VINA RESULT:      -6.4      2.482      4.015
REMARK  Name = 
REMARK  9 active torsions:
REMARK  status: ('A' for Active; 'I' for Inactive)
REMARK    1  A    between atoms: C_1  and  C_2
REMARK    2  A    between atoms: C_2  and  C_3
REMARK    3  A    between atoms: C_3  and  C_4
REMARK    4  A    between atoms: C_4  and  S_5
REMARK    5  A    between atoms: S_5  and  N_8
REMARK    6  A    between atoms: N_8  and  C_9
REMARK    7  A    between atoms: C_9  and  C_10
REMARK    8  A    between atoms: C_10  and  N_11
REMARK    9  A    between atoms: C_15  and  C_16
REMARK                            x       y       z     vdW  Elec       q    Type
REMARK                         _______ _______ _______ _____ _____    ______ ____
ROOT
ATOM      1  C   UNL     1       6.526   4.690  15.059  0.00  0.00    +0.000 C 
ENDROOT
BRANCH   1   2
ATOM      2  N   UNL     1       6.370   6.075  15.550  0.00  0.00    +0.000 NA
ATOM      3  H   UNL     1       6.546   6.808  14.863  0.00  0.00    +0.000 HD
BRANCH   2   4
ATOM      4  S   UNL     1       7.040   6.378  17.074  0.00  0.00    +0.000 S 
ATOM      5  O   UNL     1       7.669   7.681  17.033  0.00  0.00    +0.000 OA
ATOM      6  O   UNL     1       7.765   5.191  17.461  0.00  0.00    +0.000 OA
BRANCH   4   7
ATOM      7  C   UNL     1       5.577   6.491  18.113  0.00  0.00    +0.000 C 
BRANCH   7   8
ATOM      8  C   UNL     1       4.379   6.945  17.284  0.00  0.00    +0.000 C 
BRANCH   8  10
ATOM      9  C   UNL     1       2.346   8.309  17.827  0.00  0.00    +0.000 C 
ATOM     10  C   UNL     1       3.092   7.010  18.101  0.00  0.00    +0.000 C 
ENDBRANCH   8  10
ENDBRANCH   7   8
ENDBRANCH   4   7
ENDBRANCH   2   4
ENDBRANCH   1   2
BRANCH   1  11
ATOM     11  C   UNL     1       5.302   3.816  15.373  0.00  0.00    +0.000 C 
BRANCH  11  12
ATOM     12  N   UNL     1       5.426   3.308  16.742  0.00  0.00    +0.000 N 
ATOM     13  C   UNL     1       4.216   3.243  17.457  0.00  0.00    +0.000 A 
ATOM     14  C   UNL     1       4.258   2.790  18.769  0.00  0.00    +0.000 A 
ATOM     15  C   UNL     1       3.086   2.720  19.512  0.00  0.00    +0.000 A 
ATOM     16  C   UNL     1       1.901   3.107  18.916  0.00  0.00    +0.000 A 
ATOM     17  C   UNL     1       0.601   3.091  19.655  0.00  0.00    +0.000 C 
ATOM     18  N   UNL     1       1.871   3.520  17.633  0.00  0.00    +0.000 NA
ATOM     19  N   UNL     1       3.036   3.576  16.902  0.00  0.00    +0.000 NA
ATOM     20  H   UNL     1       6.084   3.859  17.291  0.00  0.00    +0.000 HD
ENDBRANCH  11  12
ENDBRANCH   1  11
TORSDOF 7
ENDMDL
MODEL 7
REMARK VINA RESULT:      -6.4      1.306      1.608
REMARK  Name = 
REMARK  9 active torsions:
REMARK  status: ('A' for Active; 'I' for Inactive)
REMARK    1  A    between atoms: C_1  and  C_2
REMARK    2  A    between atoms: C_2  and  C_3
REMARK    3  A    between atoms: C_3  and  C_4
REMARK    4  A    between atoms: C_4  and  S_5
REMARK    5  A    between atoms: S_5  and  N_8
REMARK    6  A    between atoms: N_8  and  C_9
REMARK    7  A    between atoms: C_9  and  C_10
REMARK    8  A    between atoms: C_10  and  N_11
REMARK    9  A    between atoms: C_15  and  C_16
REMARK                            x       y       z     vdW  Elec       q    Type
REMARK                         _______ _______ _______ _____ _____    ______ ____
ROOT
ATOM      1  C   UNL     1       7.258   5.613  17.297  0.00  0.00    +0.000 C 
ENDROOT
BRANCH   1   2
ATOM      2  N   UNL     1       7.418   4.664  16.174  0.00  0.00    +0.000 NA
ATOM      3  H   UNL     1       8.327   4.205  16.113  0.00  0.00    +0.000 HD
BRANCH   2   4
ATOM      4  S   UNL     1       6.808   5.197  14.688  0.00  0.00    +0.000 S 
ATOM      5  O   UNL     1       7.928   5.606  13.868  0.00  0.00    +0.000 OA
ATOM      6  O   UNL     1       5.709   6.086  14.977  0.00  0.00    +0.000 OA
BRANCH   4   7
ATOM      7  C   UNL     1       6.126   3.684  13.997  0.00  0.00    +0.000 C 
BRANCH   7   8
ATOM      8  C   UNL     1       6.318   3.666  12.483  0.00  0.00    +0.000 C 
BRANCH   8  10
ATOM      9  C   UNL     1       6.488   1.511  11.213  0.00  0.00    +0.000 C 
ATOM     10  C   UNL     1       5.538   2.542  11.807  0.00  0.00    +0.000 C 
ENDBRANCH   8  10
ENDBRANCH   7   8
ENDBRANCH   4   7
ENDBRANCH   2   4
ENDBRANCH   1   2
BRANCH   1  11
ATOM     11  C   UNL     1       5.854   5.553  17.917  0.00  0.00    +0.000 C 
BRANCH  11  12
ATOM     12  N   UNL     1       5.313   4.204  17.725  0.00  0.00    +0.000 N 
ATOM     13  C   UNL     1       4.290   3.847  18.623  0.00  0.00    +0.000 A 
ATOM     14  C   UNL     1       3.742   2.576  18.515  0.00  0.00    +0.000 A 
ATOM     15  C   UNL     1       2.737   2.181  19.389  0.00  0.00    +0.000 A 
ATOM     16  C   UNL     1       2.308   3.077  20.351  0.00  0.00    +0.000 A 
ATOM     17  C   UNL     1       1.253   2.722  21.349  0.00  0.00    +0.000 C 
ATOM     18  N   UNL     1       2.831   4.317  20.428  0.00  0.00    +0.000 NA
ATOM     19  N   UNL     1       3.819   4.702  19.550  0.00  0.00    +0.000 NA
ATOM     20  H   UNL     1       6.040   3.493  17.782  0.00  0.00    +0.000 HD
ENDBRANCH  11  12
ENDBRANCH   1  11
TORSDOF 7
ENDMDL
MODEL 8
REMARK VINA RESULT:      -6.4      1.687      1.957
REMARK  Name = 
REMARK  9 active torsions:
REMARK  status: ('A' for Active; 'I' for Inactive)
REMARK    1  A    between atoms: C_1  and  C_2
REMARK    2  A    between atoms: C_2  and  C_3
REMARK    3  A    between atoms: C_3  and  C_4
REMARK    4  A    between atoms: C_4  and  S_5
REMARK    5  A    between atoms: S_5  and  N_8
REMARK    6  A    between atoms: N_8  and  C_9
REMARK    7  A    between atoms: C_9  and  C_10
REMARK    8  A    between atoms: C_10  and  N_11
REMARK    9  A    between atoms: C_15  and  C_16
REMARK                            x       y       z     vdW  Elec       q    Type
REMARK                         _______ _______ _______ _____ _____    ______ ____
ROOT
ATOM      1  C   UNL     1       5.883   6.797  16.515  0.00  0.00    +0.000 C 
ENDROOT
BRANCH   1   2
ATOM      2  N   UNL     1       5.477   6.126  15.262  0.00  0.00    +0.000 NA
ATOM      3  H   UNL     1       4.474   5.977  15.149  0.00  0.00    +0.000 HD
BRANCH   2   4
ATOM      4  S   UNL     1       6.430   4.801  14.814  0.00  0.00    +0.000 S 
ATOM      5  O   UNL     1       6.460   3.877  15.927  0.00  0.00    +0.000 OA
ATOM      6  O   UNL     1       7.638   5.329  14.227  0.00  0.00    +0.000 OA
BRANCH   4   7
ATOM      7  C   UNL     1       5.454   4.064  13.496  0.00  0.00    +0.000 C 
BRANCH   7   8
ATOM      8  C   UNL     1       6.373   3.476  12.429  0.00  0.00    +0.000 C 
BRANCH   8  10
ATOM      9  C   UNL     1       6.802   1.446  11.021  0.00  0.00    +0.000 C 
ATOM     10  C   UNL     1       5.737   2.303  11.690  0.00  0.00    +0.000 C 
ENDBRANCH   8  10
ENDBRANCH   7   8
ENDBRANCH   4   7
ENDBRANCH   2   4
ENDBRANCH   1   2
BRANCH   1  11
ATOM     11  C   UNL     1       5.164   6.223  17.745  0.00  0.00    +0.000 C 
BRANCH  11  12
ATOM     12  N   UNL     1       3.973   5.496  17.296  0.00  0.00    +0.000 N 
ATOM     13  C   UNL     1       3.274   4.824  18.316  0.00  0.00    +0.000 A 
ATOM     14  C   UNL     1       2.146   4.096  17.963  0.00  0.00    +0.000 A 
ATOM     15  C   UNL     1       1.433   3.411  18.940  0.00  0.00    +0.000 A 
ATOM     16  C   UNL     1       1.875   3.476  20.248  0.00  0.00    +0.000 A 
ATOM     17  C   UNL     1       1.184   2.744  21.354  0.00  0.00    +0.000 C 
ATOM     18  N   UNL     1       2.957   4.208  20.581  0.00  0.00    +0.000 NA
ATOM     19  N   UNL     1       3.650   4.892  19.608  0.00  0.00    +0.000 NA
ATOM     20  H   UNL     1       4.196   4.816  16.572  0.00  0.00    +0.000 HD
ENDBRANCH  11  12
ENDBRANCH   1  11
TORSDOF 7
ENDMDL
MODEL 9
REMARK VINA RESULT:      -6.3      2.657      6.382
REMARK  Name = 
REMARK  9 active torsions:
REMARK  status: ('A' for Active; 'I' for Inactive)
REMARK    1  A    between atoms: C_1  and  C_2
REMARK    2  A    between atoms: C_2  and  C_3
REMARK    3  A    between atoms: C_3  and  C_4
REMARK    4  A    between atoms: C_4  and  S_5
REMARK    5  A    between atoms: S_5  and  N_8
REMARK    6  A    between atoms: N_8  and  C_9
REMARK    7  A    between atoms: C_9  and  C_10
REMARK    8  A    between atoms: C_10  and  N_11
REMARK    9  A    between atoms: C_15  and  C_16
REMARK                            x       y       z     vdW  Elec       q    Type
REMARK                         _______ _______ _______ _____ _____    ______ ____
ROOT
ATOM      1  C   UNL     1       6.054   5.934  18.866  0.00  0.00    +0.000 C 
ENDROOT
BRANCH   1   2
ATOM      2  N   UNL     1       4.896   5.370  19.592  0.00  0.00    +0.000 NA
ATOM      3  H   UNL     1       5.035   4.438  19.983  0.00  0.00    +0.000 HD
BRANCH   2   4
ATOM      4  S   UNL     1       3.398   5.589  18.837  0.00  0.00    +0.000 S 
ATOM      5  O   UNL     1       3.268   4.585  17.803  0.00  0.00    +0.000 OA
ATOM      6  O   UNL     1       3.270   6.999  18.554  0.00  0.00    +0.000 OA
BRANCH   4   7
ATOM      7  C   UNL     1       2.248   5.188  20.160  0.00  0.00    +0.000 C 
BRANCH   7   8
ATOM      8  C   UNL     1       2.358   3.709  20.519  0.00  0.00    +0.000 C 
BRANCH   8  10
ATOM      9  C   UNL     1       0.826   2.457  18.978  0.00  0.00    +0.000 C 
ATOM     10  C   UNL     1       1.025   2.976  20.395  0.00  0.00    +0.000 C 
ENDBRANCH   8  10
ENDBRANCH   7   8
ENDBRANCH   4   7
ENDBRANCH   2   4
ENDBRANCH   1   2
BRANCH   1  11
ATOM     11  C   UNL     1       6.992   4.844  18.325  0.00  0.00    +0.000 C 
BRANCH  11  12
ATOM     12  N   UNL     1       6.265   4.050  17.330  0.00  0.00    +0.000 N 
ATOM     13  C   UNL     1       6.599   4.334  15.993  0.00  0.00    +0.000 A 
ATOM     14  C   UNL     1       5.936   3.636  14.993  0.00  0.00    +0.000 A 
ATOM     15  C   UNL     1       6.230   3.894  13.660  0.00  0.00    +0.000 A 
ATOM     16  C   UNL     1       7.185   4.849  13.366  0.00  0.00    +0.000 A 
ATOM     17  C   UNL     1       7.539   5.208  11.959  0.00  0.00    +0.000 C 
ATOM     18  N   UNL     1       7.840   5.501  14.348  0.00  0.00    +0.000 NA
ATOM     19  N   UNL     1       7.549   5.231  15.666  0.00  0.00    +0.000 NA
ATOM     20  H   UNL     1       5.256   4.153  17.428  0.00  0.00    +0.000 HD
ENDBRANCH  11  12
ENDBRANCH   1  11
TORSDOF 7
ENDMDL
