MODEL 1
REMARK VINA RESULT:      -6.9      0.000      0.000
REMARK  Name = 
REMARK  7 active torsions:
REMARK  status: ('A' for Active; 'I' for Inactive)
REMARK    1  A    between atoms: C_1  and  O_2
REMARK    2  A    between atoms: O_2  and  C_3
REMARK    3  A    between atoms: C_6  and  C_7
REMARK    4  A    between atoms: C_9  and  C_10
REMARK    5  A    between atoms: C_10  and  O_12
REMARK    6  A    between atoms: C_16  and  O_17
REMARK    7  A    between atoms: O_17  and  C_18
REMARK                            x       y       z     vdW  Elec       q    Type
REMARK                         _______ _______ _______ _____ _____    ______ ____
ROOT
ATOM      1  C   UNK     1       6.670   5.204  15.756  0.00  0.00    +0.000 A 
ATOM      2  C   UNK     1       5.556   4.365  15.614  0.00  0.00    +0.000 A 
ATOM      3  C   UNK     1       4.570   4.307  16.601  0.00  0.00    +0.000 A 
ATOM      4  C   UNK     1       4.694   5.052  17.779  0.00  0.00    +0.000 A 
ATOM      5  C   UNK     1       5.851   5.828  17.945  0.00  0.00    +0.000 A 
ATOM      6  C   UNK     1       6.850   5.902  16.958  0.00  0.00    +0.000 A 
ENDROOT
BRANCH   4   7
ATOM      7  C   UNK     1       3.658   5.063  18.825  0.00  0.00    +0.000 A 
ATOM      8  N   UNK     1       3.244   3.990  19.478  0.00  0.00    +0.000 NA
ATOM      9  C   UNK     1       2.249   4.341  20.398  0.00  0.00    +0.000 A 
ATOM     10  C   UNK     1       1.916   5.679  20.410  0.00  0.00    +0.000 A 
ATOM     11  S   UNK     1       2.857   6.527  19.265  0.00  0.00    +0.000 S 
BRANCH   9  12
ATOM     12  C   UNK     1       1.645   3.325  21.256  0.00  0.00    +0.000 C 
ATOM     13  O   UNK     1       2.080   2.997  22.349  0.00  0.00    +0.000 OA
BRANCH  12  14
ATOM     14  O   UNK     1       0.535   2.777  20.698  0.00  0.00    +0.000 OA
ATOM     15  H   UNK     1       0.728   2.614  19.745  0.00  0.00    +0.000 HD
ENDBRANCH  12  14
ENDBRANCH   9  12
ENDBRANCH   4   7
BRANCH   1  17
ATOM     16  C   UNK     1       7.204   4.727  13.504  0.00  0.00    +0.000 C 
ATOM     17  O   UNK     1       7.584   5.326  14.744  0.00  0.00    +0.000 OA
ENDBRANCH   1  17
BRANCH   6  18
ATOM     18  O   UNK     1       7.889   6.707  17.338  0.00  0.00    +0.000 OA
ATOM     19  C   UNK     1       7.657   8.094  17.527  0.00  0.00    +0.000 C 
ENDBRANCH   6  18
TORSDOF 5
ENDMDL
MODEL 2
REMARK VINA RESULT:      -6.8      1.149      1.156
REMARK  Name = 
REMARK  7 active torsions:
REMARK  status: ('A' for Active; 'I' for Inactive)
REMARK    1  A    between atoms: C_1  and  O_2
REMARK    2  A    between atoms: O_2  and  C_3
REMARK    3  A    between atoms: C_6  and  C_7
REMARK    4  A    between atoms: C_9  and  C_10
REMARK    5  A    between atoms: C_10  and  O_12
REMARK    6  A    between atoms: C_16  and  O_17
REMARK    7  A    between atoms: O_17  and  C_18
REMARK                            x       y       z     vdW  Elec       q    Type
REMARK                         _______ _______ _______ _____ _____    ______ ____
ROOT
ATOM      1  C   UNK     1       6.669   5.171  15.588  0.00  0.00    +0.000 A 
ATOM      2  C   UNK     1       6.117   3.882  15.564  0.00  0.00    +0.000 A 
ATOM      3  C   UNK     1       5.073   3.532  16.423  0.00  0.00    +0.000 A 
ATOM      4  C   UNK     1       4.583   4.447  17.360  0.00  0.00    +0.000 A 
ATOM      5  C   UNK     1       5.195   5.708  17.428  0.00  0.00    +0.000 A 
ATOM      6  C   UNK     1       6.243   6.078  16.568  0.00  0.00    +0.000 A 
ENDROOT
BRANCH   4   7
ATOM      7  C   UNK     1       3.451   4.142  18.251  0.00  0.00    +0.000 A 
ATOM      8  N   UNK     1       3.563   3.531  19.419  0.00  0.00    +0.000 NA
ATOM      9  C   UNK     1       2.302   3.388  20.009  0.00  0.00    +0.000 A 
ATOM     10  C   UNK     1       1.252   3.882  19.264  0.00  0.00    +0.000 A 
ATOM     11  S   UNK     1       1.834   4.546  17.802  0.00  0.00    +0.000 S 
BRANCH   9  12
ATOM     12  C   UNK     1       2.167   2.757  21.320  0.00  0.00    +0.000 C 
ATOM     13  O   UNK     1       3.101   2.331  21.981  0.00  0.00    +0.000 OA
BRANCH  12  14
ATOM     14  O   UNK     1       0.873   2.693  21.727  0.00  0.00    +0.000 OA
ATOM     15  H   UNK     1       0.381   3.421  21.279  0.00  0.00    +0.000 HD
ENDBRANCH  12  14
ENDBRANCH   9  12
ENDBRANCH   4   7
BRANCH   1  17
ATOM     16  C   UNK     1       7.469   4.986  13.372  0.00  0.00    +0.000 C 
ATOM     17  O   UNK     1       7.628   5.535  14.681  0.00  0.00    +0.000 OA
ENDBRANCH   1  17
BRANCH   6  18
ATOM     18  O   UNK     1       6.693   7.345  16.820  0.00  0.00    +0.000 OA
ATOM     19  C   UNK     1       7.724   7.536  17.776  0.00  0.00    +0.000 C 
ENDBRANCH   6  18
TORSDOF 5
ENDMDL
MODEL 3
REMARK VINA RESULT:      -6.7      1.004      1.303
REMARK  Name = 
REMARK  7 active torsions:
REMARK  status: ('A' for Active; 'I' for Inactive)
REMARK    1  A    between atoms: C_1  and  O_2
REMARK    2  A    between atoms: O_2  and  C_3
REMARK    3  A    between atoms: C_6  and  C_7
REMARK    4  A    between atoms: C_9  and  C_10
REMARK    5  A    between atoms: C_10  and  O_12
REMARK    6  A    between atoms: C_16  and  O_17
REMARK    7  A    between atoms: O_17  and  C_18
REMARK                            x       y       z     vdW  Elec       q    Type
REMARK                         _______ _______ _______ _____ _____    ______ ____
ROOT
ATOM      1  C   UNK     1       6.906   5.016  15.183  0.00  0.00    +0.000 A 
ATOM      2  C   UNK     1       5.976   3.969  15.104  0.00  0.00    +0.000 A 
ATOM      3  C   UNK     1       4.958   3.839  16.051  0.00  0.00    +0.000 A 
ATOM      4  C   UNK     1       4.869   4.727  17.129  0.00  0.00    +0.000 A 
ATOM      5  C   UNK     1       5.850   5.723  17.241  0.00  0.00    +0.000 A 
ATOM      6  C   UNK     1       6.878   5.870  16.293  0.00  0.00    +0.000 A 
ENDROOT
BRANCH   4   7
ATOM      7  C   UNK     1       3.784   4.662  18.123  0.00  0.00    +0.000 A 
ATOM      8  N   UNK     1       2.911   3.673  18.213  0.00  0.00    +0.000 NA
ATOM      9  C   UNK     1       2.011   3.920  19.255  0.00  0.00    +0.000 A 
ATOM     10  C   UNK     1       2.212   5.107  19.927  0.00  0.00    +0.000 A 
ATOM     11  S   UNK     1       3.549   5.936  19.263  0.00  0.00    +0.000 S 
BRANCH   9  12
ATOM     12  C   UNK     1       0.957   2.956  19.565  0.00  0.00    +0.000 C 
ATOM     13  O   UNK     1       0.362   2.292  18.732  0.00  0.00    +0.000 OA
BRANCH  12  14
ATOM     14  O   UNK     1       0.708   2.881  20.898  0.00  0.00    +0.000 OA
ATOM     15  H   UNK     1       1.090   3.686  21.321  0.00  0.00    +0.000 HD
ENDBRANCH  12  14
ENDBRANCH   9  12
ENDBRANCH   4   7
BRANCH   1  17
ATOM     16  C   UNK     1       7.411   4.862  12.880  0.00  0.00    +0.000 C 
ATOM     17  O   UNK     1       7.843   5.190  14.201  0.00  0.00    +0.000 OA
ENDBRANCH   1  17
BRANCH   6  18
ATOM     18  O   UNK     1       7.725   6.898  16.609  0.00  0.00    +0.000 OA
ATOM     19  C   UNK     1       7.548   7.589  17.836  0.00  0.00    +0.000 C 
ENDBRANCH   6  18
TORSDOF 5
ENDMDL
MODEL 4
REMARK VINA RESULT:      -6.7      1.625      1.842
REMARK  Name = 
REMARK  7 active torsions:
REMARK  status: ('A' for Active; 'I' for Inactive)
REMARK    1  A    between atoms: C_1  and  O_2
REMARK    2  A    between atoms: O_2  and  C_3
REMARK    3  A    between atoms: C_6  and  C_7
REMARK    4  A    between atoms: C_9  and  C_10
REMARK    5  A    between atoms: C_10  and  O_12
REMARK    6  A    between atoms: C_16  and  O_17
REMARK    7  A    between atoms: O_17  and  C_18
REMARK                            x       y       z     vdW  Elec       q    Type
REMARK                         _______ _______ _______ _____ _____    ______ ____
ROOT
ATOM      1  C   UNK     1       6.831   5.023  15.457  0.00  0.00    +0.000 A 
ATOM      2  C   UNK     1       5.790   4.210  14.984  0.00  0.00    +0.000 A 
ATOM      3  C   UNK     1       4.829   3.693  15.856  0.00  0.00    +0.000 A 
ATOM      4  C   UNK     1       4.908   3.937  17.231  0.00  0.00    +0.000 A 
ATOM      5  C   UNK     1       5.997   4.686  17.703  0.00  0.00    +0.000 A 
ATOM      6  C   UNK     1       6.970   5.218  16.838  0.00  0.00    +0.000 A 
ENDROOT
BRANCH   4   7
ATOM      7  C   UNK     1       3.892   3.456  18.182  0.00  0.00    +0.000 A 
ATOM      8  N   UNK     1       3.684   3.977  19.380  0.00  0.00    +0.000 NA
ATOM      9  C   UNK     1       2.655   3.288  20.032  0.00  0.00    +0.000 A 
ATOM     10  C   UNK     1       2.112   2.242  19.316  0.00  0.00    +0.000 A 
ATOM     11  S   UNK     1       2.884   2.109  17.798  0.00  0.00    +0.000 S 
BRANCH   9  12
ATOM     12  C   UNK     1       2.228   3.691  21.369  0.00  0.00    +0.000 C 
ATOM     13  O   UNK     1       1.818   2.922  22.225  0.00  0.00    +0.000 OA
BRANCH  12  14
ATOM     14  O   UNK     1       2.337   5.031  21.559  0.00  0.00    +0.000 OA
ATOM     15  H   UNK     1       2.981   5.179  22.291  0.00  0.00    +0.000 HD
ENDBRANCH  12  14
ENDBRANCH   9  12
ENDBRANCH   4   7
BRANCH   1  17
ATOM     16  C   UNK     1       7.685   5.085  13.255  0.00  0.00    +0.000 C 
ATOM     17  O   UNK     1       7.714   5.601  14.587  0.00  0.00    +0.000 OA
ENDBRANCH   1  17
BRANCH   6  18
ATOM     18  O   UNK     1       7.942   5.901  17.517  0.00  0.00    +0.000 OA
ATOM     19  C   UNK     1       7.776   6.145  18.905  0.00  0.00    +0.000 C 
ENDBRANCH   6  18
TORSDOF 5
ENDMDL
MODEL 5
REMARK VINA RESULT:      -6.6      1.310      1.468
REMARK  Name = 
REMARK  7 active torsions:
REMARK  status: ('A' for Active; 'I' for Inactive)
REMARK    1  A    between atoms: C_1  and  O_2
REMARK    2  A    between atoms: O_2  and  C_3
REMARK    3  A    between atoms: C_6  and  C_7
REMARK    4  A    between atoms: C_9  and  C_10
REMARK    5  A    between atoms: C_10  and  O_12
REMARK    6  A    between atoms: C_16  and  O_17
REMARK    7  A    between atoms: O_17  and  C_18
REMARK                            x       y       z     vdW  Elec       q    Type
REMARK                         _______ _______ _______ _____ _____    ______ ____
ROOT
ATOM      1  C   UNK     1       6.686   5.091  15.580  0.00  0.00    +0.000 A 
ATOM      2  C   UNK     1       5.591   4.349  15.117  0.00  0.00    +0.000 A 
ATOM      3  C   UNK     1       4.552   3.987  15.977  0.00  0.00    +0.000 A 
ATOM      4  C   UNK     1       4.603   4.319  17.335  0.00  0.00    +0.000 A 
ATOM      5  C   UNK     1       5.740   4.994  17.804  0.00  0.00    +0.000 A 
ATOM      6  C   UNK     1       6.792   5.370  16.949  0.00  0.00    +0.000 A 
ENDROOT
BRANCH   4   7
ATOM      7  C   UNK     1       3.510   4.005  18.271  0.00  0.00    +0.000 A 
ATOM      8  N   UNK     1       3.677   3.431  19.450  0.00  0.00    +0.000 NA
ATOM      9  C   UNK     1       2.441   3.267  20.085  0.00  0.00    +0.000 A 
ATOM     10  C   UNK     1       1.354   3.708  19.362  0.00  0.00    +0.000 A 
ATOM     11  S   UNK     1       1.868   4.349  17.864  0.00  0.00    +0.000 S 
BRANCH   9  12
ATOM     12  C   UNK     1       2.368   2.669  21.416  0.00  0.00    +0.000 C 
ATOM     13  O   UNK     1       1.376   2.687  22.128  0.00  0.00    +0.000 OA
BRANCH  12  14
ATOM     14  O   UNK     1       3.538   2.083  21.779  0.00  0.00    +0.000 OA
ATOM     15  H   UNK     1       3.581   2.084  22.764  0.00  0.00    +0.000 HD
ENDBRANCH  12  14
ENDBRANCH   9  12
ENDBRANCH   4   7
BRANCH   1  17
ATOM     16  C   UNK     1       7.567   4.989  13.389  0.00  0.00    +0.000 C 
ATOM     17  O   UNK     1       7.654   5.521  14.712  0.00  0.00    +0.000 OA
ENDBRANCH   1  17
BRANCH   6  18
ATOM     18  O   UNK     1       7.799   6.006  17.623  0.00  0.00    +0.000 OA
ATOM     19  C   UNK     1       7.825   5.953  19.041  0.00  0.00    +0.000 C 
ENDBRANCH   6  18
TORSDOF 5
ENDMDL
MODEL 6
REMARK VINA RESULT:      -6.6      1.712      1.915
REMARK  Name = 
REMARK  7 active torsions:
REMARK  status: ('A' for Active; 'I' for Inactive)
REMARK    1  A    between atoms: C_1  and  O_2
REMARK    2  A    between atoms: O_2  and  C_3
REMARK    3  A    between atoms: C_6  and  C_7
REMARK    4  A    between atoms: C_9  and  C_10
REMARK    5  A    between atoms: C_10  and  O_12
REMARK    6  A    between atoms: C_16  and  O_17
REMARK    7  A    between atoms: O_17  and  C_18
REMARK                            x       y       z     vdW  Elec       q    Type
REMARK                         _______ _______ _______ _____ _____    ______ ____
ROOT
ATOM      1  C   UNK     1       6.989   5.058  14.974  0.00  0.00    +0.000 A 
ATOM      2  C   UNK     1       6.187   3.952  14.660  0.00  0.00    +0.000 A 
ATOM      3  C   UNK     1       5.218   3.490  15.553  0.00  0.00    +0.000 A 
ATOM      4  C   UNK     1       5.056   4.093  16.805  0.00  0.00    +0.000 A 
ATOM      5  C   UNK     1       5.917   5.149  17.140  0.00  0.00    +0.000 A 
ATOM      6  C   UNK     1       6.893   5.630  16.250  0.00  0.00    +0.000 A 
ENDROOT
BRANCH   4   7
ATOM      7  C   UNK     1       4.016   3.674  17.759  0.00  0.00    +0.000 A 
ATOM      8  N   UNK     1       3.331   4.503  18.529  0.00  0.00    +0.000 NA
ATOM      9  C   UNK     1       2.428   3.787  19.323  0.00  0.00    +0.000 A 
ATOM     10  C   UNK     1       2.459   2.419  19.148  0.00  0.00    +0.000 A 
ATOM     11  S   UNK     1       3.626   2.006  17.971  0.00  0.00    +0.000 S 
BRANCH   9  12
ATOM     12  C   UNK     1       1.540   4.487  20.248  0.00  0.00    +0.000 C 
ATOM     13  O   UNK     1       1.789   5.569  20.758  0.00  0.00    +0.000 OA
BRANCH  12  14
ATOM     14  O   UNK     1       0.396   3.795  20.483  0.00  0.00    +0.000 OA
ATOM     15  H   UNK     1       0.644   2.861  20.674  0.00  0.00    +0.000 HD
ENDBRANCH  12  14
ENDBRANCH   9  12
ENDBRANCH   4   7
BRANCH   1  17
ATOM     16  C   UNK     1       7.710   5.075  12.724  0.00  0.00    +0.000 C 
ATOM     17  O   UNK     1       7.871   5.563  14.057  0.00  0.00    +0.000 OA
ENDBRANCH   1  17
BRANCH   6  18
ATOM     18  O   UNK     1       7.623   6.654  16.791  0.00  0.00    +0.000 OA
ATOM     19  C   UNK     1       7.679   6.793  18.202  0.00  0.00    +0.000 C 
ENDBRANCH   6  18
TORSDOF 5
ENDMDL
MODEL 7
REMARK VINA RESULT:      -6.3      2.242      6.725
REMARK  Name = 
REMARK  7 active torsions:
REMARK  status: ('A' for Active; 'I' for Inactive)
REMARK    1  A    between atoms: C_1  and  O_2
REMARK    2  A    between atoms: O_2  and  C_3
REMARK    3  A    between atoms: C_6  and  C_7
REMARK    4  A    between atoms: C_9  and  C_10
REMARK    5  A    between atoms: C_10  and  O_12
REMARK    6  A    between atoms: C_16  and  O_17
REMARK    7  A    between atoms: O_17  and  C_18
REMARK                            x       y       z     vdW  Elec       q    Type
REMARK                         _______ _______ _______ _____ _____    ______ ____
ROOT
ATOM      1  C   UNK     1       1.938   3.345  19.603  0.00  0.00    +0.000 A 
ATOM      2  C   UNK     1       2.399   2.378  18.698  0.00  0.00    +0.000 A 
ATOM      3  C   UNK     1       3.469   2.648  17.842  0.00  0.00    +0.000 A 
ATOM      4  C   UNK     1       4.077   3.907  17.834  0.00  0.00    +0.000 A 
ATOM      5  C   UNK     1       3.557   4.892  18.687  0.00  0.00    +0.000 A 
ATOM      6  C   UNK     1       2.484   4.636  19.559  0.00  0.00    +0.000 A 
ENDROOT
BRANCH   4   7
ATOM      7  C   UNK     1       5.239   4.223  16.986  0.00  0.00    +0.000 A 
ATOM      8  N   UNK     1       5.260   4.097  15.670  0.00  0.00    +0.000 NA
ATOM      9  C   UNK     1       6.513   4.472  15.171  0.00  0.00    +0.000 A 
ATOM     10  C   UNK     1       7.426   4.860  16.128  0.00  0.00    +0.000 A 
ATOM     11  S   UNK     1       6.722   4.770  17.681  0.00  0.00    +0.000 S 
BRANCH   9  12
ATOM     12  C   UNK     1       6.777   4.436  13.734  0.00  0.00    +0.000 C 
ATOM     13  O   UNK     1       6.275   3.636  12.960  0.00  0.00    +0.000 OA
BRANCH  12  14
ATOM     14  O   UNK     1       7.653   5.400  13.351  0.00  0.00    +0.000 OA
ATOM     15  H   UNK     1       7.218   6.273  13.492  0.00  0.00    +0.000 HD
ENDBRANCH  12  14
ENDBRANCH   9  12
ENDBRANCH   4   7
BRANCH   1  17
ATOM     16  C   UNK     1       1.408   2.619  21.788  0.00  0.00    +0.000 C 
ATOM     17  O   UNK     1       0.952   3.044  20.502  0.00  0.00    +0.000 OA
ENDBRANCH   1  17
BRANCH   6  18
ATOM     18  O   UNK     1       2.138   5.741  20.288  0.00  0.00    +0.000 OA
ATOM     19  C   UNK     1       2.297   7.028  19.711  0.00  0.00    +0.000 C 
ENDBRANCH   6  18
TORSDOF 5
ENDMDL
MODEL 8
REMARK VINA RESULT:      -6.1      1.596      1.863
REMARK  Name = 
REMARK  7 active torsions:
REMARK  status: ('A' for Active; 'I' for Inactive)
REMARK    1  A    between atoms: C_1  and  O_2
REMARK    2  A    between atoms: O_2  and  C_3
REMARK    3  A    between atoms: C_6  and  C_7
REMARK    4  A    between atoms: C_9  and  C_10
REMARK    5  A    between atoms: C_10  and  O_12
REMARK    6  A    between atoms: C_16  and  O_17
REMARK    7  A    between atoms: O_17  and  C_18
REMARK                            x       y       z     vdW  Elec       q    Type
REMARK                         _______ _______ _______ _____ _____    ______ ____
ROOT
ATOM      1  C   UNK     1       6.969   5.069  15.110  0.00  0.00    +0.000 A 
ATOM      2  C   UNK     1       6.123   3.955  15.007  0.00  0.00    +0.000 A 
ATOM      3  C   UNK     1       5.272   3.599  16.056  0.00  0.00    +0.000 A 
ATOM      4  C   UNK     1       5.276   4.320  17.254  0.00  0.00    +0.000 A 
ATOM      5  C   UNK     1       6.182   5.385  17.376  0.00  0.00    +0.000 A 
ATOM      6  C   UNK     1       7.042   5.759  16.328  0.00  0.00    +0.000 A 
ENDROOT
BRANCH   4   7
ATOM      7  C   UNK     1       4.363   4.015  18.368  0.00  0.00    +0.000 A 
ATOM      8  N   UNK     1       3.418   4.832  18.804  0.00  0.00    +0.000 NA
ATOM      9  C   UNK     1       2.734   4.245  19.875  0.00  0.00    +0.000 A 
ATOM     10  C   UNK     1       3.188   2.996  20.241  0.00  0.00    +0.000 A 
ATOM     11  S   UNK     1       4.486   2.528  19.235  0.00  0.00    +0.000 S 
BRANCH   9  12
ATOM     12  C   UNK     1       1.627   4.950  20.519  0.00  0.00    +0.000 C 
ATOM     13  O   UNK     1       0.483   4.530  20.580  0.00  0.00    +0.000 OA
BRANCH  12  14
ATOM     14  O   UNK     1       2.016   6.139  21.048  0.00  0.00    +0.000 OA
ATOM     15  H   UNK     1       1.228   6.549  21.476  0.00  0.00    +0.000 HD
ENDBRANCH  12  14
ENDBRANCH   9  12
ENDBRANCH   4   7
BRANCH   1  17
ATOM     16  C   UNK     1       7.468   4.783  12.818  0.00  0.00    +0.000 C 
ATOM     17  O   UNK     1       7.731   5.466  14.045  0.00  0.00    +0.000 OA
ENDBRANCH   1  17
BRANCH   6  18
ATOM     18  O   UNK     1       7.843   6.814  16.672  0.00  0.00    +0.000 OA
ATOM     19  C   UNK     1       7.334   7.816  17.538  0.00  0.00    +0.000 C 
ENDBRANCH   6  18
TORSDOF 5
ENDMDL
MODEL 9
REMARK VINA RESULT:      -6.1      3.621      6.588
REMARK  Name = 
REMARK  7 active torsions:
REMARK  status: ('A' for Active; 'I' for Inactive)
REMARK    1  A    between atoms: C_1  and  O_2
REMARK    2  A    between atoms: O_2  and  C_3
REMARK    3  A    between atoms: C_6  and  C_7
REMARK    4  A    between atoms: C_9  and  C_10
REMARK    5  A    between atoms: C_10  and  O_12
REMARK    6  A    between atoms: C_16  and  O_17
REMARK    7  A    between atoms: O_17  and  C_18
REMARK                            x       y       z     vdW  Elec       q    Type
REMARK                         _______ _______ _______ _____ _____    ______ ____
ROOT
ATOM      1  C   UNK     1       1.185   9.347  19.083  0.00  0.00    +0.000 A 
ATOM      2  C   UNK     1       1.876   9.348  17.863  0.00  0.00    +0.000 A 
ATOM      3  C   UNK     1       2.729   8.296  17.520  0.00  0.00    +0.000 A 
ATOM      4  C   UNK     1       2.949   7.238  18.407  0.00  0.00    +0.000 A 
ATOM      5  C   UNK     1       2.313   7.286  19.656  0.00  0.00    +0.000 A 
ATOM      6  C   UNK     1       1.448   8.334  20.016  0.00  0.00    +0.000 A 
ENDROOT
BRANCH   4   7
ATOM      7  C   UNK     1       3.798   6.083  18.069  0.00  0.00    +0.000 A 
ATOM      8  N   UNK     1       5.100   6.152  17.847  0.00  0.00    +0.000 NA
ATOM      9  C   UNK     1       5.604   4.881  17.546  0.00  0.00    +0.000 A 
ATOM     10  C   UNK     1       4.664   3.873  17.529  0.00  0.00    +0.000 A 
ATOM     11  S   UNK     1       3.121   4.503  17.902  0.00  0.00    +0.000 S 
BRANCH   9  12
ATOM     12  C   UNK     1       7.028   4.696  17.279  0.00  0.00    +0.000 C 
ATOM     13  O   UNK     1       7.533   4.729  16.168  0.00  0.00    +0.000 OA
BRANCH  12  14
ATOM     14  O   UNK     1       7.738   4.479  18.416  0.00  0.00    +0.000 OA
ATOM     15  H   UNK     1       7.352   3.690  18.865  0.00  0.00    +0.000 HD
ENDBRANCH  12  14
ENDBRANCH   9  12
ENDBRANCH   4   7
BRANCH   1  17
ATOM     16  C   UNK     1       0.844  11.621  19.629  0.00  0.00    +0.000 C 
ATOM     17  O   UNK     1       0.281  10.333  19.373  0.00  0.00    +0.000 OA
ENDBRANCH   1  17
BRANCH   6  18
ATOM     18  O   UNK     1       0.951   8.180  21.282  0.00  0.00    +0.000 OA
ATOM     19  C   UNK     1       1.391   9.056  22.308  0.00  0.00    +0.000 C 
ENDBRANCH   6  18
TORSDOF 5
ENDMDL
