MODEL 1
REMARK VINA RESULT:      -8.2      0.000      0.000
REMARK  Name = 
REMARK  9 active torsions:
REMARK  status: ('A' for Active; 'I' for Inactive)
REMARK    1  A    between atoms: C_1  and  O_2
REMARK    2  A    between atoms: O_2  and  C_3
REMARK    3  A    between atoms: C_6  and  C_7
REMARK    4  A    between atoms: C_7  and  C_8
REMARK    5  A    between atoms: C_17  and  C_19
REMARK    6  A    between atoms: C_21  and  C_22
REMARK    7  A    between atoms: C_25  and  N_26
REMARK    8  A    between atoms: C_32  and  O_33
REMARK    9  A    between atoms: O_33  and  C_34
REMARK                            x       y       z     vdW  Elec       q    Type
REMARK                         _______ _______ _______ _____ _____    ______ ____
ROOT
ATOM      1  C   UNL     1       3.135   5.774  18.639  0.00  0.00    +0.000 C 
ATOM      2  C   UNL     1       2.347   4.612  19.302  0.00  0.00    +0.000 A 
ATOM      3  S   UNL     1       1.293   4.787  20.646  0.00  0.00    +0.000 S 
ATOM      4  C   UNL     1       0.683   3.205  20.477  0.00  0.00    +0.000 A 
ATOM      5  C   UNL     1       1.488   2.459  19.652  0.00  0.00    +0.000 A 
ATOM      6  C   UNL     1       2.500   3.258  19.042  0.00  0.00    +0.000 A 
ATOM      7  C   UNL     1       3.576   2.745  18.171  0.00  0.00    +0.000 C 
ATOM      8  C   UNL     1       4.573   3.847  17.820  0.00  0.00    +0.000 C 
ATOM      9  N   UNL     1       3.980   5.163  17.504  0.00  0.00    +0.000 N 
ATOM     10  C   UNL     1       4.438   5.945  16.408  0.00  0.00    +0.000 C 
ATOM     11  O   UNL     1       4.025   7.073  16.157  0.00  0.00    +0.000 OA
ENDROOT
BRANCH  10  12
ATOM     12  C   UNL     1       5.561   5.485  15.520  0.00  0.00    +0.000 A 
ATOM     13  C   UNL     1       5.218   4.649  14.435  0.00  0.00    +0.000 A 
ATOM     14  C   UNL     1       6.169   4.137  13.543  0.00  0.00    +0.000 A 
ATOM     15  C   UNL     1       5.743   3.406  12.305  0.00  0.00    +0.000 C 
ATOM     16  C   UNL     1       7.517   4.308  13.829  0.00  0.00    +0.000 A 
ATOM     17  C   UNL     1       7.895   5.005  14.972  0.00  0.00    +0.000 A 
ATOM     18  C   UNL     1       6.935   5.619  15.818  0.00  0.00    +0.000 A 
BRANCH  18  19
ATOM     19  N   UNL     1       7.451   6.325  16.941  0.00  0.00    +0.000 N 
ATOM     20  N   UNL     1       7.655   5.775  18.168  0.00  0.00    +0.000 NA
ATOM     21  C   UNL     1       8.092   6.814  18.884  0.00  0.00    +0.000 A 
ATOM     22  C   UNL     1       8.063   7.977  18.101  0.00  0.00    +0.000 A 
ATOM     23  N   UNL     1       7.590   7.690  16.887  0.00  0.00    +0.000 NA
ENDBRANCH  18  19
ENDBRANCH  10  12
BRANCH   1  24
ATOM     24  C   UNL     1       2.217   6.981  18.225  0.00  0.00    +0.000 C 
BRANCH  24  28
ATOM     25  C   UNL     1       0.982   9.711  21.376  0.00  0.00    +0.000 A 
ATOM     26  C   UNL     1       1.495   8.443  21.680  0.00  0.00    +0.000 A 
ATOM     27  C   UNL     1       1.827   7.538  20.667  0.00  0.00    +0.000 A 
ATOM     28  C   UNL     1       1.696   7.897  19.325  0.00  0.00    +0.000 A 
ATOM     29  C   UNL     1       1.089   9.126  19.025  0.00  0.00    +0.000 A 
ATOM     30  C   UNL     1       0.717  10.035  20.035  0.00  0.00    +0.000 A 
BRANCH  25  32
ATOM     31  C   UNL     1      -0.549  10.415  23.042  0.00  0.00    +0.000 C 
ATOM     32  O   UNL     1       0.688  10.616  22.364  0.00  0.00    +0.000 OA
ENDBRANCH  25  32
BRANCH  30  33
ATOM     33  O   UNL     1       0.117  11.162  19.532  0.00  0.00    +0.000 OA
ATOM     34  C   UNL     1      -1.279  11.147  19.276  0.00  0.00    +0.000 C 
ENDBRANCH  30  33
ENDBRANCH  24  28
ENDBRANCH   1  24
TORSDOF 6
ENDMDL
MODEL 2
REMARK VINA RESULT:      -8.2      0.927      1.764
REMARK  Name = 
REMARK  9 active torsions:
REMARK  status: ('A' for Active; 'I' for Inactive)
REMARK    1  A    between atoms: C_1  and  O_2
REMARK    2  A    between atoms: O_2  and  C_3
REMARK    3  A    between atoms: C_6  and  C_7
REMARK    4  A    between atoms: C_7  and  C_8
REMARK    5  A    between atoms: C_17  and  C_19
REMARK    6  A    between atoms: C_21  and  C_22
REMARK    7  A    between atoms: C_25  and  N_26
REMARK    8  A    between atoms: C_32  and  O_33
REMARK    9  A    between atoms: O_33  and  C_34
REMARK                            x       y       z     vdW  Elec       q    Type
REMARK                         _______ _______ _______ _____ _____    ______ ____
ROOT
ATOM      1  C   UNL     1       3.266   5.745  18.994  0.00  0.00    +0.000 C 
ATOM      2  C   UNL     1       2.822   4.580  19.918  0.00  0.00    +0.000 A 
ATOM      3  S   UNL     1       1.864   4.763  21.332  0.00  0.00    +0.000 S 
ATOM      4  C   UNL     1       1.626   3.083  21.486  0.00  0.00    +0.000 A 
ATOM      5  C   UNL     1       2.514   2.391  20.701  0.00  0.00    +0.000 A 
ATOM      6  C   UNL     1       3.263   3.266  19.859  0.00  0.00    +0.000 A 
ATOM      7  C   UNL     1       4.358   2.848  18.961  0.00  0.00    +0.000 C 
ATOM      8  C   UNL     1       5.042   4.058  18.327  0.00  0.00    +0.000 C 
ATOM      9  N   UNL     1       4.138   5.136  17.879  0.00  0.00    +0.000 N 
ATOM     10  C   UNL     1       4.316   5.788  16.627  0.00  0.00    +0.000 C 
ATOM     11  O   UNL     1       3.635   6.737  16.251  0.00  0.00    +0.000 OA
ENDROOT
BRANCH  10  12
ATOM     12  C   UNL     1       5.443   5.428  15.698  0.00  0.00    +0.000 A 
ATOM     13  C   UNL     1       5.141   4.548  14.636  0.00  0.00    +0.000 A 
ATOM     14  C   UNL     1       6.101   4.120  13.711  0.00  0.00    +0.000 A 
ATOM     15  C   UNL     1       5.700   3.334  12.499  0.00  0.00    +0.000 C 
ATOM     16  C   UNL     1       7.436   4.426  13.940  0.00  0.00    +0.000 A 
ATOM     17  C   UNL     1       7.789   5.171  15.060  0.00  0.00    +0.000 A 
ATOM     18  C   UNL     1       6.808   5.700  15.939  0.00  0.00    +0.000 A 
BRANCH  18  19
ATOM     19  N   UNL     1       7.296   6.467  17.033  0.00  0.00    +0.000 N 
ATOM     20  N   UNL     1       7.560   7.800  16.981  0.00  0.00    +0.000 NA
ATOM     21  C   UNL     1       8.031   8.053  18.205  0.00  0.00    +0.000 A 
ATOM     22  C   UNL     1       8.119   6.859  18.936  0.00  0.00    +0.000 A 
ATOM     23  N   UNL     1       7.722   5.837  18.177  0.00  0.00    +0.000 NA
ENDBRANCH  18  19
ENDBRANCH  10  12
BRANCH   1  24
ATOM     24  C   UNL     1       2.064   6.632  18.504  0.00  0.00    +0.000 C 
BRANCH  24  28
ATOM     25  C   UNL     1       1.288  10.544  20.239  0.00  0.00    +0.000 A 
ATOM     26  C   UNL     1       1.588  10.405  18.878  0.00  0.00    +0.000 A 
ATOM     27  C   UNL     1       1.907   9.157  18.333  0.00  0.00    +0.000 A 
ATOM     28  C   UNL     1       1.888   8.010  19.129  0.00  0.00    +0.000 A 
ATOM     29  C   UNL     1       1.685   8.166  20.509  0.00  0.00    +0.000 A 
ATOM     30  C   UNL     1       1.398   9.422  21.078  0.00  0.00    +0.000 A 
BRANCH  25  32
ATOM     31  C   UNL     1       1.664  12.882  20.279  0.00  0.00    +0.000 C 
ATOM     32  O   UNL     1       0.941  11.758  20.772  0.00  0.00    +0.000 OA
ENDBRANCH  25  32
BRANCH  30  33
ATOM     33  O   UNL     1       1.262   9.361  22.442  0.00  0.00    +0.000 OA
ATOM     34  C   UNL     1      -0.038   9.387  23.010  0.00  0.00    +0.000 C 
ENDBRANCH  30  33
ENDBRANCH  24  28
ENDBRANCH   1  24
TORSDOF 6
ENDMDL
MODEL 3
REMARK VINA RESULT:      -7.6      7.321      9.642
REMARK  Name = 
REMARK  9 active torsions:
REMARK  status: ('A' for Active; 'I' for Inactive)
REMARK    1  A    between atoms: C_1  and  O_2
REMARK    2  A    between atoms: O_2  and  C_3
REMARK    3  A    between atoms: C_6  and  C_7
REMARK    4  A    between atoms: C_7  and  C_8
REMARK    5  A    between atoms: C_17  and  C_19
REMARK    6  A    between atoms: C_21  and  C_22
REMARK    7  A    between atoms: C_25  and  N_26
REMARK    8  A    between atoms: C_32  and  O_33
REMARK    9  A    between atoms: O_33  and  C_34
REMARK                            x       y       z     vdW  Elec       q    Type
REMARK                         _______ _______ _______ _____ _____    ______ ____
ROOT
ATOM      1  C   UNL     1       6.411  16.302  19.959  0.00  0.00    +0.000 C 
ATOM      2  C   UNL     1       5.671  16.120  21.311  0.00  0.00    +0.000 A 
ATOM      3  S   UNL     1       4.665  17.304  22.043  0.00  0.00    +0.000 S 
ATOM      4  C   UNL     1       4.078  16.205  23.206  0.00  0.00    +0.000 A 
ATOM      5  C   UNL     1       4.865  15.081  23.253  0.00  0.00    +0.000 A 
ATOM      6  C   UNL     1       5.838  15.076  22.210  0.00  0.00    +0.000 A 
ATOM      7  C   UNL     1       6.890  14.055  22.035  0.00  0.00    +0.000 C 
ATOM      8  C   UNL     1       7.852  14.442  20.914  0.00  0.00    +0.000 C 
ATOM      9  N   UNL     1       7.223  15.017  19.707  0.00  0.00    +0.000 N 
ATOM     10  C   UNL     1       7.625  14.630  18.398  0.00  0.00    +0.000 C 
ATOM     11  O   UNL     1       7.181  15.137  17.372  0.00  0.00    +0.000 OA
ENDROOT
BRANCH  10  12
ATOM     12  C   UNL     1       8.722  13.627  18.170  0.00  0.00    +0.000 A 
ATOM     13  C   UNL     1       8.393  12.266  18.350  0.00  0.00    +0.000 A 
ATOM     14  C   UNL     1       9.324  11.233  18.187  0.00  0.00    +0.000 A 
ATOM     15  C   UNL     1       8.891   9.798  18.210  0.00  0.00    +0.000 C 
ATOM     16  C   UNL     1      10.663  11.559  18.012  0.00  0.00    +0.000 A 
ATOM     17  C   UNL     1      11.047  12.895  17.974  0.00  0.00    +0.000 A 
ATOM     18  C   UNL     1      10.092  13.944  18.030  0.00  0.00    +0.000 A 
BRANCH  18  19
ATOM     19  N   UNL     1      10.609  15.267  17.956  0.00  0.00    +0.000 N 
ATOM     20  N   UNL     1      10.942  15.899  16.799  0.00  0.00    +0.000 NA
ATOM     21  C   UNL     1      11.414  17.071  17.232  0.00  0.00    +0.000 A 
ATOM     22  C   UNL     1      11.434  17.086  18.634  0.00  0.00    +0.000 A 
ATOM     23  N   UNL     1      10.991  15.919  19.103  0.00  0.00    +0.000 NA
ENDBRANCH  18  19
ENDBRANCH  10  12
BRANCH   1  24
ATOM     24  C   UNL     1       5.456  16.739  18.789  0.00  0.00    +0.000 C 
BRANCH  24  28
ATOM     25  C   UNL     1       1.593  14.741  18.748  0.00  0.00    +0.000 A 
ATOM     26  C   UNL     1       2.774  14.035  18.485  0.00  0.00    +0.000 A 
ATOM     27  C   UNL     1       4.008  14.689  18.428  0.00  0.00    +0.000 A 
ATOM     28  C   UNL     1       4.097  16.059  18.680  0.00  0.00    +0.000 A 
ATOM     29  C   UNL     1       2.904  16.780  18.845  0.00  0.00    +0.000 A 
ATOM     30  C   UNL     1       1.649  16.140  18.869  0.00  0.00    +0.000 A 
BRANCH  25  32
ATOM     31  C   UNL     1       0.009  13.668  20.145  0.00  0.00    +0.000 C 
ATOM     32  O   UNL     1       0.385  14.100  18.840  0.00  0.00    +0.000 OA
ENDBRANCH  25  32
BRANCH  30  33
ATOM     33  O   UNL     1       0.611  17.026  19.014  0.00  0.00    +0.000 OA
ATOM     34  C   UNL     1      -0.075  17.481  17.858  0.00  0.00    +0.000 C 
ENDBRANCH  30  33
ENDBRANCH  24  28
ENDBRANCH   1  24
TORSDOF 6
ENDMDL
MODEL 4
REMARK VINA RESULT:      -7.5      4.711      8.154
REMARK  Name = 
REMARK  9 active torsions:
REMARK  status: ('A' for Active; 'I' for Inactive)
REMARK    1  A    between atoms: C_1  and  O_2
REMARK    2  A    between atoms: O_2  and  C_3
REMARK    3  A    between atoms: C_6  and  C_7
REMARK    4  A    between atoms: C_7  and  C_8
REMARK    5  A    between atoms: C_17  and  C_19
REMARK    6  A    between atoms: C_21  and  C_22
REMARK    7  A    between atoms: C_25  and  N_26
REMARK    8  A    between atoms: C_32  and  O_33
REMARK    9  A    between atoms: O_33  and  C_34
REMARK                            x       y       z     vdW  Elec       q    Type
REMARK                         _______ _______ _______ _____ _____    ______ ____
ROOT
ATOM      1  C   UNL     1      -0.162  12.880  18.424  0.00  0.00    +0.000 C 
ATOM      2  C   UNL     1       0.250  14.178  19.169  0.00  0.00    +0.000 A 
ATOM      3  S   UNL     1      -0.396  15.737  18.847  0.00  0.00    +0.000 S 
ATOM      4  C   UNL     1       0.324  16.411  20.237  0.00  0.00    +0.000 A 
ATOM      5  C   UNL     1       1.291  15.575  20.738  0.00  0.00    +0.000 A 
ATOM      6  C   UNL     1       1.301  14.319  20.062  0.00  0.00    +0.000 A 
ATOM      7  C   UNL     1       2.275  13.235  20.302  0.00  0.00    +0.000 C 
ATOM      8  C   UNL     1       2.090  12.098  19.299  0.00  0.00    +0.000 C 
ATOM      9  N   UNL     1       0.690  11.733  19.002  0.00  0.00    +0.000 N 
ATOM     10  C   UNL     1       0.273  10.375  18.919  0.00  0.00    +0.000 C 
ATOM     11  O   UNL     1      -0.861  10.030  18.601  0.00  0.00    +0.000 OA
ENDROOT
BRANCH  10  12
ATOM     12  C   UNL     1       1.237   9.237  19.111  0.00  0.00    +0.000 A 
ATOM     13  C   UNL     1       1.886   8.747  17.956  0.00  0.00    +0.000 A 
ATOM     14  C   UNL     1       2.793   7.680  17.993  0.00  0.00    +0.000 A 
ATOM     15  C   UNL     1       3.593   7.312  16.779  0.00  0.00    +0.000 C 
ATOM     16  C   UNL     1       2.934   6.960  19.171  0.00  0.00    +0.000 A 
ATOM     17  C   UNL     1       2.199   7.325  20.293  0.00  0.00    +0.000 A 
ATOM     18  C   UNL     1       1.362   8.472  20.291  0.00  0.00    +0.000 A 
BRANCH  18  19
ATOM     19  N   UNL     1       0.683   8.754  21.510  0.00  0.00    +0.000 N 
ATOM     20  N   UNL     1      -0.626   8.473  21.744  0.00  0.00    +0.000 NA
ATOM     21  C   UNL     1      -0.813   8.954  22.975  0.00  0.00    +0.000 A 
ATOM     22  C   UNL     1       0.358   9.585  23.421  0.00  0.00    +0.000 A 
ATOM     23  N   UNL     1       1.290   9.526  22.470  0.00  0.00    +0.000 NA
ENDBRANCH  18  19
ENDBRANCH  10  12
BRANCH   1  24
ATOM     24  C   UNL     1      -1.715  12.636  18.425  0.00  0.00    +0.000 C 
BRANCH  24  28
ATOM     25  C   UNL     1      -3.825  12.595  22.227  0.00  0.00    +0.000 A 
ATOM     26  C   UNL     1      -4.525  12.621  21.013  0.00  0.00    +0.000 A 
ATOM     27  C   UNL     1      -3.848  12.706  19.793  0.00  0.00    +0.000 A 
ATOM     28  C   UNL     1      -2.453  12.719  19.755  0.00  0.00    +0.000 A 
ATOM     29  C   UNL     1      -1.759  12.793  20.972  0.00  0.00    +0.000 A 
ATOM     30  C   UNL     1      -2.429  12.744  22.211  0.00  0.00    +0.000 A 
BRANCH  25  32
ATOM     31  C   UNL     1      -5.815  12.976  23.454  0.00  0.00    +0.000 C 
ATOM     32  O   UNL     1      -4.481  12.476  23.425  0.00  0.00    +0.000 OA
ENDBRANCH  25  32
BRANCH  30  33
ATOM     33  O   UNL     1      -1.571  12.858  23.276  0.00  0.00    +0.000 OA
ATOM     34  C   UNL     1      -1.264  14.147  23.783  0.00  0.00    +0.000 C 
ENDBRANCH  30  33
ENDBRANCH  24  28
ENDBRANCH   1  24
TORSDOF 6
ENDMDL
MODEL 5
REMARK VINA RESULT:      -7.3      7.141      9.750
REMARK  Name = 
REMARK  9 active torsions:
REMARK  status: ('A' for Active; 'I' for Inactive)
REMARK    1  A    between atoms: C_1  and  O_2
REMARK    2  A    between atoms: O_2  and  C_3
REMARK    3  A    between atoms: C_6  and  C_7
REMARK    4  A    between atoms: C_7  and  C_8
REMARK    5  A    between atoms: C_17  and  C_19
REMARK    6  A    between atoms: C_21  and  C_22
REMARK    7  A    between atoms: C_25  and  N_26
REMARK    8  A    between atoms: C_32  and  O_33
REMARK    9  A    between atoms: O_33  and  C_34
REMARK                            x       y       z     vdW  Elec       q    Type
REMARK                         _______ _______ _______ _____ _____    ______ ____
ROOT
ATOM      1  C   UNL     1       6.786  16.324  20.268  0.00  0.00    +0.000 C 
ATOM      2  C   UNL     1       6.073  16.099  21.628  0.00  0.00    +0.000 A 
ATOM      3  S   UNL     1       5.191  17.301  22.481  0.00  0.00    +0.000 S 
ATOM      4  C   UNL     1       4.548  16.166  23.578  0.00  0.00    +0.000 A 
ATOM      5  C   UNL     1       5.238  14.981  23.513  0.00  0.00    +0.000 A 
ATOM      6  C   UNL     1       6.177  14.978  22.439  0.00  0.00    +0.000 A 
ATOM      7  C   UNL     1       7.134  13.891  22.152  0.00  0.00    +0.000 C 
ATOM      8  C   UNL     1       8.093  14.284  21.030  0.00  0.00    +0.000 C 
ATOM      9  N   UNL     1       7.480  15.000  19.892  0.00  0.00    +0.000 N 
ATOM     10  C   UNL     1       7.810  14.684  18.545  0.00  0.00    +0.000 C 
ATOM     11  O   UNL     1       7.382  15.304  17.576  0.00  0.00    +0.000 OA
ENDROOT
BRANCH  10  12
ATOM     12  C   UNL     1       8.813  13.616  18.204  0.00  0.00    +0.000 A 
ATOM     13  C   UNL     1       8.399  12.276  18.364  0.00  0.00    +0.000 A 
ATOM     14  C   UNL     1       9.238  11.187  18.099  0.00  0.00    +0.000 A 
ATOM     15  C   UNL     1       8.703   9.786  18.107  0.00  0.00    +0.000 C 
ATOM     16  C   UNL     1      10.581  11.424  17.836  0.00  0.00    +0.000 A 
ATOM     17  C   UNL     1      11.058  12.730  17.813  0.00  0.00    +0.000 A 
ATOM     18  C   UNL     1      10.188  13.840  17.973  0.00  0.00    +0.000 A 
BRANCH  18  19
ATOM     19  N   UNL     1      10.794  15.126  17.904  0.00  0.00    +0.000 N 
ATOM     20  N   UNL     1      11.068  15.785  16.747  0.00  0.00    +0.000 NA
ATOM     21  C   UNL     1      11.664  16.900  17.180  0.00  0.00    +0.000 A 
ATOM     22  C   UNL     1      11.809  16.849  18.574  0.00  0.00    +0.000 A 
ATOM     23  N   UNL     1      11.324  15.695  19.035  0.00  0.00    +0.000 NA
ENDBRANCH  18  19
ENDBRANCH  10  12
BRANCH   1  24
ATOM     24  C   UNL     1       5.838  16.927  19.169  0.00  0.00    +0.000 C 
BRANCH  24  28
ATOM     25  C   UNL     1       1.692  15.672  18.792  0.00  0.00    +0.000 A 
ATOM     26  C   UNL     1       2.024  16.899  19.381  0.00  0.00    +0.000 A 
ATOM     27  C   UNL     1       3.358  17.272  19.566  0.00  0.00    +0.000 A 
ATOM     28  C   UNL     1       4.394  16.447  19.125  0.00  0.00    +0.000 A 
ATOM     29  C   UNL     1       4.061  15.177  18.628  0.00  0.00    +0.000 A 
ATOM     30  C   UNL     1       2.721  14.772  18.467  0.00  0.00    +0.000 A 
BRANCH  25  32
ATOM     31  C   UNL     1      -0.592  16.281  18.955  0.00  0.00    +0.000 C 
ATOM     32  O   UNL     1       0.386  15.316  18.576  0.00  0.00    +0.000 OA
ENDBRANCH  25  32
BRANCH  30  33
ATOM     33  O   UNL     1       2.614  13.489  17.993  0.00  0.00    +0.000 OA
ATOM     34  C   UNL     1       2.132  12.471  18.857  0.00  0.00    +0.000 C 
ENDBRANCH  30  33
ENDBRANCH  24  28
ENDBRANCH   1  24
TORSDOF 6
ENDMDL
MODEL 6
REMARK VINA RESULT:      -7.3      2.559      4.861
REMARK  Name = 
REMARK  9 active torsions:
REMARK  status: ('A' for Active; 'I' for Inactive)
REMARK    1  A    between atoms: C_1  and  O_2
REMARK    2  A    between atoms: O_2  and  C_3
REMARK    3  A    between atoms: C_6  and  C_7
REMARK    4  A    between atoms: C_7  and  C_8
REMARK    5  A    between atoms: C_17  and  C_19
REMARK    6  A    between atoms: C_21  and  C_22
REMARK    7  A    between atoms: C_25  and  N_26
REMARK    8  A    between atoms: C_32  and  O_33
REMARK    9  A    between atoms: O_33  and  C_34
REMARK                            x       y       z     vdW  Elec       q    Type
REMARK                         _______ _______ _______ _____ _____    ______ ____
ROOT
ATOM      1  C   UNL     1       2.030   9.094  19.559  0.00  0.00    +0.000 C 
ATOM      2  C   UNL     1       1.100   9.442  20.752  0.00  0.00    +0.000 A 
ATOM      3  S   UNL     1       0.827  11.029  21.349  0.00  0.00    +0.000 S 
ATOM      4  C   UNL     1      -0.461  10.521  22.342  0.00  0.00    +0.000 A 
ATOM      5  C   UNL     1      -0.463   9.155  22.476  0.00  0.00    +0.000 A 
ATOM      6  C   UNL     1       0.499   8.542  21.619  0.00  0.00    +0.000 A 
ATOM      7  C   UNL     1       0.807   7.098  21.586  0.00  0.00    +0.000 C 
ATOM      8  C   UNL     1       1.993   6.810  20.667  0.00  0.00    +0.000 C 
ATOM      9  N   UNL     1       2.010   7.562  19.396  0.00  0.00    +0.000 N 
ATOM     10  C   UNL     1       2.338   6.936  18.162  0.00  0.00    +0.000 C 
ATOM     11  O   UNL     1       2.437   7.539  17.097  0.00  0.00    +0.000 OA
ENDROOT
BRANCH  10  12
ATOM     12  C   UNL     1       2.704   5.479  18.084  0.00  0.00    +0.000 A 
ATOM     13  C   UNL     1       1.689   4.548  18.398  0.00  0.00    +0.000 A 
ATOM     14  C   UNL     1       1.901   3.164  18.382  0.00  0.00    +0.000 A 
ATOM     15  C   UNL     1       0.755   2.211  18.542  0.00  0.00    +0.000 C 
ATOM     16  C   UNL     1       3.194   2.685  18.223  0.00  0.00    +0.000 A 
ATOM     17  C   UNL     1       4.245   3.581  18.057  0.00  0.00    +0.000 A 
ATOM     18  C   UNL     1       4.019   4.979  17.963  0.00  0.00    +0.000 A 
BRANCH  18  19
ATOM     19  N   UNL     1       5.173   5.788  17.766  0.00  0.00    +0.000 N 
ATOM     20  N   UNL     1       5.439   6.486  16.630  0.00  0.00    +0.000 NA
ATOM     21  C   UNL     1       6.626   7.036  16.897  0.00  0.00    +0.000 A 
ATOM     22  C   UNL     1       7.085   6.594  18.146  0.00  0.00    +0.000 A 
ATOM     23  N   UNL     1       6.203   5.746  18.674  0.00  0.00    +0.000 NA
ENDBRANCH  18  19
ENDBRANCH  10  12
BRANCH   1  24
ATOM     24  C   UNL     1       1.699   9.917  18.261  0.00  0.00    +0.000 C 
BRANCH  24  28
ATOM     25  C   UNL     1      -2.366  11.454  18.092  0.00  0.00    +0.000 A 
ATOM     26  C   UNL     1      -2.058  10.173  17.616  0.00  0.00    +0.000 A 
ATOM     27  C   UNL     1      -0.741   9.705  17.605  0.00  0.00    +0.000 A 
ATOM     28  C   UNL     1       0.295  10.490  18.113  0.00  0.00    +0.000 A 
ATOM     29  C   UNL     1      -0.000  11.807  18.496  0.00  0.00    +0.000 A 
ATOM     30  C   UNL     1      -1.318  12.306  18.480  0.00  0.00    +0.000 A 
BRANCH  25  32
ATOM     31  C   UNL     1      -4.622  11.100  17.463  0.00  0.00    +0.000 C 
ATOM     32  O   UNL     1      -3.660  11.905  18.138  0.00  0.00    +0.000 OA
ENDBRANCH  25  32
BRANCH  30  33
ATOM     33  O   UNL     1      -1.386  13.621  18.864  0.00  0.00    +0.000 OA
ATOM     34  C   UNL     1      -1.585  13.932  20.234  0.00  0.00    +0.000 C 
ENDBRANCH  30  33
ENDBRANCH  24  28
ENDBRANCH   1  24
TORSDOF 6
ENDMDL
MODEL 7
REMARK VINA RESULT:      -7.3      4.767      8.222
REMARK  Name = 
REMARK  9 active torsions:
REMARK  status: ('A' for Active; 'I' for Inactive)
REMARK    1  A    between atoms: C_1  and  O_2
REMARK    2  A    between atoms: O_2  and  C_3
REMARK    3  A    between atoms: C_6  and  C_7
REMARK    4  A    between atoms: C_7  and  C_8
REMARK    5  A    between atoms: C_17  and  C_19
REMARK    6  A    between atoms: C_21  and  C_22
REMARK    7  A    between atoms: C_25  and  N_26
REMARK    8  A    between atoms: C_32  and  O_33
REMARK    9  A    between atoms: O_33  and  C_34
REMARK                            x       y       z     vdW  Elec       q    Type
REMARK                         _______ _______ _______ _____ _____    ______ ____
ROOT
ATOM      1  C   UNL     1      -0.234  12.883  18.518  0.00  0.00    +0.000 C 
ATOM      2  C   UNL     1       0.216  14.194  19.218  0.00  0.00    +0.000 A 
ATOM      3  S   UNL     1      -0.439  15.749  18.897  0.00  0.00    +0.000 S 
ATOM      4  C   UNL     1       0.347  16.446  20.239  0.00  0.00    +0.000 A 
ATOM      5  C   UNL     1       1.333  15.616  20.711  0.00  0.00    +0.000 A 
ATOM      6  C   UNL     1       1.308  14.347  20.059  0.00  0.00    +0.000 A 
ATOM      7  C   UNL     1       2.288  13.264  20.274  0.00  0.00    +0.000 C 
ATOM      8  C   UNL     1       2.054  12.109  19.303  0.00  0.00    +0.000 C 
ATOM      9  N   UNL     1       0.640  11.744  19.078  0.00  0.00    +0.000 N 
ATOM     10  C   UNL     1       0.215  10.387  19.040  0.00  0.00    +0.000 C 
ATOM     11  O   UNL     1      -0.933  10.040  18.781  0.00  0.00    +0.000 OA
ENDROOT
BRANCH  10  12
ATOM     12  C   UNL     1       1.183   9.248  19.209  0.00  0.00    +0.000 A 
ATOM     13  C   UNL     1       1.828   8.778  18.043  0.00  0.00    +0.000 A 
ATOM     14  C   UNL     1       2.738   7.714  18.058  0.00  0.00    +0.000 A 
ATOM     15  C   UNL     1       3.533   7.368  16.835  0.00  0.00    +0.000 C 
ATOM     16  C   UNL     1       2.887   6.975  19.224  0.00  0.00    +0.000 A 
ATOM     17  C   UNL     1       2.156   7.321  20.356  0.00  0.00    +0.000 A 
ATOM     18  C   UNL     1       1.316   8.465  20.376  0.00  0.00    +0.000 A 
BRANCH  18  19
ATOM     19  N   UNL     1       0.643   8.726  21.603  0.00  0.00    +0.000 N 
ATOM     20  N   UNL     1      -0.642   8.367  21.866  0.00  0.00    +0.000 NA
ATOM     21  C   UNL     1      -0.836   8.858  23.093  0.00  0.00    +0.000 A 
ATOM     22  C   UNL     1       0.300   9.569  23.505  0.00  0.00    +0.000 A 
ATOM     23  N   UNL     1       1.218   9.551  22.538  0.00  0.00    +0.000 NA
ENDBRANCH  18  19
ENDBRANCH  10  12
BRANCH   1  24
ATOM     24  C   UNL     1      -1.786  12.646  18.596  0.00  0.00    +0.000 C 
BRANCH  24  28
ATOM     25  C   UNL     1      -3.648  13.230  22.482  0.00  0.00    +0.000 A 
ATOM     26  C   UNL     1      -2.304  12.851  22.375  0.00  0.00    +0.000 A 
ATOM     27  C   UNL     1      -1.723  12.595  21.130  0.00  0.00    +0.000 A 
ATOM     28  C   UNL     1      -2.462  12.756  19.957  0.00  0.00    +0.000 A 
ATOM     29  C   UNL     1      -3.832  13.038  20.071  0.00  0.00    +0.000 A 
ATOM     30  C   UNL     1      -4.440  13.264  21.322  0.00  0.00    +0.000 A 
BRANCH  25  32
ATOM     31  C   UNL     1      -4.290  12.432  24.619  0.00  0.00    +0.000 C 
ATOM     32  O   UNL     1      -4.214  13.517  23.698  0.00  0.00    +0.000 OA
ENDBRANCH  25  32
BRANCH  30  33
ATOM     33  O   UNL     1      -5.788  13.495  21.215  0.00  0.00    +0.000 OA
ATOM     34  C   UNL     1      -6.697  12.483  21.618  0.00  0.00    +0.000 C 
ENDBRANCH  30  33
ENDBRANCH  24  28
ENDBRANCH   1  24
TORSDOF 6
ENDMDL
MODEL 8
REMARK VINA RESULT:      -7.3      5.722     11.779
REMARK  Name = 
REMARK  9 active torsions:
REMARK  status: ('A' for Active; 'I' for Inactive)
REMARK    1  A    between atoms: C_1  and  O_2
REMARK    2  A    between atoms: O_2  and  C_3
REMARK    3  A    between atoms: C_6  and  C_7
REMARK    4  A    between atoms: C_7  and  C_8
REMARK    5  A    between atoms: C_17  and  C_19
REMARK    6  A    between atoms: C_21  and  C_22
REMARK    7  A    between atoms: C_25  and  N_26
REMARK    8  A    between atoms: C_32  and  O_33
REMARK    9  A    between atoms: O_33  and  C_34
REMARK                            x       y       z     vdW  Elec       q    Type
REMARK                         _______ _______ _______ _____ _____    ______ ____
ROOT
ATOM      1  C   UNL     1      -0.261  13.110  19.779  0.00  0.00    +0.000 C 
ATOM      2  C   UNL     1       0.440  14.434  19.371  0.00  0.00    +0.000 A 
ATOM      3  S   UNL     1       2.024  14.542  18.719  0.00  0.00    +0.000 S 
ATOM      4  C   UNL     1       1.831  16.184  18.306  0.00  0.00    +0.000 A 
ATOM      5  C   UNL     1       0.739  16.720  18.943  0.00  0.00    +0.000 A 
ATOM      6  C   UNL     1      -0.013  15.720  19.628  0.00  0.00    +0.000 A 
ATOM      7  C   UNL     1      -1.191  15.979  20.479  0.00  0.00    +0.000 C 
ATOM      8  C   UNL     1      -1.655  14.704  21.180  0.00  0.00    +0.000 C 
ATOM      9  N   UNL     1      -1.643  13.483  20.350  0.00  0.00    +0.000 N 
ATOM     10  C   UNL     1      -2.718  12.551  20.374  0.00  0.00    +0.000 C 
ATOM     11  O   UNL     1      -2.713  11.489  19.759  0.00  0.00    +0.000 OA
ENDROOT
BRANCH  10  12
ATOM     12  C   UNL     1      -3.918  12.749  21.259  0.00  0.00    +0.000 A 
ATOM     13  C   UNL     1      -3.723  12.589  22.648  0.00  0.00    +0.000 A 
ATOM     14  C   UNL     1      -4.758  12.728  23.580  0.00  0.00    +0.000 A 
ATOM     15  C   UNL     1      -4.471  12.730  25.051  0.00  0.00    +0.000 C 
ATOM     16  C   UNL     1      -6.062  12.856  23.119  0.00  0.00    +0.000 A 
ATOM     17  C   UNL     1      -6.310  12.871  21.751  0.00  0.00    +0.000 A 
ATOM     18  C   UNL     1      -5.253  12.841  20.804  0.00  0.00    +0.000 A 
BRANCH  18  19
ATOM     19  N   UNL     1      -5.636  12.888  19.435  0.00  0.00    +0.000 N 
ATOM     20  N   UNL     1      -6.143  13.987  18.816  0.00  0.00    +0.000 NA
ATOM     21  C   UNL     1      -6.389  13.540  17.582  0.00  0.00    +0.000 A 
ATOM     22  C   UNL     1      -6.105  12.168  17.509  0.00  0.00    +0.000 A 
ATOM     23  N   UNL     1      -5.694  11.730  18.699  0.00  0.00    +0.000 NA
ENDBRANCH  18  19
ENDBRANCH  10  12
BRANCH   1  24
ATOM     24  C   UNL     1      -0.270  12.040  18.627  0.00  0.00    +0.000 C 
BRANCH  24  28
ATOM     25  C   UNL     1       1.782   8.296  19.452  0.00  0.00    +0.000 A 
ATOM     26  C   UNL     1       1.674   8.787  18.145  0.00  0.00    +0.000 A 
ATOM     27  C   UNL     1       0.955   9.954  17.869  0.00  0.00    +0.000 A 
ATOM     28  C   UNL     1       0.364  10.683  18.902  0.00  0.00    +0.000 A 
ATOM     29  C   UNL     1       0.388  10.138  20.195  0.00  0.00    +0.000 A 
ATOM     30  C   UNL     1       1.080   8.944  20.482  0.00  0.00    +0.000 A 
BRANCH  25  32
ATOM     31  C   UNL     1       2.908   6.390  18.609  0.00  0.00    +0.000 C 
ATOM     32  O   UNL     1       2.516   7.173  19.733  0.00  0.00    +0.000 OA
ENDBRANCH  25  32
BRANCH  30  33
ATOM     33  O   UNL     1       0.957   8.570  21.797  0.00  0.00    +0.000 OA
ATOM     34  C   UNL     1       0.320   9.450  22.710  0.00  0.00    +0.000 C 
ENDBRANCH  30  33
ENDBRANCH  24  28
ENDBRANCH   1  24
TORSDOF 6
ENDMDL
MODEL 9
REMARK VINA RESULT:      -7.3      7.354     11.878
REMARK  Name = 
REMARK  9 active torsions:
REMARK  status: ('A' for Active; 'I' for Inactive)
REMARK    1  A    between atoms: C_1  and  O_2
REMARK    2  A    between atoms: O_2  and  C_3
REMARK    3  A    between atoms: C_6  and  C_7
REMARK    4  A    between atoms: C_7  and  C_8
REMARK    5  A    between atoms: C_17  and  C_19
REMARK    6  A    between atoms: C_21  and  C_22
REMARK    7  A    between atoms: C_25  and  N_26
REMARK    8  A    between atoms: C_32  and  O_33
REMARK    9  A    between atoms: O_33  and  C_34
REMARK                            x       y       z     vdW  Elec       q    Type
REMARK                         _______ _______ _______ _____ _____    ______ ____
ROOT
ATOM      1  C   UNL     1      -1.411  12.057  20.222  0.00  0.00    +0.000 C 
ATOM      2  C   UNL     1      -0.552  10.891  20.780  0.00  0.00    +0.000 A 
ATOM      3  S   UNL     1       0.239   9.711  19.815  0.00  0.00    +0.000 S 
ATOM      4  C   UNL     1       1.124   9.104  21.139  0.00  0.00    +0.000 A 
ATOM      5  C   UNL     1       0.593   9.548  22.324  0.00  0.00    +0.000 A 
ATOM      6  C   UNL     1      -0.433  10.516  22.110  0.00  0.00    +0.000 A 
ATOM      7  C   UNL     1      -1.261  11.123  23.171  0.00  0.00    +0.000 C 
ATOM      8  C   UNL     1      -2.362  11.998  22.576  0.00  0.00    +0.000 C 
ATOM      9  N   UNL     1      -1.957  12.840  21.432  0.00  0.00    +0.000 N 
ATOM     10  C   UNL     1      -2.365  14.199  21.322  0.00  0.00    +0.000 C 
ATOM     11  O   UNL     1      -2.114  14.909  20.353  0.00  0.00    +0.000 OA
ENDROOT
BRANCH  10  12
ATOM     12  C   UNL     1      -3.246  14.848  22.355  0.00  0.00    +0.000 A 
ATOM     13  C   UNL     1      -2.602  15.584  23.373  0.00  0.00    +0.000 A 
ATOM     14  C   UNL     1      -3.302  16.223  24.404  0.00  0.00    +0.000 A 
ATOM     15  C   UNL     1      -2.597  17.141  25.356  0.00  0.00    +0.000 C 
ATOM     16  C   UNL     1      -4.664  15.985  24.537  0.00  0.00    +0.000 A 
ATOM     17  C   UNL     1      -5.308  15.146  23.634  0.00  0.00    +0.000 A 
ATOM     18  C   UNL     1      -4.623  14.585  22.525  0.00  0.00    +0.000 A 
BRANCH  18  19
ATOM     19  N   UNL     1      -5.400  13.764  21.659  0.00  0.00    +0.000 N 
ATOM     20  N   UNL     1      -5.703  12.462  21.902  0.00  0.00    +0.000 NA
ATOM     21  C   UNL     1      -6.390  12.114  20.811  0.00  0.00    +0.000 A 
ATOM     22  C   UNL     1      -6.414  13.183  19.904  0.00  0.00    +0.000 A 
ATOM     23  N   UNL     1      -5.727  14.211  20.403  0.00  0.00    +0.000 NA
ENDBRANCH  18  19
ENDBRANCH  10  12
BRANCH   1  24
ATOM     24  C   UNL     1      -0.656  12.917  19.145  0.00  0.00    +0.000 C 
BRANCH  24  28
ATOM     25  C   UNL     1       3.424  14.257  19.830  0.00  0.00    +0.000 A 
ATOM     26  C   UNL     1       3.047  13.686  18.607  0.00  0.00    +0.000 A 
ATOM     27  C   UNL     1       1.755  13.191  18.410  0.00  0.00    +0.000 A 
ATOM     28  C   UNL     1       0.794  13.297  19.416  0.00  0.00    +0.000 A 
ATOM     29  C   UNL     1       1.200  13.777  20.671  0.00  0.00    +0.000 A 
ATOM     30  C   UNL     1       2.509  14.247  20.896  0.00  0.00    +0.000 A 
BRANCH  25  32
ATOM     31  C   UNL     1       5.326  15.272  18.849  0.00  0.00    +0.000 C 
ATOM     32  O   UNL     1       4.679  14.776  20.018  0.00  0.00    +0.000 OA
ENDBRANCH  25  32
BRANCH  30  33
ATOM     33  O   UNL     1       2.707  14.645  22.194  0.00  0.00    +0.000 OA
ATOM     34  C   UNL     1       2.427  15.989  22.556  0.00  0.00    +0.000 C 
ENDBRANCH  30  33
ENDBRANCH  24  28
ENDBRANCH   1  24
TORSDOF 6
ENDMDL
