MODEL 1
REMARK VINA RESULT:      -7.7      0.000      0.000
REMARK  Name = 
REMARK  10 active torsions:
REMARK  status: ('A' for Active; 'I' for Inactive)
REMARK    1  A    between atoms: C_1  and  C_2
REMARK    2  A    between atoms: C_11  and  O_12
REMARK    3  A    between atoms: O_12  and  C_13
REMARK    4  A    between atoms: C_13  and  C_14
REMARK    5  A    between atoms: C_14  and  C_15
REMARK    6  A    between atoms: C_14  and  C_16
REMARK    7  A    between atoms: C_16  and  C_17
REMARK    8  A    between atoms: C_17  and  N_18
REMARK    9  A    between atoms: N_18  and  C_19
REMARK   10  A    between atoms: C_19  and  C_20
REMARK                            x       y       z     vdW  Elec       q    Type
REMARK                         _______ _______ _______ _____ _____    ______ ____
ROOT
ATOM      1  C   UNL     1       5.860   6.576  16.713  0.00  0.00    +0.000 C 
ENDROOT
BRANCH   1   2
ATOM      2  C   UNL     1       6.683   6.037  17.890  0.00  0.00    +0.000 C 
ATOM      3  C   UNL     1       7.456   4.781  17.475  0.00  0.00    +0.000 C 
BRANCH   2   4
ATOM      4  C   UNL     1       7.660   7.128  18.393  0.00  0.00    +0.000 C 
BRANCH   4   5
ATOM      5  C   UNL     1       7.388   8.509  17.780  0.00  0.00    +0.000 C 
BRANCH   5   6
ATOM      6  N   UNL     1       8.606   9.318  17.775  0.00  0.00    +0.000 NA
ATOM      7  H   UNL     1       8.462  10.152  17.206  0.00  0.00    +0.000 HD
BRANCH   6   8
ATOM      8  C   UNL     1       8.939   9.740  19.138  0.00  0.00    +0.000 C 
BRANCH   8   9
ATOM      9  C   UNL     1       9.835  10.956  19.134  0.00  0.00    +0.000 A 
ATOM     10  C   UNL     1      10.314  11.495  17.931  0.00  0.00    +0.000 A 
ATOM     11  C   UNL     1      11.090  12.658  17.938  0.00  0.00    +0.000 A 
ATOM     12  C   UNL     1      11.397  13.280  19.146  0.00  0.00    +0.000 A 
ATOM     13 CL   UNL     1      12.333  14.722  19.151  0.00  0.00    +0.000 Cl
ATOM     14  C   UNL     1      10.944  12.747  20.352  0.00  0.00    +0.000 A 
ATOM     15  C   UNL     1      10.163  11.589  20.343  0.00  0.00    +0.000 A 
ENDBRANCH   8   9
ENDBRANCH   6   8
ENDBRANCH   5   6
ENDBRANCH   4   5
ENDBRANCH   2   4
ENDBRANCH   1   2
BRANCH   1  16
ATOM     16  O   UNL     1       4.463   6.520  16.940  0.00  0.00    +0.000 OA
BRANCH  16  27
ATOM     17  C   UNL     1       1.786   8.368  20.580  0.00  0.00    +0.000 C 
ATOM     18  C   UNL     1       2.010   6.960  20.097  0.00  0.00    +0.000 A 
ATOM     19  C   UNL     1       1.380   5.910  20.728  0.00  0.00    +0.000 A 
ATOM     20  C   UNL     1       1.577   4.638  20.220  0.00  0.00    +0.000 A 
ATOM     21  C   UNL     1       2.404   4.421  19.104  0.00  0.00    +0.000 A 
ATOM     22  C   UNL     1       2.616   3.137  18.568  0.00  0.00    +0.000 A 
ATOM     23 CL   UNL     1       1.856   1.715  19.207  0.00  0.00    +0.000 Cl
ATOM     24  C   UNL     1       3.459   2.950  17.487  0.00  0.00    +0.000 A 
ATOM     25  C   UNL     1       4.112   4.032  16.904  0.00  0.00    +0.000 A 
ATOM     26 CL   UNL     1       5.135   3.553  15.586  0.00  0.00    +0.000 Cl
ATOM     27  C   UNL     1       3.903   5.340  17.405  0.00  0.00    +0.000 A 
ATOM     28  C   UNL     1       3.038   5.543  18.514  0.00  0.00    +0.000 A 
ATOM     29  N   UNL     1       2.815   6.787  19.020  0.00  0.00    +0.000 NA
ENDBRANCH  16  27
ENDBRANCH   1  16
TORSDOF 8
ENDMDL
MODEL 2
REMARK VINA RESULT:      -7.6      1.632      2.415
REMARK  Name = 
REMARK  10 active torsions:
REMARK  status: ('A' for Active; 'I' for Inactive)
REMARK    1  A    between atoms: C_1  and  C_2
REMARK    2  A    between atoms: C_11  and  O_12
REMARK    3  A    between atoms: O_12  and  C_13
REMARK    4  A    between atoms: C_13  and  C_14
REMARK    5  A    between atoms: C_14  and  C_15
REMARK    6  A    between atoms: C_14  and  C_16
REMARK    7  A    between atoms: C_16  and  C_17
REMARK    8  A    between atoms: C_17  and  N_18
REMARK    9  A    between atoms: N_18  and  C_19
REMARK   10  A    between atoms: C_19  and  C_20
REMARK                            x       y       z     vdW  Elec       q    Type
REMARK                         _______ _______ _______ _____ _____    ______ ____
ROOT
ATOM      1  C   UNL     1       5.404   3.794  16.396  0.00  0.00    +0.000 C 
ENDROOT
BRANCH   1   2
ATOM      2  C   UNL     1       6.224   4.942  15.792  0.00  0.00    +0.000 C 
ATOM      3  C   UNL     1       5.310   5.926  15.055  0.00  0.00    +0.000 C 
BRANCH   2   4
ATOM      4  C   UNL     1       7.011   5.672  16.908  0.00  0.00    +0.000 C 
BRANCH   4   5
ATOM      5  C   UNL     1       6.234   6.845  17.525  0.00  0.00    +0.000 C 
BRANCH   5   6
ATOM      6  N   UNL     1       6.913   8.110  17.253  0.00  0.00    +0.000 NA
ATOM      7  H   UNL     1       6.363   8.882  17.628  0.00  0.00    +0.000 HD
BRANCH   6   8
ATOM      8  C   UNL     1       8.230   8.127  17.893  0.00  0.00    +0.000 C 
BRANCH   8   9
ATOM      9  C   UNL     1       8.598   9.515  18.360  0.00  0.00    +0.000 A 
ATOM     10  C   UNL     1       9.055   9.739  19.667  0.00  0.00    +0.000 A 
ATOM     11  C   UNL     1       9.453  11.017  20.067  0.00  0.00    +0.000 A 
ATOM     12  C   UNL     1       9.386  12.078  19.166  0.00  0.00    +0.000 A 
ATOM     13 CL   UNL     1       9.896  13.647  19.653  0.00  0.00    +0.000 Cl
ATOM     14  C   UNL     1       8.916  11.877  17.870  0.00  0.00    +0.000 A 
ATOM     15  C   UNL     1       8.526  10.597  17.469  0.00  0.00    +0.000 A 
ENDBRANCH   8   9
ENDBRANCH   6   8
ENDBRANCH   5   6
ENDBRANCH   4   5
ENDBRANCH   2   4
ENDBRANCH   1   2
BRANCH   1  16
ATOM     16  O   UNL     1       4.065   4.158  16.680  0.00  0.00    +0.000 OA
BRANCH  16  27
ATOM     17  C   UNL     1       2.522   8.596  18.003  0.00  0.00    +0.000 C 
ATOM     18  C   UNL     1       2.491   7.261  18.697  0.00  0.00    +0.000 A 
ATOM     19  C   UNL     1       1.936   7.153  19.953  0.00  0.00    +0.000 A 
ATOM     20  C   UNL     1       1.886   5.898  20.534  0.00  0.00    +0.000 A 
ATOM     21  C   UNL     1       2.398   4.769  19.870  0.00  0.00    +0.000 A 
ATOM     22  C   UNL     1       2.355   3.483  20.439  0.00  0.00    +0.000 A 
ATOM     23 CL   UNL     1       1.642   3.164  21.987  0.00  0.00    +0.000 Cl
ATOM     24  C   UNL     1       2.894   2.395  19.775  0.00  0.00    +0.000 A 
ATOM     25  C   UNL     1       3.486   2.553  18.525  0.00  0.00    +0.000 A 
ATOM     26 CL   UNL     1       4.114   1.059  17.901  0.00  0.00    +0.000 Cl
ATOM     27  C   UNL     1       3.526   3.830  17.914  0.00  0.00    +0.000 A 
ATOM     28  C   UNL     1       2.975   4.953  18.588  0.00  0.00    +0.000 A 
ATOM     29  N   UNL     1       2.995   6.195  18.029  0.00  0.00    +0.000 NA
ENDBRANCH  16  27
ENDBRANCH   1  16
TORSDOF 8
ENDMDL
MODEL 3
REMARK VINA RESULT:      -7.6      5.189      7.146
REMARK  Name = 
REMARK  10 active torsions:
REMARK  status: ('A' for Active; 'I' for Inactive)
REMARK    1  A    between atoms: C_1  and  C_2
REMARK    2  A    between atoms: C_11  and  O_12
REMARK    3  A    between atoms: O_12  and  C_13
REMARK    4  A    between atoms: C_13  and  C_14
REMARK    5  A    between atoms: C_14  and  C_15
REMARK    6  A    between atoms: C_14  and  C_16
REMARK    7  A    between atoms: C_16  and  C_17
REMARK    8  A    between atoms: C_17  and  N_18
REMARK    9  A    between atoms: N_18  and  C_19
REMARK   10  A    between atoms: C_19  and  C_20
REMARK                            x       y       z     vdW  Elec       q    Type
REMARK                         _______ _______ _______ _____ _____    ______ ____
ROOT
ATOM      1  C   UNL     1       2.323   5.388  20.901  0.00  0.00    +0.000 C 
ENDROOT
BRANCH   1   2
ATOM      2  C   UNL     1       1.811   3.941  20.891  0.00  0.00    +0.000 C 
ATOM      3  C   UNL     1       1.014   3.661  19.613  0.00  0.00    +0.000 C 
BRANCH   2   4
ATOM      4  C   UNL     1       3.003   2.960  21.007  0.00  0.00    +0.000 C 
BRANCH   4   5
ATOM      5  C   UNL     1       3.470   2.415  19.649  0.00  0.00    +0.000 C 
BRANCH   5   6
ATOM      6  N   UNL     1       4.910   2.605  19.487  0.00  0.00    +0.000 NA
ATOM      7  H   UNL     1       5.246   2.033  18.712  0.00  0.00    +0.000 HD
BRANCH   6   8
ATOM      8  C   UNL     1       5.206   4.008  19.188  0.00  0.00    +0.000 C 
BRANCH   8   9
ATOM      9  C   UNL     1       5.733   4.173  17.783  0.00  0.00    +0.000 A 
ATOM     10  C   UNL     1       4.952   3.817  16.673  0.00  0.00    +0.000 A 
ATOM     11  C   UNL     1       5.427   4.034  15.377  0.00  0.00    +0.000 A 
ATOM     12  C   UNL     1       6.686   4.598  15.184  0.00  0.00    +0.000 A 
ATOM     13 CL   UNL     1       7.260   4.885  13.588  0.00  0.00    +0.000 Cl
ATOM     14  C   UNL     1       7.482   4.941  16.275  0.00  0.00    +0.000 A 
ATOM     15  C   UNL     1       7.004   4.730  17.571  0.00  0.00    +0.000 A 
ENDBRANCH   8   9
ENDBRANCH   6   8
ENDBRANCH   5   6
ENDBRANCH   4   5
ENDBRANCH   2   4
ENDBRANCH   1   2
BRANCH   1  16
ATOM     16  O   UNL     1       1.301   6.340  20.666  0.00  0.00    +0.000 OA
BRANCH  16  27
ATOM     17  C   UNL     1      -0.635   9.797  23.516  0.00  0.00    +0.000 C 
ATOM     18  C   UNL     1       0.026   9.847  22.165  0.00  0.00    +0.000 A 
ATOM     19  C   UNL     1       0.173  11.054  21.517  0.00  0.00    +0.000 A 
ATOM     20  C   UNL     1       0.830  11.059  20.299  0.00  0.00    +0.000 A 
ATOM     21  C   UNL     1       1.320   9.870  19.733  0.00  0.00    +0.000 A 
ATOM     22  C   UNL     1       1.994   9.851  18.498  0.00  0.00    +0.000 A 
ATOM     23 CL   UNL     1       2.312  11.287  17.580  0.00  0.00    +0.000 Cl
ATOM     24  C   UNL     1       2.439   8.661  17.950  0.00  0.00    +0.000 A 
ATOM     25  C   UNL     1       2.232   7.456  18.616  0.00  0.00    +0.000 A 
ATOM     26 CL   UNL     1       2.851   6.098  17.728  0.00  0.00    +0.000 Cl
ATOM     27  C   UNL     1       1.578   7.442  19.871  0.00  0.00    +0.000 A 
ATOM     28  C   UNL     1       1.118   8.659  20.443  0.00  0.00    +0.000 A 
ATOM     29  N   UNL     1       0.485   8.681  21.648  0.00  0.00    +0.000 NA
ENDBRANCH  16  27
ENDBRANCH   1  16
TORSDOF 8
ENDMDL
MODEL 4
REMARK VINA RESULT:      -7.6      1.443      1.978
REMARK  Name = 
REMARK  10 active torsions:
REMARK  status: ('A' for Active; 'I' for Inactive)
REMARK    1  A    between atoms: C_1  and  C_2
REMARK    2  A    between atoms: C_11  and  O_12
REMARK    3  A    between atoms: O_12  and  C_13
REMARK    4  A    between atoms: C_13  and  C_14
REMARK    5  A    between atoms: C_14  and  C_15
REMARK    6  A    between atoms: C_14  and  C_16
REMARK    7  A    between atoms: C_16  and  C_17
REMARK    8  A    between atoms: C_17  and  N_18
REMARK    9  A    between atoms: N_18  and  C_19
REMARK   10  A    between atoms: C_19  and  C_20
REMARK                            x       y       z     vdW  Elec       q    Type
REMARK                         _______ _______ _______ _____ _____    ______ ____
ROOT
ATOM      1  C   UNL     1       4.850   5.964  16.702  0.00  0.00    +0.000 C 
ENDROOT
BRANCH   1   2
ATOM      2  C   UNL     1       6.250   5.376  16.916  0.00  0.00    +0.000 C 
ATOM      3  C   UNL     1       6.703   4.600  15.675  0.00  0.00    +0.000 C 
BRANCH   2   4
ATOM      4  C   UNL     1       7.255   6.510  17.236  0.00  0.00    +0.000 C 
BRANCH   4   5
ATOM      5  C   UNL     1       7.916   6.359  18.613  0.00  0.00    +0.000 C 
BRANCH   5   6
ATOM      6  N   UNL     1       8.569   7.605  19.010  0.00  0.00    +0.000 NA
ATOM      7  H   UNL     1       9.582   7.490  18.969  0.00  0.00    +0.000 HD
BRANCH   6   8
ATOM      8  C   UNL     1       8.190   8.688  18.098  0.00  0.00    +0.000 C 
BRANCH   8   9
ATOM      9  C   UNL     1       8.776  10.008  18.538  0.00  0.00    +0.000 A 
ATOM     10  C   UNL     1       9.322  10.164  19.820  0.00  0.00    +0.000 A 
ATOM     11  C   UNL     1       9.920  11.371  20.192  0.00  0.00    +0.000 A 
ATOM     12  C   UNL     1       9.965  12.430  19.287  0.00  0.00    +0.000 A 
ATOM     13 CL   UNL     1      10.719  13.908  19.738  0.00  0.00    +0.000 Cl
ATOM     14  C   UNL     1       9.411  12.298  18.016  0.00  0.00    +0.000 A 
ATOM     15  C   UNL     1       8.821  11.088  17.643  0.00  0.00    +0.000 A 
ENDBRANCH   8   9
ENDBRANCH   6   8
ENDBRANCH   5   6
ENDBRANCH   4   5
ENDBRANCH   2   4
ENDBRANCH   1   2
BRANCH   1  16
ATOM     16  O   UNL     1       3.829   4.982  16.700  0.00  0.00    +0.000 OA
BRANCH  16  27
ATOM     17  C   UNL     1       1.997   9.114  18.545  0.00  0.00    +0.000 C 
ATOM     18  C   UNL     1       2.103   7.716  19.093  0.00  0.00    +0.000 A 
ATOM     19  C   UNL     1       1.614   7.432  20.349  0.00  0.00    +0.000 A 
ATOM     20  C   UNL     1       1.690   6.124  20.793  0.00  0.00    +0.000 A 
ATOM     21  C   UNL     1       2.260   5.117  19.994  0.00  0.00    +0.000 A 
ATOM     22  C   UNL     1       2.345   3.780  20.423  0.00  0.00    +0.000 A 
ATOM     23 CL   UNL     1       1.727   3.243  21.952  0.00  0.00    +0.000 Cl
ATOM     24  C   UNL     1       2.939   2.816  19.627  0.00  0.00    +0.000 A 
ATOM     25  C   UNL     1       3.461   3.151  18.381  0.00  0.00    +0.000 A 
ATOM     26 CL   UNL     1       4.178   1.789  17.579  0.00  0.00    +0.000 Cl
ATOM     27  C   UNL     1       3.372   4.484  17.910  0.00  0.00    +0.000 A 
ATOM     28  C   UNL     1       2.763   5.481  18.719  0.00  0.00    +0.000 A 
ATOM     29  N   UNL     1       2.661   6.771  18.297  0.00  0.00    +0.000 NA
ENDBRANCH  16  27
ENDBRANCH   1  16
TORSDOF 8
ENDMDL
MODEL 5
REMARK VINA RESULT:      -7.5      5.483      9.555
REMARK  Name = 
REMARK  10 active torsions:
REMARK  status: ('A' for Active; 'I' for Inactive)
REMARK    1  A    between atoms: C_1  and  C_2
REMARK    2  A    between atoms: C_11  and  O_12
REMARK    3  A    between atoms: O_12  and  C_13
REMARK    4  A    between atoms: C_13  and  C_14
REMARK    5  A    between atoms: C_14  and  C_15
REMARK    6  A    between atoms: C_14  and  C_16
REMARK    7  A    between atoms: C_16  and  C_17
REMARK    8  A    between atoms: C_17  and  N_18
REMARK    9  A    between atoms: N_18  and  C_19
REMARK   10  A    between atoms: C_19  and  C_20
REMARK                            x       y       z     vdW  Elec       q    Type
REMARK                         _______ _______ _______ _____ _____    ______ ____
ROOT
ATOM      1  C   UNL     1       1.511   8.405  21.212  0.00  0.00    +0.000 C 
ENDROOT
BRANCH   1   2
ATOM      2  C   UNL     1       0.359   9.414  21.297  0.00  0.00    +0.000 C 
ATOM      3  C   UNL     1      -0.372   9.284  22.637  0.00  0.00    +0.000 C 
BRANCH   2   4
ATOM      4  C   UNL     1       0.905  10.852  21.121  0.00  0.00    +0.000 C 
BRANCH   4   5
ATOM      5  C   UNL     1       0.081  11.693  20.133  0.00  0.00    +0.000 C 
BRANCH   5   6
ATOM      6  N   UNL     1      -0.817  10.840  19.357  0.00  0.00    +0.000 NA
ATOM      7  H   UNL     1      -1.622  10.582  19.927  0.00  0.00    +0.000 HD
BRANCH   6   8
ATOM      8  C   UNL     1      -1.298  11.556  18.173  0.00  0.00    +0.000 C 
BRANCH   8   9
ATOM      9  C   UNL     1      -2.805  11.646  18.160  0.00  0.00    +0.000 A 
ATOM     10  C   UNL     1      -3.509  12.134  19.271  0.00  0.00    +0.000 A 
ATOM     11  C   UNL     1      -4.899  12.273  19.222  0.00  0.00    +0.000 A 
ATOM     12  C   UNL     1      -5.591  11.917  18.067  0.00  0.00    +0.000 A 
ATOM     13 CL   UNL     1      -7.299  12.108  18.000  0.00  0.00    +0.000 Cl
ATOM     14  C   UNL     1      -4.910  11.413  16.960  0.00  0.00    +0.000 A 
ATOM     15  C   UNL     1      -3.520  11.281  17.008  0.00  0.00    +0.000 A 
ENDBRANCH   8   9
ENDBRANCH   6   8
ENDBRANCH   5   6
ENDBRANCH   4   5
ENDBRANCH   2   4
ENDBRANCH   1   2
BRANCH   1  16
ATOM     16  O   UNL     1       1.243   7.328  20.332  0.00  0.00    +0.000 OA
BRANCH  16  27
ATOM     17  C   UNL     1       2.202   2.754  21.741  0.00  0.00    +0.000 C 
ATOM     18  C   UNL     1       2.752   3.613  20.634  0.00  0.00    +0.000 A 
ATOM     19  C   UNL     1       3.715   3.108  19.788  0.00  0.00    +0.000 A 
ATOM     20  C   UNL     1       4.158   3.916  18.755  0.00  0.00    +0.000 A 
ATOM     21  C   UNL     1       3.652   5.216  18.581  0.00  0.00    +0.000 A 
ATOM     22  C   UNL     1       4.084   6.054  17.537  0.00  0.00    +0.000 A 
ATOM     23 CL   UNL     1       5.249   5.554  16.353  0.00  0.00    +0.000 Cl
ATOM     24  C   UNL     1       3.591   7.340  17.409  0.00  0.00    +0.000 A 
ATOM     25  C   UNL     1       2.650   7.829  18.311  0.00  0.00    +0.000 A 
ATOM     26 CL   UNL     1       2.200   9.470  17.968  0.00  0.00    +0.000 Cl
ATOM     27  C   UNL     1       2.177   7.004  19.360  0.00  0.00    +0.000 A 
ATOM     28  C   UNL     1       2.677   5.681  19.500  0.00  0.00    +0.000 A 
ATOM     29  N   UNL     1       2.244   4.862  20.497  0.00  0.00    +0.000 NA
ENDBRANCH  16  27
ENDBRANCH   1  16
TORSDOF 8
ENDMDL
MODEL 6
REMARK VINA RESULT:      -7.5      1.529      1.956
REMARK  Name = 
REMARK  10 active torsions:
REMARK  status: ('A' for Active; 'I' for Inactive)
REMARK    1  A    between atoms: C_1  and  C_2
REMARK    2  A    between atoms: C_11  and  O_12
REMARK    3  A    between atoms: O_12  and  C_13
REMARK    4  A    between atoms: C_13  and  C_14
REMARK    5  A    between atoms: C_14  and  C_15
REMARK    6  A    between atoms: C_14  and  C_16
REMARK    7  A    between atoms: C_16  and  C_17
REMARK    8  A    between atoms: C_17  and  N_18
REMARK    9  A    between atoms: N_18  and  C_19
REMARK   10  A    between atoms: C_19  and  C_20
REMARK                            x       y       z     vdW  Elec       q    Type
REMARK                         _______ _______ _______ _____ _____    ______ ____
ROOT
ATOM      1  C   UNL     1       5.543   4.609  16.655  0.00  0.00    +0.000 C 
ENDROOT
BRANCH   1   2
ATOM      2  C   UNL     1       6.269   5.489  17.682  0.00  0.00    +0.000 C 
ATOM      3  C   UNL     1       7.637   4.894  18.030  0.00  0.00    +0.000 C 
BRANCH   2   4
ATOM      4  C   UNL     1       6.434   6.924  17.122  0.00  0.00    +0.000 C 
BRANCH   4   5
ATOM      5  C   UNL     1       7.766   7.576  17.518  0.00  0.00    +0.000 C 
BRANCH   5   6
ATOM      6  N   UNL     1       7.565   8.978  17.878  0.00  0.00    +0.000 NA
ATOM      7  H   UNL     1       7.421   9.056  18.885  0.00  0.00    +0.000 HD
BRANCH   6   8
ATOM      8  C   UNL     1       8.745   9.768  17.517  0.00  0.00    +0.000 C 
BRANCH   8   9
ATOM      9  C   UNL     1       9.029  10.835  18.546  0.00  0.00    +0.000 A 
ATOM     10  C   UNL     1       9.484  10.498  19.829  0.00  0.00    +0.000 A 
ATOM     11  C   UNL     1       9.805  11.498  20.751  0.00  0.00    +0.000 A 
ATOM     12  C   UNL     1       9.663  12.838  20.398  0.00  0.00    +0.000 A 
ATOM     13 CL   UNL     1      10.078  14.068  21.526  0.00  0.00    +0.000 Cl
ATOM     14  C   UNL     1       9.195  13.191  19.134  0.00  0.00    +0.000 A 
ATOM     15  C   UNL     1       8.882  12.190  18.211  0.00  0.00    +0.000 A 
ENDBRANCH   8   9
ENDBRANCH   6   8
ENDBRANCH   5   6
ENDBRANCH   4   5
ENDBRANCH   2   4
ENDBRANCH   1   2
BRANCH   1  16
ATOM     16  O   UNL     1       4.133   4.674  16.766  0.00  0.00    +0.000 OA
BRANCH  16  27
ATOM     17  C   UNL     1       2.399   8.938  18.391  0.00  0.00    +0.000 C 
ATOM     18  C   UNL     1       2.360   7.544  18.957  0.00  0.00    +0.000 A 
ATOM     19  C   UNL     1       1.732   7.308  20.160  0.00  0.00    +0.000 A 
ATOM     20  C   UNL     1       1.679   6.004  20.619  0.00  0.00    +0.000 A 
ATOM     21  C   UNL     1       2.259   4.952  19.887  0.00  0.00    +0.000 A 
ATOM     22  C   UNL     1       2.215   3.618  20.332  0.00  0.00    +0.000 A 
ATOM     23 CL   UNL     1       1.416   3.142  21.796  0.00  0.00    +0.000 Cl
ATOM     24  C   UNL     1       2.820   2.608  19.606  0.00  0.00    +0.000 A 
ATOM     25  C   UNL     1       3.483   2.892  18.416  0.00  0.00    +0.000 A 
ATOM     26 CL   UNL     1       4.186   1.477  17.698  0.00  0.00    +0.000 Cl
ATOM     27  C   UNL     1       3.528   4.222  17.929  0.00  0.00    +0.000 A 
ATOM     28  C   UNL     1       2.908   5.266  18.666  0.00  0.00    +0.000 A 
ATOM     29  N   UNL     1       2.931   6.554  18.227  0.00  0.00    +0.000 NA
ENDBRANCH  16  27
ENDBRANCH   1  16
TORSDOF 8
ENDMDL
MODEL 7
REMARK VINA RESULT:      -7.4      5.043      7.030
REMARK  Name = 
REMARK  10 active torsions:
REMARK  status: ('A' for Active; 'I' for Inactive)
REMARK    1  A    between atoms: C_1  and  C_2
REMARK    2  A    between atoms: C_11  and  O_12
REMARK    3  A    between atoms: O_12  and  C_13
REMARK    4  A    between atoms: C_13  and  C_14
REMARK    5  A    between atoms: C_14  and  C_15
REMARK    6  A    between atoms: C_14  and  C_16
REMARK    7  A    between atoms: C_16  and  C_17
REMARK    8  A    between atoms: C_17  and  N_18
REMARK    9  A    between atoms: N_18  and  C_19
REMARK   10  A    between atoms: C_19  and  C_20
REMARK                            x       y       z     vdW  Elec       q    Type
REMARK                         _______ _______ _______ _____ _____    ______ ____
ROOT
ATOM      1  C   UNL     1       1.459   8.167  21.040  0.00  0.00    +0.000 C 
ENDROOT
BRANCH   1   2
ATOM      2  C   UNL     1       0.188   9.001  21.244  0.00  0.00    +0.000 C 
ATOM      3  C   UNL     1       0.018   9.371  22.721  0.00  0.00    +0.000 C 
BRANCH   2   4
ATOM      4  C   UNL     1       0.252  10.280  20.374  0.00  0.00    +0.000 C 
BRANCH   4   5
ATOM      5  C   UNL     1      -0.701  10.239  19.171  0.00  0.00    +0.000 C 
BRANCH   5   6
ATOM      6  N   UNL     1      -0.463  11.379  18.288  0.00  0.00    +0.000 NA
ATOM      7  H   UNL     1      -1.121  11.352  17.508  0.00  0.00    +0.000 HD
BRANCH   6   8
ATOM      8  C   UNL     1      -0.661  12.635  19.016  0.00  0.00    +0.000 C 
BRANCH   8   9
ATOM      9  C   UNL     1       0.501  13.578  18.814  0.00  0.00    +0.000 A 
ATOM     10  C   UNL     1       1.769  13.094  18.460  0.00  0.00    +0.000 A 
ATOM     11  C   UNL     1       2.820  13.982  18.213  0.00  0.00    +0.000 A 
ATOM     12  C   UNL     1       2.610  15.355  18.328  0.00  0.00    +0.000 A 
ATOM     13 CL   UNL     1       3.898  16.447  18.004  0.00  0.00    +0.000 Cl
ATOM     14  C   UNL     1       1.361  15.851  18.697  0.00  0.00    +0.000 A 
ATOM     15  C   UNL     1       0.310  14.963  18.936  0.00  0.00    +0.000 A 
ENDBRANCH   8   9
ENDBRANCH   6   8
ENDBRANCH   5   6
ENDBRANCH   4   5
ENDBRANCH   2   4
ENDBRANCH   1   2
BRANCH   1  16
ATOM     16  O   UNL     1       1.274   7.081  20.150  0.00  0.00    +0.000 OA
BRANCH  16  27
ATOM     17  C   UNL     1       2.221   2.552  21.707  0.00  0.00    +0.000 C 
ATOM     18  C   UNL     1       2.835   3.405  20.630  0.00  0.00    +0.000 A 
ATOM     19  C   UNL     1       3.870   2.909  19.868  0.00  0.00    +0.000 A 
ATOM     20  C   UNL     1       4.372   3.710  18.858  0.00  0.00    +0.000 A 
ATOM     21  C   UNL     1       3.853   4.995  18.623  0.00  0.00    +0.000 A 
ATOM     22  C   UNL     1       4.345   5.826  17.600  0.00  0.00    +0.000 A 
ATOM     23 CL   UNL     1       5.606   5.334  16.516  0.00  0.00    +0.000 Cl
ATOM     24  C   UNL     1       3.836   7.099  17.412  0.00  0.00    +0.000 A 
ATOM     25  C   UNL     1       2.819   7.581  18.232  0.00  0.00    +0.000 A 
ATOM     26 CL   UNL     1       2.361   9.206  17.828  0.00  0.00    +0.000 Cl
ATOM     27  C   UNL     1       2.286   6.762  19.257  0.00  0.00    +0.000 A 
ATOM     28  C   UNL     1       2.802   5.454  19.458  0.00  0.00    +0.000 A 
ATOM     29  N   UNL     1       2.312   4.640  20.433  0.00  0.00    +0.000 NA
ENDBRANCH  16  27
ENDBRANCH   1  16
TORSDOF 8
ENDMDL
MODEL 8
REMARK VINA RESULT:      -7.4      5.113      7.368
REMARK  Name = 
REMARK  10 active torsions:
REMARK  status: ('A' for Active; 'I' for Inactive)
REMARK    1  A    between atoms: C_1  and  C_2
REMARK    2  A    between atoms: C_11  and  O_12
REMARK    3  A    between atoms: O_12  and  C_13
REMARK    4  A    between atoms: C_13  and  C_14
REMARK    5  A    between atoms: C_14  and  C_15
REMARK    6  A    between atoms: C_14  and  C_16
REMARK    7  A    between atoms: C_16  and  C_17
REMARK    8  A    between atoms: C_17  and  N_18
REMARK    9  A    between atoms: N_18  and  C_19
REMARK   10  A    between atoms: C_19  and  C_20
REMARK                            x       y       z     vdW  Elec       q    Type
REMARK                         _______ _______ _______ _____ _____    ______ ____
ROOT
ATOM      1  C   UNL     1       2.193   5.996  21.042  0.00  0.00    +0.000 C 
ENDROOT
BRANCH   1   2
ATOM      2  C   UNL     1       2.275   4.548  20.543  0.00  0.00    +0.000 C 
ATOM      3  C   UNL     1       2.144   3.567  21.712  0.00  0.00    +0.000 C 
BRANCH   2   4
ATOM      4  C   UNL     1       1.163   4.288  19.497  0.00  0.00    +0.000 C 
BRANCH   4   5
ATOM      5  C   UNL     1       1.232   2.884  18.879  0.00  0.00    +0.000 C 
BRANCH   5   6
ATOM      6  N   UNL     1       1.973   2.911  17.620  0.00  0.00    +0.000 NA
ATOM      7  H   UNL     1       2.041   3.872  17.283  0.00  0.00    +0.000 HD
BRANCH   6   8
ATOM      8  C   UNL     1       3.330   2.395  17.819  0.00  0.00    +0.000 C 
BRANCH   8   9
ATOM      9  C   UNL     1       4.359   3.495  17.715  0.00  0.00    +0.000 A 
ATOM     10  C   UNL     1       5.029   3.966  18.853  0.00  0.00    +0.000 A 
ATOM     11  C   UNL     1       6.025   4.939  18.734  0.00  0.00    +0.000 A 
ATOM     12  C   UNL     1       6.347   5.452  17.480  0.00  0.00    +0.000 A 
ATOM     13 CL   UNL     1       7.588   6.634  17.332  0.00  0.00    +0.000 Cl
ATOM     14  C   UNL     1       5.679   5.009  16.341  0.00  0.00    +0.000 A 
ATOM     15  C   UNL     1       4.689   4.030  16.460  0.00  0.00    +0.000 A 
ENDBRANCH   8   9
ENDBRANCH   6   8
ENDBRANCH   5   6
ENDBRANCH   4   5
ENDBRANCH   2   4
ENDBRANCH   1   2
BRANCH   1  16
ATOM     16  O   UNL     1       1.152   6.737  20.431  0.00  0.00    +0.000 OA
BRANCH  16  27
ATOM     17  C   UNL     1      -0.944  10.026  23.366  0.00  0.00    +0.000 C 
ATOM     18  C   UNL     1      -0.209  10.153  22.058  0.00  0.00    +0.000 A 
ATOM     19  C   UNL     1      -0.029  11.395  21.490  0.00  0.00    +0.000 A 
ATOM     20  C   UNL     1       0.693  11.470  20.312  0.00  0.00    +0.000 A 
ATOM     21  C   UNL     1       1.216  10.314  19.706  0.00  0.00    +0.000 A 
ATOM     22  C   UNL     1       1.956  10.366  18.510  0.00  0.00    +0.000 A 
ATOM     23 CL   UNL     1       2.321  11.852  17.695  0.00  0.00    +0.000 Cl
ATOM     24  C   UNL     1       2.433   9.209  17.920  0.00  0.00    +0.000 A 
ATOM     25  C   UNL     1       2.193   7.968  18.503  0.00  0.00    +0.000 A 
ATOM     26 CL   UNL     1       2.861   6.663  17.573  0.00  0.00    +0.000 Cl
ATOM     27  C   UNL     1       1.470   7.882  19.718  0.00  0.00    +0.000 A 
ATOM     28  C   UNL     1       0.977   9.065  20.332  0.00  0.00    +0.000 A 
ATOM     29  N   UNL     1       0.279   9.019  21.500  0.00  0.00    +0.000 NA
ENDBRANCH  16  27
ENDBRANCH   1  16
TORSDOF 8
ENDMDL
MODEL 9
REMARK VINA RESULT:      -7.4      6.173     10.273
REMARK  Name = 
REMARK  10 active torsions:
REMARK  status: ('A' for Active; 'I' for Inactive)
REMARK    1  A    between atoms: C_1  and  C_2
REMARK    2  A    between atoms: C_11  and  O_12
REMARK    3  A    between atoms: O_12  and  C_13
REMARK    4  A    between atoms: C_13  and  C_14
REMARK    5  A    between atoms: C_14  and  C_15
REMARK    6  A    between atoms: C_14  and  C_16
REMARK    7  A    between atoms: C_16  and  C_17
REMARK    8  A    between atoms: C_17  and  N_18
REMARK    9  A    between atoms: N_18  and  C_19
REMARK   10  A    between atoms: C_19  and  C_20
REMARK                            x       y       z     vdW  Elec       q    Type
REMARK                         _______ _______ _______ _____ _____    ______ ____
ROOT
ATOM      1  C   UNL     1      -0.738  10.389  18.716  0.00  0.00    +0.000 C 
ENDROOT
BRANCH   1   2
ATOM      2  C   UNL     1       0.284  10.376  19.860  0.00  0.00    +0.000 C 
ATOM      3  C   UNL     1      -0.390   9.986  21.179  0.00  0.00    +0.000 C 
BRANCH   2   4
ATOM      4  C   UNL     1       1.430   9.388  19.531  0.00  0.00    +0.000 C 
BRANCH   4   5
ATOM      5  C   UNL     1       1.522   9.047  18.036  0.00  0.00    +0.000 C 
BRANCH   5   6
ATOM      6  N   UNL     1       2.620   8.115  17.788  0.00  0.00    +0.000 NA
ATOM      7  H   UNL     1       3.453   8.633  17.508  0.00  0.00    +0.000 HD
BRANCH   6   8
ATOM      8  C   UNL     1       2.931   7.363  19.006  0.00  0.00    +0.000 C 
BRANCH   8   9
ATOM      9  C   UNL     1       2.302   5.991  18.982  0.00  0.00    +0.000 A 
ATOM     10  C   UNL     1       2.231   5.250  17.793  0.00  0.00    +0.000 A 
ATOM     11  C   UNL     1       1.705   3.955  17.797  0.00  0.00    +0.000 A 
ATOM     12  C   UNL     1       1.238   3.400  18.986  0.00  0.00    +0.000 A 
ATOM     13 CL   UNL     1       0.609   1.799  18.994  0.00  0.00    +0.000 Cl
ATOM     14  C   UNL     1       1.283   4.129  20.173  0.00  0.00    +0.000 A 
ATOM     15  C   UNL     1       1.817   5.420  20.169  0.00  0.00    +0.000 A 
ENDBRANCH   8   9
ENDBRANCH   6   8
ENDBRANCH   5   6
ENDBRANCH   4   5
ENDBRANCH   2   4
ENDBRANCH   1   2
BRANCH   1  16
ATOM     16  O   UNL     1      -1.356  11.650  18.537  0.00  0.00    +0.000 OA
BRANCH  16  27
ATOM     17  C   UNL     1      -2.822  13.198  22.928  0.00  0.00    +0.000 C 
ATOM     18  C   UNL     1      -3.574  12.832  21.677  0.00  0.00    +0.000 A 
ATOM     19  C   UNL     1      -4.948  12.920  21.652  0.00  0.00    +0.000 A 
ATOM     20  C   UNL     1      -5.595  12.619  20.466  0.00  0.00    +0.000 A 
ATOM     21  C   UNL     1      -4.874  12.223  19.325  0.00  0.00    +0.000 A 
ATOM     22  C   UNL     1      -5.509  11.916  18.108  0.00  0.00    +0.000 A 
ATOM     23 CL   UNL     1      -7.226  12.029  17.890  0.00  0.00    +0.000 Cl
ATOM     24  C   UNL     1      -4.777  11.500  17.011  0.00  0.00    +0.000 A 
ATOM     25  C   UNL     1      -3.392  11.381  17.089  0.00  0.00    +0.000 A 
ATOM     26 CL   UNL     1      -2.694  10.818  15.603  0.00  0.00    +0.000 Cl
ATOM     27  C   UNL     1      -2.719  11.704  18.293  0.00  0.00    +0.000 A 
ATOM     28  C   UNL     1      -3.463  12.133  19.425  0.00  0.00    +0.000 A 
ATOM     29  N   UNL     1      -2.848  12.452  20.597  0.00  0.00    +0.000 NA
ENDBRANCH  16  27
ENDBRANCH   1  16
TORSDOF 8
ENDMDL
