MODEL 1
REMARK VINA RESULT:      -7.7      0.000      0.000
REMARK  Name = 
REMARK  11 active torsions:
REMARK  status: ('A' for Active; 'I' for Inactive)
REMARK    1  A    between atoms: C_1  and  C_2
REMARK    2  A    between atoms: C_5  and  C_6
REMARK    3  A    between atoms: C_6  and  C_8
REMARK    4  A    between atoms: C_8  and  C_9
REMARK    5  A    between atoms: C_8  and  O_10
REMARK    6  A    between atoms: O_10  and  C_11
REMARK    7  A    between atoms: C_11  and  C_13
REMARK    8  A    between atoms: C_13  and  N_14
REMARK    9  A    between atoms: N_14  and  S_15
REMARK   10  A    between atoms: S_15  and  C_18
REMARK   11  A    between atoms: C_21  and  C_22
REMARK                            x       y       z     vdW  Elec       q    Type
REMARK                         _______ _______ _______ _____ _____    ______ ____
ROOT
ATOM      1  C   UNL     1       4.972   3.971  19.209  0.00  0.00    +0.000 C 
ATOM      2  O   UNL     1       5.386   2.935  19.715  0.00  0.00    +0.000 OA
ENDROOT
BRANCH   1   3
ATOM      3  O   UNL     1       3.846   4.047  18.445  0.00  0.00    +0.000 OA
BRANCH   3   4
ATOM      4  C   UNL     1       2.639   3.710  19.140  0.00  0.00    +0.000 C 
ATOM      5  C   UNL     1       1.611   3.502  18.029  0.00  0.00    +0.000 C 
BRANCH   4   6
ATOM      6  C   UNL     1       2.179   4.820  20.090  0.00  0.00    +0.000 C 
ATOM      7  O   UNL     1       1.939   4.599  21.278  0.00  0.00    +0.000 OA
BRANCH   6  12
ATOM      8  C   UNL     1       1.798  10.358  18.289  0.00  0.00    +0.000 C 
ATOM      9  C   UNL     1       1.857   8.926  18.743  0.00  0.00    +0.000 A 
ATOM     10  C   UNL     1       1.531   8.569  20.054  0.00  0.00    +0.000 A 
ATOM     11  C   UNL     1       1.636   7.230  20.469  0.00  0.00    +0.000 A 
ATOM     12  C   UNL     1       2.058   6.234  19.580  0.00  0.00    +0.000 A 
ATOM     13  C   UNL     1       2.357   6.594  18.261  0.00  0.00    +0.000 A 
ATOM     14  C   UNL     1       2.264   7.929  17.852  0.00  0.00    +0.000 A 
ENDBRANCH   6  12
ENDBRANCH   4   6
ENDBRANCH   3   4
ENDBRANCH   1   3
BRANCH   1  15
ATOM     15  C   UNL     1       5.746   5.274  19.162  0.00  0.00    +0.000 C 
BRANCH  15  16
ATOM     16  N   UNL     1       5.821   5.865  17.815  0.00  0.00    +0.000 NA
ATOM     17  H   UNL     1       5.490   6.828  17.730  0.00  0.00    +0.000 HD
BRANCH  16  18
ATOM     18  S   UNL     1       7.211   5.598  16.908  0.00  0.00    +0.000 S 
ATOM     19  O   UNL     1       7.721   6.910  16.578  0.00  0.00    +0.000 OA
ATOM     20  O   UNL     1       8.010   4.627  17.628  0.00  0.00    +0.000 OA
BRANCH  18  21
ATOM     21  C   UNL     1       6.614   4.863  15.418  0.00  0.00    +0.000 A 
ATOM     22  C   UNL     1       5.320   4.334  15.387  0.00  0.00    +0.000 A 
ATOM     23  C   UNL     1       4.825   3.782  14.202  0.00  0.00    +0.000 A 
ATOM     24  C   UNL     1       5.613   3.760  13.043  0.00  0.00    +0.000 A 
ATOM     25  C   UNL     1       5.090   3.154  11.772  0.00  0.00    +0.000 C 
ATOM     26  C   UNL     1       6.902   4.312  13.081  0.00  0.00    +0.000 A 
ATOM     27  C   UNL     1       7.402   4.865  14.263  0.00  0.00    +0.000 A 
ENDBRANCH  18  21
ENDBRANCH  16  18
ENDBRANCH  15  16
ENDBRANCH   1  15
TORSDOF 8
ENDMDL
MODEL 2
REMARK VINA RESULT:      -7.5      1.261      1.885
REMARK  Name = 
REMARK  11 active torsions:
REMARK  status: ('A' for Active; 'I' for Inactive)
REMARK    1  A    between atoms: C_1  and  C_2
REMARK    2  A    between atoms: C_5  and  C_6
REMARK    3  A    between atoms: C_6  and  C_8
REMARK    4  A    between atoms: C_8  and  C_9
REMARK    5  A    between atoms: C_8  and  O_10
REMARK    6  A    between atoms: O_10  and  C_11
REMARK    7  A    between atoms: C_11  and  C_13
REMARK    8  A    between atoms: C_13  and  N_14
REMARK    9  A    between atoms: N_14  and  S_15
REMARK   10  A    between atoms: S_15  and  C_18
REMARK   11  A    between atoms: C_21  and  C_22
REMARK                            x       y       z     vdW  Elec       q    Type
REMARK                         _______ _______ _______ _____ _____    ______ ____
ROOT
ATOM      1  C   UNL     1       4.710   4.249  19.357  0.00  0.00    +0.000 C 
ATOM      2  O   UNL     1       5.035   3.084  19.552  0.00  0.00    +0.000 OA
ENDROOT
BRANCH   1   3
ATOM      3  O   UNL     1       3.459   4.637  18.981  0.00  0.00    +0.000 OA
BRANCH   3   4
ATOM      4  C   UNL     1       2.876   5.641  19.821  0.00  0.00    +0.000 C 
ATOM      5  C   UNL     1       1.606   4.987  20.364  0.00  0.00    +0.000 C 
BRANCH   4   6
ATOM      6  C   UNL     1       2.529   6.920  19.053  0.00  0.00    +0.000 C 
ATOM      7  O   UNL     1       2.818   7.062  17.864  0.00  0.00    +0.000 OA
BRANCH   6  12
ATOM      8  C   UNL     1      -0.279  11.175  21.894  0.00  0.00    +0.000 C 
ATOM      9  C   UNL     1       0.409  10.060  21.156  0.00  0.00    +0.000 A 
ATOM     10  C   UNL     1       0.855   8.917  21.825  0.00  0.00    +0.000 A 
ATOM     11  C   UNL     1       1.535   7.907  21.122  0.00  0.00    +0.000 A 
ATOM     12  C   UNL     1       1.769   8.023  19.747  0.00  0.00    +0.000 A 
ATOM     13  C   UNL     1       1.296   9.158  19.078  0.00  0.00    +0.000 A 
ATOM     14  C   UNL     1       0.629  10.169  19.780  0.00  0.00    +0.000 A 
ENDBRANCH   6  12
ENDBRANCH   4   6
ENDBRANCH   3   4
ENDBRANCH   1   3
BRANCH   1  15
ATOM     15  C   UNL     1       5.681   5.412  19.285  0.00  0.00    +0.000 C 
BRANCH  15  16
ATOM     16  N   UNL     1       5.814   5.983  17.933  0.00  0.00    +0.000 NA
ATOM     17  H   UNL     1       5.521   6.956  17.828  0.00  0.00    +0.000 HD
BRANCH  16  18
ATOM     18  S   UNL     1       7.217   5.653  17.069  0.00  0.00    +0.000 S 
ATOM     19  O   UNL     1       7.785   6.942  16.739  0.00  0.00    +0.000 OA
ATOM     20  O   UNL     1       7.959   4.662  17.820  0.00  0.00    +0.000 OA
BRANCH  18  21
ATOM     21  C   UNL     1       6.634   4.924  15.569  0.00  0.00    +0.000 A 
ATOM     22  C   UNL     1       5.340   4.397  15.524  0.00  0.00    +0.000 A 
ATOM     23  C   UNL     1       4.856   3.851  14.333  0.00  0.00    +0.000 A 
ATOM     24  C   UNL     1       5.655   3.831  13.181  0.00  0.00    +0.000 A 
ATOM     25  C   UNL     1       5.144   3.231  11.903  0.00  0.00    +0.000 C 
ATOM     26  C   UNL     1       6.944   4.380  13.234  0.00  0.00    +0.000 A 
ATOM     27  C   UNL     1       7.433   4.930  14.423  0.00  0.00    +0.000 A 
ENDBRANCH  18  21
ENDBRANCH  16  18
ENDBRANCH  15  16
ENDBRANCH   1  15
TORSDOF 8
ENDMDL
MODEL 3
REMARK VINA RESULT:      -7.5      5.284      8.031
REMARK  Name = 
REMARK  11 active torsions:
REMARK  status: ('A' for Active; 'I' for Inactive)
REMARK    1  A    between atoms: C_1  and  C_2
REMARK    2  A    between atoms: C_5  and  C_6
REMARK    3  A    between atoms: C_6  and  C_8
REMARK    4  A    between atoms: C_8  and  C_9
REMARK    5  A    between atoms: C_8  and  O_10
REMARK    6  A    between atoms: O_10  and  C_11
REMARK    7  A    between atoms: C_11  and  C_13
REMARK    8  A    between atoms: C_13  and  N_14
REMARK    9  A    between atoms: N_14  and  S_15
REMARK   10  A    between atoms: S_15  and  C_18
REMARK   11  A    between atoms: C_21  and  C_22
REMARK                            x       y       z     vdW  Elec       q    Type
REMARK                         _______ _______ _______ _____ _____    ______ ____
ROOT
ATOM      1  C   UNL     1       7.948   7.787  17.970  0.00  0.00    +0.000 C 
ATOM      2  O   UNL     1       8.434   7.209  18.935  0.00  0.00    +0.000 OA
ENDROOT
BRANCH   1   3
ATOM      3  O   UNL     1       7.368   7.150  16.915  0.00  0.00    +0.000 OA
BRANCH   3   4
ATOM      4  C   UNL     1       6.588   6.003  17.277  0.00  0.00    +0.000 C 
ATOM      5  C   UNL     1       7.429   4.814  16.814  0.00  0.00    +0.000 C 
BRANCH   4   6
ATOM      6  C   UNL     1       5.218   5.985  16.591  0.00  0.00    +0.000 C 
ATOM      7  O   UNL     1       4.997   6.629  15.566  0.00  0.00    +0.000 OA
BRANCH   6  12
ATOM      8  C   UNL     1       0.823   2.776  18.701  0.00  0.00    +0.000 C 
ATOM      9  C   UNL     1       1.976   3.597  18.193  0.00  0.00    +0.000 A 
ATOM     10  C   UNL     1       2.034   4.976  18.414  0.00  0.00    +0.000 A 
ATOM     11  C   UNL     1       3.098   5.730  17.891  0.00  0.00    +0.000 A 
ATOM     12  C   UNL     1       4.117   5.119  17.151  0.00  0.00    +0.000 A 
ATOM     13  C   UNL     1       4.066   3.733  16.956  0.00  0.00    +0.000 A 
ATOM     14  C   UNL     1       3.000   2.984  17.467  0.00  0.00    +0.000 A 
ENDBRANCH   6  12
ENDBRANCH   4   6
ENDBRANCH   3   4
ENDBRANCH   1   3
BRANCH   1  15
ATOM     15  C   UNL     1       8.108   9.268  17.685  0.00  0.00    +0.000 C 
BRANCH  15  16
ATOM     16  N   UNL     1       8.874   9.986  18.719  0.00  0.00    +0.000 NA
ATOM     17  H   UNL     1       9.599   9.445  19.194  0.00  0.00    +0.000 HD
BRANCH  16  18
ATOM     18  S   UNL     1       9.378  11.554  18.385  0.00  0.00    +0.000 S 
ATOM     19  O   UNL     1      10.779  11.450  18.041  0.00  0.00    +0.000 OA
ATOM     20  O   UNL     1       8.409  12.130  17.476  0.00  0.00    +0.000 OA
BRANCH  18  21
ATOM     21  C   UNL     1       9.268  12.378  19.943  0.00  0.00    +0.000 A 
ATOM     22  C   UNL     1       9.287  13.776  19.980  0.00  0.00    +0.000 A 
ATOM     23  C   UNL     1       9.165  14.438  21.204  0.00  0.00    +0.000 A 
ATOM     24  C   UNL     1       9.019  13.714  22.395  0.00  0.00    +0.000 A 
ATOM     25  C   UNL     1       8.904  14.422  23.714  0.00  0.00    +0.000 C 
ATOM     26  C   UNL     1       8.983  12.313  22.344  0.00  0.00    +0.000 A 
ATOM     27  C   UNL     1       9.103  11.645  21.121  0.00  0.00    +0.000 A 
ENDBRANCH  18  21
ENDBRANCH  16  18
ENDBRANCH  15  16
ENDBRANCH   1  15
TORSDOF 8
ENDMDL
MODEL 4
REMARK VINA RESULT:      -7.2      2.726      3.703
REMARK  Name = 
REMARK  11 active torsions:
REMARK  status: ('A' for Active; 'I' for Inactive)
REMARK    1  A    between atoms: C_1  and  C_2
REMARK    2  A    between atoms: C_5  and  C_6
REMARK    3  A    between atoms: C_6  and  C_8
REMARK    4  A    between atoms: C_8  and  C_9
REMARK    5  A    between atoms: C_8  and  O_10
REMARK    6  A    between atoms: O_10  and  C_11
REMARK    7  A    between atoms: C_11  and  C_13
REMARK    8  A    between atoms: C_13  and  N_14
REMARK    9  A    between atoms: N_14  and  S_15
REMARK   10  A    between atoms: S_15  and  C_18
REMARK   11  A    between atoms: C_21  and  C_22
REMARK                            x       y       z     vdW  Elec       q    Type
REMARK                         _______ _______ _______ _____ _____    ______ ____
ROOT
ATOM      1  C   UNL     1       3.430   2.775  20.057  0.00  0.00    +0.000 C 
ATOM      2  O   UNL     1       3.727   2.382  21.179  0.00  0.00    +0.000 OA
ENDROOT
BRANCH   1   3
ATOM      3  O   UNL     1       2.297   3.477  19.773  0.00  0.00    +0.000 OA
BRANCH   3   4
ATOM      4  C   UNL     1       2.128   4.665  20.557  0.00  0.00    +0.000 C 
ATOM      5  C   UNL     1       0.642   4.993  20.427  0.00  0.00    +0.000 C 
BRANCH   4   6
ATOM      6  C   UNL     1       2.978   5.832  20.044  0.00  0.00    +0.000 C 
ATOM      7  O   UNL     1       4.191   5.723  19.867  0.00  0.00    +0.000 OA
BRANCH   6  12
ATOM      8  C   UNL     1       0.341  10.813  18.526  0.00  0.00    +0.000 C 
ATOM      9  C   UNL     1       1.054   9.551  18.926  0.00  0.00    +0.000 A 
ATOM     10  C   UNL     1       1.795   8.814  17.998  0.00  0.00    +0.000 A 
ATOM     11  C   UNL     1       2.417   7.614  18.383  0.00  0.00    +0.000 A 
ATOM     12  C   UNL     1       2.313   7.141  19.697  0.00  0.00    +0.000 A 
ATOM     13  C   UNL     1       1.591   7.897  20.628  0.00  0.00    +0.000 A 
ATOM     14  C   UNL     1       0.963   9.087  20.241  0.00  0.00    +0.000 A 
ENDBRANCH   6  12
ENDBRANCH   4   6
ENDBRANCH   3   4
ENDBRANCH   1   3
BRANCH   1  15
ATOM     15  C   UNL     1       4.144   2.364  18.784  0.00  0.00    +0.000 C 
BRANCH  15  16
ATOM     16  N   UNL     1       5.276   3.240  18.436  0.00  0.00    +0.000 NA
ATOM     17  H   UNL     1       6.207   2.836  18.554  0.00  0.00    +0.000 HD
BRANCH  16  18
ATOM     18  S   UNL     1       5.164   4.159  17.033  0.00  0.00    +0.000 S 
ATOM     19  O   UNL     1       5.876   3.412  16.018  0.00  0.00    +0.000 OA
ATOM     20  O   UNL     1       3.772   4.528  16.874  0.00  0.00    +0.000 OA
BRANCH  18  21
ATOM     21  C   UNL     1       6.108   5.607  17.394  0.00  0.00    +0.000 A 
ATOM     22  C   UNL     1       7.251   5.496  18.192  0.00  0.00    +0.000 A 
ATOM     23  C   UNL     1       8.025   6.629  18.454  0.00  0.00    +0.000 A 
ATOM     24  C   UNL     1       7.669   7.875  17.920  0.00  0.00    +0.000 A 
ATOM     25  C   UNL     1       8.490   9.098  18.212  0.00  0.00    +0.000 C 
ATOM     26  C   UNL     1       6.531   7.970  17.105  0.00  0.00    +0.000 A 
ATOM     27  C   UNL     1       5.753   6.839  16.839  0.00  0.00    +0.000 A 
ENDBRANCH  18  21
ENDBRANCH  16  18
ENDBRANCH  15  16
ENDBRANCH   1  15
TORSDOF 8
ENDMDL
MODEL 5
REMARK VINA RESULT:      -7.2      1.939      6.864
REMARK  Name = 
REMARK  11 active torsions:
REMARK  status: ('A' for Active; 'I' for Inactive)
REMARK    1  A    between atoms: C_1  and  C_2
REMARK    2  A    between atoms: C_5  and  C_6
REMARK    3  A    between atoms: C_6  and  C_8
REMARK    4  A    between atoms: C_8  and  C_9
REMARK    5  A    between atoms: C_8  and  O_10
REMARK    6  A    between atoms: O_10  and  C_11
REMARK    7  A    between atoms: C_11  and  C_13
REMARK    8  A    between atoms: C_13  and  N_14
REMARK    9  A    between atoms: N_14  and  S_15
REMARK   10  A    between atoms: S_15  and  C_18
REMARK   11  A    between atoms: C_21  and  C_22
REMARK                            x       y       z     vdW  Elec       q    Type
REMARK                         _______ _______ _______ _____ _____    ______ ____
ROOT
ATOM      1  C   UNL     1       6.755   5.226  19.177  0.00  0.00    +0.000 C 
ATOM      2  O   UNL     1       7.362   5.155  20.239  0.00  0.00    +0.000 OA
ENDROOT
BRANCH   1   3
ATOM      3  O   UNL     1       6.447   6.398  18.554  0.00  0.00    +0.000 OA
BRANCH   3   4
ATOM      4  C   UNL     1       6.990   6.522  17.233  0.00  0.00    +0.000 C 
ATOM      5  C   UNL     1       7.614   7.917  17.213  0.00  0.00    +0.000 C 
BRANCH   4   6
ATOM      6  C   UNL     1       5.919   6.402  16.145  0.00  0.00    +0.000 C 
ATOM      7  O   UNL     1       4.903   7.098  16.154  0.00  0.00    +0.000 OA
BRANCH   6  12
ATOM      8  C   UNL     1       6.533   2.732  11.649  0.00  0.00    +0.000 C 
ATOM      9  C   UNL     1       6.389   3.649  12.832  0.00  0.00    +0.000 A 
ATOM     10  C   UNL     1       5.216   3.671  13.591  0.00  0.00    +0.000 A 
ATOM     11  C   UNL     1       5.087   4.567  14.666  0.00  0.00    +0.000 A 
ATOM     12  C   UNL     1       6.126   5.444  14.999  0.00  0.00    +0.000 A 
ATOM     13  C   UNL     1       7.309   5.398  14.251  0.00  0.00    +0.000 A 
ATOM     14  C   UNL     1       7.433   4.512  13.174  0.00  0.00    +0.000 A 
ENDBRANCH   6  12
ENDBRANCH   4   6
ENDBRANCH   3   4
ENDBRANCH   1   3
BRANCH   1  15
ATOM     15  C   UNL     1       6.059   4.058  18.505  0.00  0.00    +0.000 C 
BRANCH  15  16
ATOM     16  N   UNL     1       5.112   3.351  19.385  0.00  0.00    +0.000 NA
ATOM     17  H   UNL     1       5.216   3.529  20.386  0.00  0.00    +0.000 HD
BRANCH  16  18
ATOM     18  S   UNL     1       3.498   3.286  18.923  0.00  0.00    +0.000 S 
ATOM     19  O   UNL     1       3.505   3.276  17.476  0.00  0.00    +0.000 OA
ATOM     20  O   UNL     1       2.877   2.226  19.690  0.00  0.00    +0.000 OA
BRANCH  18  21
ATOM     21  C   UNL     1       2.841   4.839  19.445  0.00  0.00    +0.000 A 
ATOM     22  C   UNL     1       3.040   5.969  18.646  0.00  0.00    +0.000 A 
ATOM     23  C   UNL     1       2.494   7.195  19.033  0.00  0.00    +0.000 A 
ATOM     24  C   UNL     1       1.743   7.302  20.211  0.00  0.00    +0.000 A 
ATOM     25  C   UNL     1       1.167   8.622  20.637  0.00  0.00    +0.000 C 
ATOM     26  C   UNL     1       1.533   6.158  20.995  0.00  0.00    +0.000 A 
ATOM     27  C   UNL     1       2.077   4.927  20.612  0.00  0.00    +0.000 A 
ENDBRANCH  18  21
ENDBRANCH  16  18
ENDBRANCH  15  16
ENDBRANCH   1  15
TORSDOF 8
ENDMDL
MODEL 6
REMARK VINA RESULT:      -7.1      5.115      7.770
REMARK  Name = 
REMARK  11 active torsions:
REMARK  status: ('A' for Active; 'I' for Inactive)
REMARK    1  A    between atoms: C_1  and  C_2
REMARK    2  A    between atoms: C_5  and  C_6
REMARK    3  A    between atoms: C_6  and  C_8
REMARK    4  A    between atoms: C_8  and  C_9
REMARK    5  A    between atoms: C_8  and  O_10
REMARK    6  A    between atoms: O_10  and  C_11
REMARK    7  A    between atoms: C_11  and  C_13
REMARK    8  A    between atoms: C_13  and  N_14
REMARK    9  A    between atoms: N_14  and  S_15
REMARK   10  A    between atoms: S_15  and  C_18
REMARK   11  A    between atoms: C_21  and  C_22
REMARK                            x       y       z     vdW  Elec       q    Type
REMARK                         _______ _______ _______ _____ _____    ______ ____
ROOT
ATOM      1  C   UNL     1       7.927   7.522  17.981  0.00  0.00    +0.000 C 
ATOM      2  O   UNL     1       8.353   6.976  18.992  0.00  0.00    +0.000 OA
ENDROOT
BRANCH   1   3
ATOM      3  O   UNL     1       7.615   6.857  16.833  0.00  0.00    +0.000 OA
BRANCH   3   4
ATOM      4  C   UNL     1       6.727   5.747  17.018  0.00  0.00    +0.000 C 
ATOM      5  C   UNL     1       7.103   4.774  15.902  0.00  0.00    +0.000 C 
BRANCH   4   6
ATOM      6  C   UNL     1       5.253   6.148  16.900  0.00  0.00    +0.000 C 
ATOM      7  O   UNL     1       4.848   6.869  15.988  0.00  0.00    +0.000 OA
BRANCH   6  12
ATOM      8  C   UNL     1       1.317   3.946  20.603  0.00  0.00    +0.000 C 
ATOM      9  C   UNL     1       2.319   4.551  19.660  0.00  0.00    +0.000 A 
ATOM     10  C   UNL     1       1.982   4.837  18.334  0.00  0.00    +0.000 A 
ATOM     11  C   UNL     1       2.947   5.362  17.457  0.00  0.00    +0.000 A 
ATOM     12  C   UNL     1       4.254   5.612  17.894  0.00  0.00    +0.000 A 
ATOM     13  C   UNL     1       4.577   5.348  19.230  0.00  0.00    +0.000 A 
ATOM     14  C   UNL     1       3.618   4.815  20.100  0.00  0.00    +0.000 A 
ENDBRANCH   6  12
ENDBRANCH   4   6
ENDBRANCH   3   4
ENDBRANCH   1   3
BRANCH   1  15
ATOM     15  C   UNL     1       7.889   9.022  17.763  0.00  0.00    +0.000 C 
BRANCH  15  16
ATOM     16  N   UNL     1       8.813   9.766  18.637  0.00  0.00    +0.000 NA
ATOM     17  H   UNL     1       9.626   9.245  18.973  0.00  0.00    +0.000 HD
BRANCH  16  18
ATOM     18  S   UNL     1       9.210  11.342  18.211  0.00  0.00    +0.000 S 
ATOM     19  O   UNL     1      10.601  11.303  17.816  0.00  0.00    +0.000 OA
ATOM     20  O   UNL     1       8.175  11.816  17.314  0.00  0.00    +0.000 OA
BRANCH  18  21
ATOM     21  C   UNL     1       9.109  12.234  19.732  0.00  0.00    +0.000 A 
ATOM     22  C   UNL     1       9.260  11.545  20.939  0.00  0.00    +0.000 A 
ATOM     23  C   UNL     1       9.218  12.247  22.146  0.00  0.00    +0.000 A 
ATOM     24  C   UNL     1       9.031  13.636  22.158  0.00  0.00    +0.000 A 
ATOM     25  C   UNL     1       8.969  14.391  23.455  0.00  0.00    +0.000 C 
ATOM     26  C   UNL     1       8.899  14.318  20.940  0.00  0.00    +0.000 A 
ATOM     27  C   UNL     1       8.942  13.621  19.728  0.00  0.00    +0.000 A 
ENDBRANCH  18  21
ENDBRANCH  16  18
ENDBRANCH  15  16
ENDBRANCH   1  15
TORSDOF 8
ENDMDL
MODEL 7
REMARK VINA RESULT:      -7.0      4.823      7.476
REMARK  Name = 
REMARK  11 active torsions:
REMARK  status: ('A' for Active; 'I' for Inactive)
REMARK    1  A    between atoms: C_1  and  C_2
REMARK    2  A    between atoms: C_5  and  C_6
REMARK    3  A    between atoms: C_6  and  C_8
REMARK    4  A    between atoms: C_8  and  C_9
REMARK    5  A    between atoms: C_8  and  O_10
REMARK    6  A    between atoms: O_10  and  C_11
REMARK    7  A    between atoms: C_11  and  C_13
REMARK    8  A    between atoms: C_13  and  N_14
REMARK    9  A    between atoms: N_14  and  S_15
REMARK   10  A    between atoms: S_15  and  C_18
REMARK   11  A    between atoms: C_21  and  C_22
REMARK                            x       y       z     vdW  Elec       q    Type
REMARK                         _______ _______ _______ _____ _____    ______ ____
ROOT
ATOM      1  C   UNL     1       7.987   7.957  17.992  0.00  0.00    +0.000 C 
ATOM      2  O   UNL     1       8.488   7.223  18.836  0.00  0.00    +0.000 OA
ENDROOT
BRANCH   1   3
ATOM      3  O   UNL     1       7.187   7.516  16.981  0.00  0.00    +0.000 OA
BRANCH   3   4
ATOM      4  C   UNL     1       6.472   6.310  17.278  0.00  0.00    +0.000 C 
ATOM      5  C   UNL     1       7.194   5.235  16.467  0.00  0.00    +0.000 C 
BRANCH   4   6
ATOM      6  C   UNL     1       4.998   6.385  16.869  0.00  0.00    +0.000 C 
ATOM      7  O   UNL     1       4.634   6.993  15.862  0.00  0.00    +0.000 OA
BRANCH   6  12
ATOM      8  C   UNL     1       0.891   3.748  20.068  0.00  0.00    +0.000 C 
ATOM      9  C   UNL     1       1.977   4.407  19.266  0.00  0.00    +0.000 A 
ATOM     10  C   UNL     1       2.549   5.614  19.677  0.00  0.00    +0.000 A 
ATOM     11  C   UNL     1       3.532   6.236  18.888  0.00  0.00    +0.000 A 
ATOM     12  C   UNL     1       3.960   5.658  17.687  0.00  0.00    +0.000 A 
ATOM     13  C   UNL     1       3.403   4.435  17.294  0.00  0.00    +0.000 A 
ATOM     14  C   UNL     1       2.416   3.822  18.075  0.00  0.00    +0.000 A 
ENDBRANCH   6  12
ENDBRANCH   4   6
ENDBRANCH   3   4
ENDBRANCH   1   3
BRANCH   1  15
ATOM     15  C   UNL     1       8.348   9.417  17.799  0.00  0.00    +0.000 C 
BRANCH  15  16
ATOM     16  N   UNL     1       8.949  10.037  18.992  0.00  0.00    +0.000 NA
ATOM     17  H   UNL     1       9.303   9.390  19.701  0.00  0.00    +0.000 HD
BRANCH  16  18
ATOM     18  S   UNL     1       9.973  11.350  18.773  0.00  0.00    +0.000 S 
ATOM     19  O   UNL     1      10.791  11.412  19.965  0.00  0.00    +0.000 OA
ATOM     20  O   UNL     1      10.556  11.221  17.453  0.00  0.00    +0.000 OA
BRANCH  18  21
ATOM     21  C   UNL     1       8.890  12.745  18.793  0.00  0.00    +0.000 A 
ATOM     22  C   UNL     1       8.820  13.539  19.941  0.00  0.00    +0.000 A 
ATOM     23  C   UNL     1       7.994  14.666  19.954  0.00  0.00    +0.000 A 
ATOM     24  C   UNL     1       7.238  15.009  18.825  0.00  0.00    +0.000 A 
ATOM     25  C   UNL     1       6.336  16.210  18.841  0.00  0.00    +0.000 C 
ATOM     26  C   UNL     1       7.331  14.215  17.672  0.00  0.00    +0.000 A 
ATOM     27  C   UNL     1       8.157  13.087  17.653  0.00  0.00    +0.000 A 
ENDBRANCH  18  21
ENDBRANCH  16  18
ENDBRANCH  15  16
ENDBRANCH   1  15
TORSDOF 8
ENDMDL
MODEL 8
REMARK VINA RESULT:      -7.0      3.426      5.576
REMARK  Name = 
REMARK  11 active torsions:
REMARK  status: ('A' for Active; 'I' for Inactive)
REMARK    1  A    between atoms: C_1  and  C_2
REMARK    2  A    between atoms: C_5  and  C_6
REMARK    3  A    between atoms: C_6  and  C_8
REMARK    4  A    between atoms: C_8  and  C_9
REMARK    5  A    between atoms: C_8  and  O_10
REMARK    6  A    between atoms: O_10  and  C_11
REMARK    7  A    between atoms: C_11  and  C_13
REMARK    8  A    between atoms: C_13  and  N_14
REMARK    9  A    between atoms: N_14  and  S_15
REMARK   10  A    between atoms: S_15  and  C_18
REMARK   11  A    between atoms: C_21  and  C_22
REMARK                            x       y       z     vdW  Elec       q    Type
REMARK                         _______ _______ _______ _____ _____    ______ ____
ROOT
ATOM      1  C   UNL     1       1.445   7.357  20.696  0.00  0.00    +0.000 C 
ATOM      2  O   UNL     1       0.392   7.557  21.291  0.00  0.00    +0.000 OA
ENDROOT
BRANCH   1   3
ATOM      3  O   UNL     1       2.069   8.289  19.922  0.00  0.00    +0.000 OA
BRANCH   3   4
ATOM      4  C   UNL     1       1.247   8.838  18.884  0.00  0.00    +0.000 C 
ATOM      5  C   UNL     1       2.217   9.092  17.732  0.00  0.00    +0.000 C 
BRANCH   4   6
ATOM      6  C   UNL     1       0.565  10.144  19.304  0.00  0.00    +0.000 C 
ATOM      7  O   UNL     1       1.101  10.935  20.081  0.00  0.00    +0.000 OA
BRANCH   6  12
ATOM      8  C   UNL     1      -4.666  11.340  17.010  0.00  0.00    +0.000 C 
ATOM      9  C   UNL     1      -3.302  11.060  17.577  0.00  0.00    +0.000 A 
ATOM     10  C   UNL     1      -2.456  10.114  16.992  0.00  0.00    +0.000 A 
ATOM     11  C   UNL     1      -1.203   9.837  17.565  0.00  0.00    +0.000 A 
ATOM     12  C   UNL     1      -0.778  10.504  18.719  0.00  0.00    +0.000 A 
ATOM     13  C   UNL     1      -1.618  11.471  19.284  0.00  0.00    +0.000 A 
ATOM     14  C   UNL     1      -2.871  11.738  18.720  0.00  0.00    +0.000 A 
ENDBRANCH   6  12
ENDBRANCH   4   6
ENDBRANCH   3   4
ENDBRANCH   1   3
BRANCH   1  15
ATOM     15  C   UNL     1       2.100   5.998  20.541  0.00  0.00    +0.000 C 
BRANCH  15  16
ATOM     16  N   UNL     1       1.517   5.184  19.461  0.00  0.00    +0.000 NA
ATOM     17  H   UNL     1       0.897   5.678  18.815  0.00  0.00    +0.000 HD
BRANCH  16  18
ATOM     18  S   UNL     1       2.516   4.095  18.662  0.00  0.00    +0.000 S 
ATOM     19  O   UNL     1       2.840   3.074  19.636  0.00  0.00    +0.000 OA
ATOM     20  O   UNL     1       1.877   3.773  17.403  0.00  0.00    +0.000 OA
BRANCH  18  21
ATOM     21  C   UNL     1       3.988   5.018  18.344  0.00  0.00    +0.000 A 
ATOM     22  C   UNL     1       5.143   4.737  19.080  0.00  0.00    +0.000 A 
ATOM     23  C   UNL     1       6.322   5.437  18.811  0.00  0.00    +0.000 A 
ATOM     24  C   UNL     1       6.358   6.414  17.807  0.00  0.00    +0.000 A 
ATOM     25  C   UNL     1       7.619   7.179  17.526  0.00  0.00    +0.000 C 
ATOM     26  C   UNL     1       5.198   6.674  17.062  0.00  0.00    +0.000 A 
ATOM     27  C   UNL     1       4.015   5.976  17.326  0.00  0.00    +0.000 A 
ENDBRANCH  18  21
ENDBRANCH  16  18
ENDBRANCH  15  16
ENDBRANCH   1  15
TORSDOF 8
ENDMDL
MODEL 9
REMARK VINA RESULT:      -7.0      3.019      4.593
REMARK  Name = 
REMARK  11 active torsions:
REMARK  status: ('A' for Active; 'I' for Inactive)
REMARK    1  A    between atoms: C_1  and  C_2
REMARK    2  A    between atoms: C_5  and  C_6
REMARK    3  A    between atoms: C_6  and  C_8
REMARK    4  A    between atoms: C_8  and  C_9
REMARK    5  A    between atoms: C_8  and  O_10
REMARK    6  A    between atoms: O_10  and  C_11
REMARK    7  A    between atoms: C_11  and  C_13
REMARK    8  A    between atoms: C_13  and  N_14
REMARK    9  A    between atoms: N_14  and  S_15
REMARK   10  A    between atoms: S_15  and  C_18
REMARK   11  A    between atoms: C_21  and  C_22
REMARK                            x       y       z     vdW  Elec       q    Type
REMARK                         _______ _______ _______ _____ _____    ______ ____
ROOT
ATOM      1  C   UNL     1       2.681   7.051  18.639  0.00  0.00    +0.000 C 
ATOM      2  O   UNL     1       3.570   7.342  17.847  0.00  0.00    +0.000 OA
ENDROOT
BRANCH   1   3
ATOM      3  O   UNL     1       1.518   7.749  18.767  0.00  0.00    +0.000 OA
BRANCH   3   4
ATOM      4  C   UNL     1       1.646   8.977  19.495  0.00  0.00    +0.000 C 
ATOM      5  C   UNL     1       0.710   8.805  20.690  0.00  0.00    +0.000 C 
BRANCH   4   6
ATOM      6  C   UNL     1       1.232  10.196  18.666  0.00  0.00    +0.000 C 
ATOM      7  O   UNL     1       2.062  10.917  18.112  0.00  0.00    +0.000 OA
BRANCH   6  12
ATOM      8  C   UNL     1      -4.389  11.588  17.937  0.00  0.00    +0.000 C 
ATOM      9  C   UNL     1      -2.952  11.203  18.154  0.00  0.00    +0.000 A 
ATOM     10  C   UNL     1      -2.155  11.881  19.080  0.00  0.00    +0.000 A 
ATOM     11  C   UNL     1      -0.802  11.534  19.235  0.00  0.00    +0.000 A 
ATOM     12  C   UNL     1      -0.233  10.505  18.476  0.00  0.00    +0.000 A 
ATOM     13  C   UNL     1      -1.044   9.812  17.569  0.00  0.00    +0.000 A 
ATOM     14  C   UNL     1      -2.389  10.166  17.407  0.00  0.00    +0.000 A 
ENDBRANCH   6  12
ENDBRANCH   4   6
ENDBRANCH   3   4
ENDBRANCH   1   3
BRANCH   1  15
ATOM     15  C   UNL     1       2.817   6.020  19.743  0.00  0.00    +0.000 C 
BRANCH  15  16
ATOM     16  N   UNL     1       4.140   5.372  19.783  0.00  0.00    +0.000 NA
ATOM     17  H   UNL     1       4.640   5.433  20.672  0.00  0.00    +0.000 HD
BRANCH  16  18
ATOM     18  S   UNL     1       4.303   3.859  19.072  0.00  0.00    +0.000 S 
ATOM     19  O   UNL     1       5.167   3.103  19.954  0.00  0.00    +0.000 OA
ATOM     20  O   UNL     1       2.971   3.401  18.732  0.00  0.00    +0.000 OA
BRANCH  18  21
ATOM     21  C   UNL     1       5.201   4.179  17.586  0.00  0.00    +0.000 A 
ATOM     22  C   UNL     1       4.551   4.053  16.355  0.00  0.00    +0.000 A 
ATOM     23  C   UNL     1       5.242   4.338  15.174  0.00  0.00    +0.000 A 
ATOM     24  C   UNL     1       6.580   4.755  15.215  0.00  0.00    +0.000 A 
ATOM     25  C   UNL     1       7.331   5.047  13.947  0.00  0.00    +0.000 C 
ATOM     26  C   UNL     1       7.216   4.895  16.457  0.00  0.00    +0.000 A 
ATOM     27  C   UNL     1       6.528   4.612  17.641  0.00  0.00    +0.000 A 
ENDBRANCH  18  21
ENDBRANCH  16  18
ENDBRANCH  15  16
ENDBRANCH   1  15
TORSDOF 8
ENDMDL
