MODEL 1
REMARK VINA RESULT:      -6.5      0.000      0.000
REMARK  Name = 
REMARK  7 active torsions:
REMARK  status: ('A' for Active; 'I' for Inactive)
REMARK    1  A    between atoms: C_1  and  O_2
REMARK    2  A    between atoms: O_2  and  C_3
REMARK    3  A    between atoms: C_5  and  C_6
REMARK    4  A    between atoms: C_7  and  C_8
REMARK    5  A    between atoms: C_8  and  N_9
REMARK    6  A    between atoms: C_11  and  N_12
REMARK    7  A    between atoms: C_20  and  C_21
REMARK                            x       y       z     vdW  Elec       q    Type
REMARK                         _______ _______ _______ _____ _____    ______ ____
ROOT
ATOM      1  C   UNL     1       1.929   8.173  20.068  0.00  0.00    +0.000 C 
ENDROOT
BRANCH   1   6
ATOM      2  C   UNL     1       2.962   4.012  19.318  0.00  0.00    +0.000 A 
ATOM      3  C   UNL     1       3.380   5.003  18.425  0.00  0.00    +0.000 A 
ATOM      4  C   UNL     1       3.056   6.360  18.622  0.00  0.00    +0.000 A 
ATOM      5  C   UNL     1       3.588   7.361  17.630  0.00  0.00    +0.000 C 
ATOM      6  C   UNL     1       2.256   6.727  19.721  0.00  0.00    +0.000 A 
ATOM      7  C   UNL     1       1.824   5.716  20.603  0.00  0.00    +0.000 A 
ATOM      8  C   UNL     1       2.161   4.365  20.411  0.00  0.00    +0.000 A 
ATOM      9  C   UNL     1       1.697   3.330  21.396  0.00  0.00    +0.000 C 
BRANCH   2  11
ATOM     10  C   UNL     1       2.881   2.090  17.937  0.00  0.00    +0.000 C 
ATOM     11  O   UNL     1       3.257   2.680  19.176  0.00  0.00    +0.000 OA
ENDBRANCH   2  11
ENDBRANCH   1   6
BRANCH   1  12
ATOM     12  N   UNL     1       0.606   8.610  19.593  0.00  0.00    +0.000 NA
ATOM     13  C   UNL     1       0.138   9.763  20.385  0.00  0.00    +0.000 C 
ATOM     14  C   UNL     1      -0.166  10.551  19.085  0.00  0.00    +0.000 C 
ATOM     15  C   UNL     1       0.699   9.460  18.388  0.00  0.00    +0.000 C 
BRANCH  14  16
ATOM     16  N   UNL     1      -1.599  10.454  18.683  0.00  0.00    +0.000 NA
ATOM     17  C   UNL     1      -2.277  11.743  18.923  0.00  0.00    +0.000 C 
ATOM     18  C   UNL     1      -3.748  11.692  18.501  0.00  0.00    +0.000 C 
ATOM     19  C   UNL     1      -3.891  11.302  17.036  0.00  0.00    +0.000 C 
ATOM     20  C   UNL     1      -3.113  10.022  16.756  0.00  0.00    +0.000 C 
ATOM     21  C   UNL     1      -1.666  10.132  17.242  0.00  0.00    +0.000 C 
ENDBRANCH  14  16
ENDBRANCH   1  12
TORSDOF 4
ENDMDL
MODEL 2
REMARK VINA RESULT:      -6.5      1.948      2.436
REMARK  Name = 
REMARK  7 active torsions:
REMARK  status: ('A' for Active; 'I' for Inactive)
REMARK    1  A    between atoms: C_1  and  O_2
REMARK    2  A    between atoms: O_2  and  C_3
REMARK    3  A    between atoms: C_5  and  C_6
REMARK    4  A    between atoms: C_7  and  C_8
REMARK    5  A    between atoms: C_8  and  N_9
REMARK    6  A    between atoms: C_11  and  N_12
REMARK    7  A    between atoms: C_20  and  C_21
REMARK                            x       y       z     vdW  Elec       q    Type
REMARK                         _______ _______ _______ _____ _____    ______ ____
ROOT
ATOM      1  C   UNL     1       2.098   7.799  20.819  0.00  0.00    +0.000 C 
ENDROOT
BRANCH   1   6
ATOM      2  C   UNL     1       1.692   4.021  18.697  0.00  0.00    +0.000 A 
ATOM      3  C   UNL     1       2.091   5.166  18.003  0.00  0.00    +0.000 A 
ATOM      4  C   UNL     1       2.222   6.413  18.648  0.00  0.00    +0.000 A 
ATOM      5  C   UNL     1       2.701   7.582  17.827  0.00  0.00    +0.000 C 
ATOM      6  C   UNL     1       1.903   6.520  20.015  0.00  0.00    +0.000 A 
ATOM      7  C   UNL     1       1.483   5.361  20.699  0.00  0.00    +0.000 A 
ATOM      8  C   UNL     1       1.367   4.117  20.055  0.00  0.00    +0.000 A 
ATOM      9  C   UNL     1       0.940   2.907  20.836  0.00  0.00    +0.000 C 
BRANCH   2  11
ATOM     10  C   UNL     1       2.760   2.183  17.652  0.00  0.00    +0.000 C 
ATOM     11  O   UNL     1       1.558   2.785  18.118  0.00  0.00    +0.000 OA
ENDBRANCH   2  11
ENDBRANCH   1   6
BRANCH   1  12
ATOM     12  N   UNL     1       0.878   8.612  20.941  0.00  0.00    +0.000 NA
ATOM     13  C   UNL     1       0.938   9.436  22.164  0.00  0.00    +0.000 C 
ATOM     14  C   UNL     1       0.581  10.703  21.344  0.00  0.00    +0.000 C 
ATOM     15  C   UNL     1       0.930   9.827  20.104  0.00  0.00    +0.000 C 
BRANCH  14  16
ATOM     16  N   UNL     1      -0.875  11.022  21.396  0.00  0.00    +0.000 NA
ATOM     17  C   UNL     1      -1.197  11.692  22.672  0.00  0.00    +0.000 C 
ATOM     18  C   UNL     1      -2.681  12.058  22.756  0.00  0.00    +0.000 C 
ATOM     19  C   UNL     1      -3.100  12.945  21.592  0.00  0.00    +0.000 C 
ATOM     20  C   UNL     1      -2.685  12.308  20.271  0.00  0.00    +0.000 C 
ATOM     21  C   UNL     1      -1.201  11.931  20.277  0.00  0.00    +0.000 C 
ENDBRANCH  14  16
ENDBRANCH   1  12
TORSDOF 4
ENDMDL
MODEL 3
REMARK VINA RESULT:      -6.3      2.908      7.737
REMARK  Name = 
REMARK  7 active torsions:
REMARK  status: ('A' for Active; 'I' for Inactive)
REMARK    1  A    between atoms: C_1  and  O_2
REMARK    2  A    between atoms: O_2  and  C_3
REMARK    3  A    between atoms: C_5  and  C_6
REMARK    4  A    between atoms: C_7  and  C_8
REMARK    5  A    between atoms: C_8  and  N_9
REMARK    6  A    between atoms: C_11  and  N_12
REMARK    7  A    between atoms: C_20  and  C_21
REMARK                            x       y       z     vdW  Elec       q    Type
REMARK                         _______ _______ _______ _____ _____    ______ ____
ROOT
ATOM      1  C   UNL     1       1.808   9.548  17.985  0.00  0.00    +0.000 C 
ENDROOT
BRANCH   1   6
ATOM      2  C   UNL     1      -1.945  11.646  18.661  0.00  0.00    +0.000 A 
ATOM      3  C   UNL     1      -0.746  12.209  19.104  0.00  0.00    +0.000 A 
ATOM      4  C   UNL     1       0.490  11.558  18.919  0.00  0.00    +0.000 A 
ATOM      5  C   UNL     1       1.734  12.264  19.390  0.00  0.00    +0.000 C 
ATOM      6  C   UNL     1       0.518  10.289  18.310  0.00  0.00    +0.000 A 
ATOM      7  C   UNL     1      -0.701   9.722  17.886  0.00  0.00    +0.000 A 
ATOM      8  C   UNL     1      -1.930  10.381  18.060  0.00  0.00    +0.000 A 
ATOM      9  C   UNL     1      -3.198   9.745  17.566  0.00  0.00    +0.000 C 
BRANCH   2  11
ATOM     10  C   UNL     1      -3.487  12.694  20.122  0.00  0.00    +0.000 C 
ATOM     11  O   UNL     1      -3.171  12.241  18.810  0.00  0.00    +0.000 OA
ENDBRANCH   2  11
ENDBRANCH   1   6
BRANCH   1  12
ATOM     12  N   UNL     1       1.736   8.099  18.232  0.00  0.00    +0.000 NA
ATOM     13  C   UNL     1       3.039   7.470  17.946  0.00  0.00    +0.000 C 
ATOM     14  C   UNL     1       3.019   6.766  19.327  0.00  0.00    +0.000 C 
ATOM     15  C   UNL     1       1.877   7.770  19.665  0.00  0.00    +0.000 C 
BRANCH  14  16
ATOM     16  N   UNL     1       2.509   5.366  19.243  0.00  0.00    +0.000 NA
ATOM     17  C   UNL     1       3.634   4.434  19.030  0.00  0.00    +0.000 C 
ATOM     18  C   UNL     1       3.155   2.981  18.962  0.00  0.00    +0.000 C 
ATOM     19  C   UNL     1       2.394   2.588  20.221  0.00  0.00    +0.000 C 
ATOM     20  C   UNL     1       1.290   3.600  20.504  0.00  0.00    +0.000 C 
ATOM     21  C   UNL     1       1.836   5.030  20.516  0.00  0.00    +0.000 C 
ENDBRANCH  14  16
ENDBRANCH   1  12
TORSDOF 4
ENDMDL
MODEL 4
REMARK VINA RESULT:      -6.3      2.473      4.160
REMARK  Name = 
REMARK  7 active torsions:
REMARK  status: ('A' for Active; 'I' for Inactive)
REMARK    1  A    between atoms: C_1  and  O_2
REMARK    2  A    between atoms: O_2  and  C_3
REMARK    3  A    between atoms: C_5  and  C_6
REMARK    4  A    between atoms: C_7  and  C_8
REMARK    5  A    between atoms: C_8  and  N_9
REMARK    6  A    between atoms: C_11  and  N_12
REMARK    7  A    between atoms: C_20  and  C_21
REMARK                            x       y       z     vdW  Elec       q    Type
REMARK                         _______ _______ _______ _____ _____    ______ ____
ROOT
ATOM      1  C   UNL     1       2.935   4.468  19.773  0.00  0.00    +0.000 C 
ENDROOT
BRANCH   1   6
ATOM      2  C   UNL     1       6.249   4.554  16.954  0.00  0.00    +0.000 A 
ATOM      3  C   UNL     1       5.047   3.940  16.593  0.00  0.00    +0.000 A 
ATOM      4  C   UNL     1       3.954   3.876  17.479  0.00  0.00    +0.000 A 
ATOM      5  C   UNL     1       2.684   3.233  16.986  0.00  0.00    +0.000 C 
ATOM      6  C   UNL     1       4.085   4.407  18.777  0.00  0.00    +0.000 A 
ATOM      7  C   UNL     1       5.309   5.006  19.136  0.00  0.00    +0.000 A 
ATOM      8  C   UNL     1       6.393   5.079  18.243  0.00  0.00    +0.000 A 
ATOM      9  C   UNL     1       7.667   5.753  18.667  0.00  0.00    +0.000 C 
BRANCH   2  11
ATOM     10  C   UNL     1       7.055   4.799  14.740  0.00  0.00    +0.000 C 
ATOM     11  O   UNL     1       7.339   4.648  16.126  0.00  0.00    +0.000 OA
ENDBRANCH   2  11
ENDBRANCH   1   6
BRANCH   1  12
ATOM     12  N   UNL     1       2.038   5.617  19.571  0.00  0.00    +0.000 NA
ATOM     13  C   UNL     1       1.946   6.413  20.810  0.00  0.00    +0.000 C 
ATOM     14  C   UNL     1       2.262   7.708  20.018  0.00  0.00    +0.000 C 
ATOM     15  C   UNL     1       2.712   6.738  18.885  0.00  0.00    +0.000 C 
BRANCH  14  16
ATOM     16  N   UNL     1       1.030   8.457  19.638  0.00  0.00    +0.000 NA
ATOM     17  C   UNL     1       0.618   9.342  20.747  0.00  0.00    +0.000 C 
ATOM     18  C   UNL     1      -0.633  10.148  20.389  0.00  0.00    +0.000 C 
ATOM     19  C   UNL     1      -0.418  10.973  19.127  0.00  0.00    +0.000 C 
ATOM     20  C   UNL     1       0.100  10.085  18.002  0.00  0.00    +0.000 C 
ATOM     21  C   UNL     1       1.324   9.280  18.446  0.00  0.00    +0.000 C 
ENDBRANCH  14  16
ENDBRANCH   1  12
TORSDOF 4
ENDMDL
MODEL 5
REMARK VINA RESULT:      -6.3      2.879      7.885
REMARK  Name = 
REMARK  7 active torsions:
REMARK  status: ('A' for Active; 'I' for Inactive)
REMARK    1  A    between atoms: C_1  and  O_2
REMARK    2  A    between atoms: O_2  and  C_3
REMARK    3  A    between atoms: C_5  and  C_6
REMARK    4  A    between atoms: C_7  and  C_8
REMARK    5  A    between atoms: C_8  and  N_9
REMARK    6  A    between atoms: C_11  and  N_12
REMARK    7  A    between atoms: C_20  and  C_21
REMARK                            x       y       z     vdW  Elec       q    Type
REMARK                         _______ _______ _______ _____ _____    ______ ____
ROOT
ATOM      1  C   UNL     1       1.344   9.781  18.728  0.00  0.00    +0.000 C 
ENDROOT
BRANCH   1   6
ATOM      2  C   UNL     1      -2.690  11.364  18.317  0.00  0.00    +0.000 A 
ATOM      3  C   UNL     1      -1.885  11.784  19.378  0.00  0.00    +0.000 A 
ATOM      4  C   UNL     1      -0.578  11.287  19.558  0.00  0.00    +0.000 A 
ATOM      5  C   UNL     1       0.230  11.832  20.706  0.00  0.00    +0.000 C 
ATOM      6  C   UNL     1      -0.083  10.311  18.672  0.00  0.00    +0.000 A 
ATOM      7  C   UNL     1      -0.913   9.881  17.617  0.00  0.00    +0.000 A 
ATOM      8  C   UNL     1      -2.210  10.389  17.433  0.00  0.00    +0.000 A 
ATOM      9  C   UNL     1      -3.043   9.916  16.277  0.00  0.00    +0.000 C 
BRANCH   2  11
ATOM     10  C   UNL     1      -4.692  12.216  19.251  0.00  0.00    +0.000 C 
ATOM     11  O   UNL     1      -3.963  11.822  18.094  0.00  0.00    +0.000 OA
ENDBRANCH   2  11
ENDBRANCH   1   6
BRANCH   1  12
ATOM     12  N   UNL     1       1.433   8.315  18.628  0.00  0.00    +0.000 NA
ATOM     13  C   UNL     1       2.640   7.932  17.872  0.00  0.00    +0.000 C 
ATOM     14  C   UNL     1       3.051   6.949  18.998  0.00  0.00    +0.000 C 
ATOM     15  C   UNL     1       1.991   7.705  19.853  0.00  0.00    +0.000 C 
BRANCH  14  16
ATOM     16  N   UNL     1       2.626   5.548  18.713  0.00  0.00    +0.000 NA
ATOM     17  C   UNL     1       3.421   4.999  17.596  0.00  0.00    +0.000 C 
ATOM     18  C   UNL     1       3.031   3.551  17.287  0.00  0.00    +0.000 C 
ATOM     19  C   UNL     1       3.185   2.661  18.512  0.00  0.00    +0.000 C 
ATOM     20  C   UNL     1       2.447   3.270  19.699  0.00  0.00    +0.000 C 
ATOM     21  C   UNL     1       2.857   4.728  19.921  0.00  0.00    +0.000 C 
ENDBRANCH  14  16
ENDBRANCH   1  12
TORSDOF 4
ENDMDL
MODEL 6
REMARK VINA RESULT:      -6.2      4.317      8.288
REMARK  Name = 
REMARK  7 active torsions:
REMARK  status: ('A' for Active; 'I' for Inactive)
REMARK    1  A    between atoms: C_1  and  O_2
REMARK    2  A    between atoms: O_2  and  C_3
REMARK    3  A    between atoms: C_5  and  C_6
REMARK    4  A    between atoms: C_7  and  C_8
REMARK    5  A    between atoms: C_8  and  N_9
REMARK    6  A    between atoms: C_11  and  N_12
REMARK    7  A    between atoms: C_20  and  C_21
REMARK                            x       y       z     vdW  Elec       q    Type
REMARK                         _______ _______ _______ _____ _____    ______ ____
ROOT
ATOM      1  C   UNL     1       4.153   4.980  18.667  0.00  0.00    +0.000 C 
ENDROOT
BRANCH   1   6
ATOM      2  C   UNL     1       1.420   8.190  19.750  0.00  0.00    +0.000 A 
ATOM      3  C   UNL     1       1.463   7.025  20.521  0.00  0.00    +0.000 A 
ATOM      4  C   UNL     1       2.322   5.956  20.199  0.00  0.00    +0.000 A 
ATOM      5  C   UNL     1       2.331   4.760  21.114  0.00  0.00    +0.000 C 
ATOM      6  C   UNL     1       3.129   6.041  19.048  0.00  0.00    +0.000 A 
ATOM      7  C   UNL     1       3.062   7.213  18.267  0.00  0.00    +0.000 A 
ATOM      8  C   UNL     1       2.214   8.283  18.600  0.00  0.00    +0.000 A 
ATOM      9  C   UNL     1       2.200   9.521  17.749  0.00  0.00    +0.000 C 
BRANCH   2  11
ATOM     10  C   UNL     1       0.861   9.932  21.254  0.00  0.00    +0.000 C 
ATOM     11  O   UNL     1       0.608   9.260  20.025  0.00  0.00    +0.000 OA
ENDBRANCH   2  11
ENDBRANCH   1   6
BRANCH   1  12
ATOM     12  N   UNL     1       4.561   5.033  17.254  0.00  0.00    +0.000 NA
ATOM     13  C   UNL     1       6.005   5.321  17.154  0.00  0.00    +0.000 C 
ATOM     14  C   UNL     1       6.193   4.115  16.197  0.00  0.00    +0.000 C 
ATOM     15  C   UNL     1       4.776   3.687  16.684  0.00  0.00    +0.000 C 
BRANCH  14  16
ATOM     16  N   UNL     1       6.178   4.521  14.761  0.00  0.00    +0.000 NA
ATOM     17  C   UNL     1       7.534   4.924  14.339  0.00  0.00    +0.000 C 
ATOM     18  C   UNL     1       7.567   5.326  12.863  0.00  0.00    +0.000 C 
ATOM     19  C   UNL     1       7.066   4.200  11.970  0.00  0.00    +0.000 C 
ATOM     20  C   UNL     1       5.707   3.710  12.456  0.00  0.00    +0.000 C 
ATOM     21  C   UNL     1       5.741   3.367  13.947  0.00  0.00    +0.000 C 
ENDBRANCH  14  16
ENDBRANCH   1  12
TORSDOF 4
ENDMDL
MODEL 7
REMARK VINA RESULT:      -6.1      2.926      4.141
REMARK  Name = 
REMARK  7 active torsions:
REMARK  status: ('A' for Active; 'I' for Inactive)
REMARK    1  A    between atoms: C_1  and  O_2
REMARK    2  A    between atoms: O_2  and  C_3
REMARK    3  A    between atoms: C_5  and  C_6
REMARK    4  A    between atoms: C_7  and  C_8
REMARK    5  A    between atoms: C_8  and  N_9
REMARK    6  A    between atoms: C_11  and  N_12
REMARK    7  A    between atoms: C_20  and  C_21
REMARK                            x       y       z     vdW  Elec       q    Type
REMARK                         _______ _______ _______ _____ _____    ______ ____
ROOT
ATOM      1  C   UNL     1       2.559   5.971  19.753  0.00  0.00    +0.000 C 
ENDROOT
BRANCH   1   6
ATOM      2  C   UNL     1       5.517   4.402  16.971  0.00  0.00    +0.000 A 
ATOM      3  C   UNL     1       4.182   4.004  16.862  0.00  0.00    +0.000 A 
ATOM      4  C   UNL     1       3.194   4.475  17.750  0.00  0.00    +0.000 A 
ATOM      5  C   UNL     1       1.775   4.024  17.526  0.00  0.00    +0.000 C 
ATOM      6  C   UNL     1       3.564   5.337  18.800  0.00  0.00    +0.000 A 
ATOM      7  C   UNL     1       4.917   5.716  18.911  0.00  0.00    +0.000 A 
ATOM      8  C   UNL     1       5.897   5.254  18.015  0.00  0.00    +0.000 A 
ATOM      9  C   UNL     1       7.321   5.710  18.162  0.00  0.00    +0.000 C 
BRANCH   2  11
ATOM     10  C   UNL     1       6.191   3.963  14.744  0.00  0.00    +0.000 C 
ATOM     11  O   UNL     1       6.513   3.979  16.130  0.00  0.00    +0.000 OA
ENDBRANCH   2  11
ENDBRANCH   1   6
BRANCH   1  12
ATOM     12  N   UNL     1       2.605   7.441  19.769  0.00  0.00    +0.000 NA
ATOM     13  C   UNL     1       2.015   7.981  18.529  0.00  0.00    +0.000 C 
ATOM     14  C   UNL     1       1.109   8.929  19.357  0.00  0.00    +0.000 C 
ATOM     15  C   UNL     1       1.506   8.026  20.563  0.00  0.00    +0.000 C 
BRANCH  14  16
ATOM     16  N   UNL     1       1.686  10.298  19.485  0.00  0.00    +0.000 NA
ATOM     17  C   UNL     1       1.817  10.915  18.150  0.00  0.00    +0.000 C 
ATOM     18  C   UNL     1       2.385  12.334  18.240  0.00  0.00    +0.000 C 
ATOM     19  C   UNL     1       1.526  13.220  19.132  0.00  0.00    +0.000 C 
ATOM     20  C   UNL     1       1.304  12.547  20.481  0.00  0.00    +0.000 C 
ATOM     21  C   UNL     1       0.776  11.120  20.311  0.00  0.00    +0.000 C 
ENDBRANCH  14  16
ENDBRANCH   1  12
TORSDOF 4
ENDMDL
MODEL 8
REMARK VINA RESULT:      -6.1      4.473      7.907
REMARK  Name = 
REMARK  7 active torsions:
REMARK  status: ('A' for Active; 'I' for Inactive)
REMARK    1  A    between atoms: C_1  and  O_2
REMARK    2  A    between atoms: O_2  and  C_3
REMARK    3  A    between atoms: C_5  and  C_6
REMARK    4  A    between atoms: C_7  and  C_8
REMARK    5  A    between atoms: C_8  and  N_9
REMARK    6  A    between atoms: C_11  and  N_12
REMARK    7  A    between atoms: C_20  and  C_21
REMARK                            x       y       z     vdW  Elec       q    Type
REMARK                         _______ _______ _______ _____ _____    ______ ____
ROOT
ATOM      1  C   UNL     1       5.319   6.312  18.121  0.00  0.00    +0.000 C 
ENDROOT
BRANCH   1   6
ATOM      2  C   UNL     1       2.625   3.395  19.904  0.00  0.00    +0.000 A 
ATOM      3  C   UNL     1       2.122   4.616  19.448  0.00  0.00    +0.000 A 
ATOM      4  C   UNL     1       2.960   5.595  18.877  0.00  0.00    +0.000 A 
ATOM      5  C   UNL     1       2.320   6.862  18.373  0.00  0.00    +0.000 C 
ATOM      6  C   UNL     1       4.346   5.358  18.800  0.00  0.00    +0.000 A 
ATOM      7  C   UNL     1       4.844   4.130  19.282  0.00  0.00    +0.000 A 
ATOM      8  C   UNL     1       4.002   3.151  19.838  0.00  0.00    +0.000 A 
ATOM      9  C   UNL     1       4.580   1.849  20.313  0.00  0.00    +0.000 C 
BRANCH   2  11
ATOM     10  C   UNL     1       1.347   2.675  21.763  0.00  0.00    +0.000 C 
ATOM     11  O   UNL     1       1.851   2.408  20.459  0.00  0.00    +0.000 OA
ENDBRANCH   2  11
ENDBRANCH   1   6
BRANCH   1  12
ATOM     12  N   UNL     1       5.505   6.043  16.686  0.00  0.00    +0.000 NA
ATOM     13  C   UNL     1       6.875   5.558  16.435  0.00  0.00    +0.000 C 
ATOM     14  C   UNL     1       6.317   4.351  15.638  0.00  0.00    +0.000 C 
ATOM     15  C   UNL     1       4.954   4.732  16.287  0.00  0.00    +0.000 C 
BRANCH  14  16
ATOM     16  N   UNL     1       6.310   4.596  14.166  0.00  0.00    +0.000 NA
ATOM     17  C   UNL     1       7.652   5.021  13.721  0.00  0.00    +0.000 C 
ATOM     18  C   UNL     1       7.692   5.261  12.209  0.00  0.00    +0.000 C 
ATOM     19  C   UNL     1       7.266   4.019  11.439  0.00  0.00    +0.000 C 
ATOM     20  C   UNL     1       5.924   3.515  11.958  0.00  0.00    +0.000 C 
ATOM     21  C   UNL     1       5.947   3.339  13.478  0.00  0.00    +0.000 C 
ENDBRANCH  14  16
ENDBRANCH   1  12
TORSDOF 4
ENDMDL
MODEL 9
REMARK VINA RESULT:      -6.1      0.941      1.068
REMARK  Name = 
REMARK  7 active torsions:
REMARK  status: ('A' for Active; 'I' for Inactive)
REMARK    1  A    between atoms: C_1  and  O_2
REMARK    2  A    between atoms: O_2  and  C_3
REMARK    3  A    between atoms: C_5  and  C_6
REMARK    4  A    between atoms: C_7  and  C_8
REMARK    5  A    between atoms: C_8  and  N_9
REMARK    6  A    between atoms: C_11  and  N_12
REMARK    7  A    between atoms: C_20  and  C_21
REMARK                            x       y       z     vdW  Elec       q    Type
REMARK                         _______ _______ _______ _____ _____    ______ ____
ROOT
ATOM      1  C   UNL     1       2.819   7.931  18.516  0.00  0.00    +0.000 C 
ENDROOT
BRANCH   1   6
ATOM      2  C   UNL     1       3.092   3.625  19.090  0.00  0.00    +0.000 A 
ATOM      3  C   UNL     1       3.826   4.237  18.071  0.00  0.00    +0.000 A 
ATOM      4  C   UNL     1       3.757   5.625  17.841  0.00  0.00    +0.000 A 
ATOM      5  C   UNL     1       4.619   6.201  16.748  0.00  0.00    +0.000 C 
ATOM      6  C   UNL     1       2.895   6.414  18.628  0.00  0.00    +0.000 A 
ATOM      7  C   UNL     1       2.145   5.782  19.639  0.00  0.00    +0.000 A 
ATOM      8  C   UNL     1       2.228   4.398  19.875  0.00  0.00    +0.000 A 
ATOM      9  C   UNL     1       1.427   3.778  20.984  0.00  0.00    +0.000 C 
BRANCH   2  11
ATOM     10  C   UNL     1       3.611   1.450  18.309  0.00  0.00    +0.000 C 
ATOM     11  O   UNL     1       3.130   2.281  19.360  0.00  0.00    +0.000 OA
ENDBRANCH   2  11
ENDBRANCH   1   6
BRANCH   1  12
ATOM     12  N   UNL     1       1.446   8.458  18.568  0.00  0.00    +0.000 NA
ATOM     13  C   UNL     1       1.282   9.331  19.746  0.00  0.00    +0.000 C 
ATOM     14  C   UNL     1       0.684  10.448  18.854  0.00  0.00    +0.000 C 
ATOM     15  C   UNL     1       1.258   9.615  17.669  0.00  0.00    +0.000 C 
BRANCH  14  16
ATOM     16  N   UNL     1      -0.808  10.440  18.856  0.00  0.00    +0.000 NA
ATOM     17  C   UNL     1      -1.317  11.779  19.216  0.00  0.00    +0.000 C 
ATOM     18  C   UNL     1      -2.847  11.819  19.207  0.00  0.00    +0.000 C 
ATOM     19  C   UNL     1      -3.405  11.405  17.852  0.00  0.00    +0.000 C 
ATOM     20  C   UNL     1      -2.811  10.068  17.427  0.00  0.00    +0.000 C 
ATOM     21  C   UNL     1      -1.282  10.090  17.500  0.00  0.00    +0.000 C 
ENDBRANCH  14  16
ENDBRANCH   1  12
TORSDOF 4
ENDMDL
