MODEL 1
REMARK VINA RESULT:      -7.9      0.000      0.000
REMARK  Name = 
REMARK  7 active torsions:
REMARK  status: ('A' for Active; 'I' for Inactive)
REMARK    1  A    between atoms: C_1  and  S_2
REMARK    2  A    between atoms: S_2  and  N_5
REMARK    3  A    between atoms: C_9  and  C_10
REMARK    4  A    between atoms: C_10  and  C_11
REMARK    5  A    between atoms: C_15  and  C_16
REMARK    6  A    between atoms: C_21  and  C_22
REMARK    7  A    between atoms: C_22  and  O_24
REMARK                            x       y       z     vdW  Elec       q    Type
REMARK                         _______ _______ _______ _____ _____    ______ ____
ROOT
ATOM      1  C   UNL     1       2.583   7.662  18.638  0.00  0.00    +0.000 A 
ATOM      2  C   UNL     1       2.176   6.948  19.756  0.00  0.00    +0.000 A 
ATOM      3  N   UNL     1       2.728   5.768  20.100  0.00  0.00    +0.000 NA
ATOM      4  C   UNL     1       3.710   5.327  19.277  0.00  0.00    +0.000 A 
ATOM      5  C   UNL     1       4.121   5.995  18.122  0.00  0.00    +0.000 A 
ATOM      6  N   UNL     1       3.540   7.176  17.786  0.00  0.00    +0.000 NA
ENDROOT
BRANCH   5   7
ATOM      7  C   UNL     1       5.157   5.455  17.210  0.00  0.00    +0.000 A 
ATOM      8  C   UNL     1       4.717   4.887  15.982  0.00  0.00    +0.000 A 
ATOM      9  C   UNL     1       5.579   4.239  15.093  0.00  0.00    +0.000 A 
ATOM     10  C   UNL     1       6.928   4.160  15.385  0.00  0.00    +0.000 A 
ATOM     11  C   UNL     1       7.408   4.751  16.551  0.00  0.00    +0.000 A 
ATOM     12  C   UNL     1       6.549   5.406  17.466  0.00  0.00    +0.000 A 
BRANCH  12  13
ATOM     13  C   UNL     1       7.271   5.928  18.671  0.00  0.00    +0.000 C 
ATOM     14  O   UNL     1       7.928   6.957  18.626  0.00  0.00    +0.000 OA
BRANCH  13  15
ATOM     15  O   UNL     1       7.009   5.313  19.839  0.00  0.00    +0.000 OA
ATOM     16  H   UNL     1       6.246   4.693  19.777  0.00  0.00    +0.000 HD
ENDBRANCH  13  15
ENDBRANCH  12  13
ENDBRANCH   5   7
BRANCH   1  17
ATOM     17  C   UNL     1       2.047   9.043  18.377  0.00  0.00    +0.000 C 
BRANCH  17  22
ATOM     18  N   UNL     1      -0.538  10.780  20.610  0.00  0.00    +0.000 NA
ATOM     19  C   UNL     1      -1.397  11.370  19.556  0.00  0.00    +0.000 C 
ATOM     20  C   UNL     1      -1.615  10.360  18.441  0.00  0.00    +0.000 C 
ATOM     21  C   UNL     1      -0.286   9.916  17.846  0.00  0.00    +0.000 C 
ATOM     22  C   UNL     1       0.634   9.326  18.925  0.00  0.00    +0.000 C 
ATOM     23  C   UNL     1       0.774  10.288  20.119  0.00  0.00    +0.000 C 
BRANCH  18  25
ATOM     24  C   UNL     1      -2.149  12.285  22.216  0.00  0.00    +0.000 C 
ATOM     25  S   UNL     1      -0.478  11.668  22.072  0.00  0.00    +0.000 S 
ATOM     26  O   UNL     1       0.396  12.803  21.867  0.00  0.00    +0.000 OA
ATOM     27  O   UNL     1      -0.253  10.736  23.156  0.00  0.00    +0.000 OA
ENDBRANCH  18  25
ENDBRANCH  17  22
ENDBRANCH   1  17
TORSDOF 6
ENDMDL
MODEL 2
REMARK VINA RESULT:      -7.7      2.944      8.799
REMARK  Name = 
REMARK  7 active torsions:
REMARK  status: ('A' for Active; 'I' for Inactive)
REMARK    1  A    between atoms: C_1  and  S_2
REMARK    2  A    between atoms: S_2  and  N_5
REMARK    3  A    between atoms: C_9  and  C_10
REMARK    4  A    between atoms: C_10  and  C_11
REMARK    5  A    between atoms: C_15  and  C_16
REMARK    6  A    between atoms: C_21  and  C_22
REMARK    7  A    between atoms: C_22  and  O_24
REMARK                            x       y       z     vdW  Elec       q    Type
REMARK                         _______ _______ _______ _____ _____    ______ ____
ROOT
ATOM      1  C   UNL     1       1.761   8.506  19.261  0.00  0.00    +0.000 A 
ATOM      2  C   UNL     1       2.256   9.179  18.153  0.00  0.00    +0.000 A 
ATOM      3  N   UNL     1       1.952  10.465  17.893  0.00  0.00    +0.000 NA
ATOM      4  C   UNL     1       1.127  11.058  18.790  0.00  0.00    +0.000 A 
ATOM      5  C   UNL     1       0.576  10.405  19.895  0.00  0.00    +0.000 A 
ATOM      6  N   UNL     1       0.885   9.103  20.129  0.00  0.00    +0.000 NA
ENDROOT
BRANCH   5   7
ATOM      7  C   UNL     1      -0.372  11.065  20.824  0.00  0.00    +0.000 A 
ATOM      8  C   UNL     1      -1.018  12.247  20.371  0.00  0.00    +0.000 A 
ATOM      9  C   UNL     1      -1.840  13.026  21.190  0.00  0.00    +0.000 A 
ATOM     10  C   UNL     1      -2.072  12.632  22.496  0.00  0.00    +0.000 A 
ATOM     11  C   UNL     1      -1.502  11.451  22.963  0.00  0.00    +0.000 A 
ATOM     12  C   UNL     1      -0.662  10.653  22.149  0.00  0.00    +0.000 A 
BRANCH  12  13
ATOM     13  C   UNL     1      -0.124   9.454  22.867  0.00  0.00    +0.000 C 
ATOM     14  O   UNL     1       0.709   9.563  23.755  0.00  0.00    +0.000 OA
BRANCH  13  15
ATOM     15  O   UNL     1      -0.734   8.281  22.617  0.00  0.00    +0.000 OA
ATOM     16  H   UNL     1      -0.903   7.762  23.436  0.00  0.00    +0.000 HD
ENDBRANCH  13  15
ENDBRANCH  12  13
ENDBRANCH   5   7
BRANCH   1  17
ATOM     17  C   UNL     1       2.246   7.122  19.595  0.00  0.00    +0.000 C 
BRANCH  17  22
ATOM     18  N   UNL     1       4.298   5.105  17.063  0.00  0.00    +0.000 NA
ATOM     19  C   UNL     1       3.777   3.750  17.369  0.00  0.00    +0.000 C 
ATOM     20  C   UNL     1       2.270   3.805  17.558  0.00  0.00    +0.000 C 
ATOM     21  C   UNL     1       1.899   4.773  18.673  0.00  0.00    +0.000 C 
ATOM     22  C   UNL     1       2.452   6.179  18.393  0.00  0.00    +0.000 C 
ATOM     23  C   UNL     1       3.960   6.129  18.083  0.00  0.00    +0.000 C 
BRANCH  18  25
ATOM     24  C   UNL     1       6.843   4.753  17.975  0.00  0.00    +0.000 C 
ATOM     25  S   UNL     1       5.914   5.146  16.502  0.00  0.00    +0.000 S 
ATOM     26  O   UNL     1       6.222   6.511  16.136  0.00  0.00    +0.000 OA
ATOM     27  O   UNL     1       6.090   4.060  15.561  0.00  0.00    +0.000 OA
ENDBRANCH  18  25
ENDBRANCH  17  22
ENDBRANCH   1  17
TORSDOF 6
ENDMDL
MODEL 3
REMARK VINA RESULT:      -7.7      0.972      1.033
REMARK  Name = 
REMARK  7 active torsions:
REMARK  status: ('A' for Active; 'I' for Inactive)
REMARK    1  A    between atoms: C_1  and  S_2
REMARK    2  A    between atoms: S_2  and  N_5
REMARK    3  A    between atoms: C_9  and  C_10
REMARK    4  A    between atoms: C_10  and  C_11
REMARK    5  A    between atoms: C_15  and  C_16
REMARK    6  A    between atoms: C_21  and  C_22
REMARK    7  A    between atoms: C_22  and  O_24
REMARK                            x       y       z     vdW  Elec       q    Type
REMARK                         _______ _______ _______ _____ _____    ______ ____
ROOT
ATOM      1  C   UNL     1       2.608   7.882  18.356  0.00  0.00    +0.000 A 
ATOM      2  C   UNL     1       2.197   7.274  19.534  0.00  0.00    +0.000 A 
ATOM      3  N   UNL     1       2.742   6.128  19.985  0.00  0.00    +0.000 NA
ATOM      4  C   UNL     1       3.724   5.609  19.207  0.00  0.00    +0.000 A 
ATOM      5  C   UNL     1       4.140   6.168  17.997  0.00  0.00    +0.000 A 
ATOM      6  N   UNL     1       3.564   7.316  17.554  0.00  0.00    +0.000 NA
ENDROOT
BRANCH   5   7
ATOM      7  C   UNL     1       5.173   5.542  17.139  0.00  0.00    +0.000 A 
ATOM      8  C   UNL     1       4.742   4.947  15.921  0.00  0.00    +0.000 A 
ATOM      9  C   UNL     1       5.597   4.223  15.085  0.00  0.00    +0.000 A 
ATOM     10  C   UNL     1       6.932   4.091  15.422  0.00  0.00    +0.000 A 
ATOM     11  C   UNL     1       7.406   4.704  16.579  0.00  0.00    +0.000 A 
ATOM     12  C   UNL     1       6.554   5.436  17.441  0.00  0.00    +0.000 A 
BRANCH  12  13
ATOM     13  C   UNL     1       7.264   5.970  18.646  0.00  0.00    +0.000 C 
ATOM     14  O   UNL     1       7.923   6.998  18.597  0.00  0.00    +0.000 OA
BRANCH  13  15
ATOM     15  O   UNL     1       6.990   5.368  19.818  0.00  0.00    +0.000 OA
ATOM     16  H   UNL     1       6.024   5.249  19.965  0.00  0.00    +0.000 HD
ENDBRANCH  13  15
ENDBRANCH  12  13
ENDBRANCH   5   7
BRANCH   1  17
ATOM     17  C   UNL     1       2.080   9.236  17.970  0.00  0.00    +0.000 C 
BRANCH  17  22
ATOM     18  N   UNL     1      -0.054  11.694  19.992  0.00  0.00    +0.000 NA
ATOM     19  C   UNL     1      -1.205  11.820  19.065  0.00  0.00    +0.000 C 
ATOM     20  C   UNL     1      -1.577  10.453  18.514  0.00  0.00    +0.000 C 
ATOM     21  C   UNL     1      -0.394   9.818  17.797  0.00  0.00    +0.000 C 
ATOM     22  C   UNL     1       0.822   9.703  18.729  0.00  0.00    +0.000 C 
ATOM     23  C   UNL     1       1.143  11.057  19.390  0.00  0.00    +0.000 C 
BRANCH  18  25
ATOM     24  C   UNL     1      -0.744  12.801  22.388  0.00  0.00    +0.000 C 
ATOM     25  S   UNL     1       0.263  13.084  20.939  0.00  0.00    +0.000 S 
ATOM     26  O   UNL     1      -0.279  14.230  20.242  0.00  0.00    +0.000 OA
ATOM     27  O   UNL     1       1.651  13.042  21.347  0.00  0.00    +0.000 OA
ENDBRANCH  18  25
ENDBRANCH  17  22
ENDBRANCH   1  17
TORSDOF 6
ENDMDL
MODEL 4
REMARK VINA RESULT:      -7.6      3.117      9.087
REMARK  Name = 
REMARK  7 active torsions:
REMARK  status: ('A' for Active; 'I' for Inactive)
REMARK    1  A    between atoms: C_1  and  S_2
REMARK    2  A    between atoms: S_2  and  N_5
REMARK    3  A    between atoms: C_9  and  C_10
REMARK    4  A    between atoms: C_10  and  C_11
REMARK    5  A    between atoms: C_15  and  C_16
REMARK    6  A    between atoms: C_21  and  C_22
REMARK    7  A    between atoms: C_22  and  O_24
REMARK                            x       y       z     vdW  Elec       q    Type
REMARK                         _______ _______ _______ _____ _____    ______ ____
ROOT
ATOM      1  C   UNL     1       1.946   8.168  19.058  0.00  0.00    +0.000 A 
ATOM      2  C   UNL     1       2.319   8.819  17.891  0.00  0.00    +0.000 A 
ATOM      3  N   UNL     1       1.953  10.087  17.622  0.00  0.00    +0.000 NA
ATOM      4  C   UNL     1       1.195  10.685  18.573  0.00  0.00    +0.000 A 
ATOM      5  C   UNL     1       0.766  10.053  19.742  0.00  0.00    +0.000 A 
ATOM      6  N   UNL     1       1.135   8.768  19.985  0.00  0.00    +0.000 NA
ENDROOT
BRANCH   5   7
ATOM      7  C   UNL     1      -0.114  10.715  20.734  0.00  0.00    +0.000 A 
ATOM      8  C   UNL     1       0.011  10.313  22.093  0.00  0.00    +0.000 A 
ATOM      9  C   UNL     1      -0.839  10.773  23.102  0.00  0.00    +0.000 A 
ATOM     10  C   UNL     1      -1.836  11.682  22.794  0.00  0.00    +0.000 A 
ATOM     11  C   UNL     1      -1.957  12.142  21.486  0.00  0.00    +0.000 A 
ATOM     12  C   UNL     1      -1.109  11.683  20.450  0.00  0.00    +0.000 A 
BRANCH  12  13
ATOM     13  C   UNL     1      -1.446  12.275  19.116  0.00  0.00    +0.000 C 
ATOM     14  O   UNL     1      -2.208  11.714  18.342  0.00  0.00    +0.000 OA
BRANCH  13  15
ATOM     15  O   UNL     1      -1.020  13.532  18.893  0.00  0.00    +0.000 OA
ATOM     16  H   UNL     1      -0.726  13.672  17.964  0.00  0.00    +0.000 HD
ENDBRANCH  13  15
ENDBRANCH  12  13
ENDBRANCH   5   7
BRANCH   1  17
ATOM     17  C   UNL     1       2.501   6.809  19.387  0.00  0.00    +0.000 C 
BRANCH  17  22
ATOM     18  N   UNL     1       4.583   4.858  16.828  0.00  0.00    +0.000 NA
ATOM     19  C   UNL     1       4.117   3.487  17.147  0.00  0.00    +0.000 C 
ATOM     20  C   UNL     1       2.612   3.488  17.359  0.00  0.00    +0.000 C 
ATOM     21  C   UNL     1       2.224   4.446  18.477  0.00  0.00    +0.000 C 
ATOM     22  C   UNL     1       2.722   5.870  18.184  0.00  0.00    +0.000 C 
ATOM     23  C   UNL     1       4.225   5.874  17.850  0.00  0.00    +0.000 C 
BRANCH  18  25
ATOM     24  C   UNL     1       7.155   4.635  17.707  0.00  0.00    +0.000 C 
ATOM     25  S   UNL     1       6.187   4.956  16.240  0.00  0.00    +0.000 S 
ATOM     26  O   UNL     1       6.431   6.325  15.840  0.00  0.00    +0.000 OA
ATOM     27  O   UNL     1       6.396   3.858  15.320  0.00  0.00    +0.000 OA
ENDBRANCH  18  25
ENDBRANCH  17  22
ENDBRANCH   1  17
TORSDOF 6
ENDMDL
MODEL 5
REMARK VINA RESULT:      -7.6      1.721      2.386
REMARK  Name = 
REMARK  7 active torsions:
REMARK  status: ('A' for Active; 'I' for Inactive)
REMARK    1  A    between atoms: C_1  and  S_2
REMARK    2  A    between atoms: S_2  and  N_5
REMARK    3  A    between atoms: C_9  and  C_10
REMARK    4  A    between atoms: C_10  and  C_11
REMARK    5  A    between atoms: C_15  and  C_16
REMARK    6  A    between atoms: C_21  and  C_22
REMARK    7  A    between atoms: C_22  and  O_24
REMARK                            x       y       z     vdW  Elec       q    Type
REMARK                         _______ _______ _______ _____ _____    ______ ____
ROOT
ATOM      1  C   UNL     1       3.168   5.195  18.977  0.00  0.00    +0.000 A 
ATOM      2  C   UNL     1       2.631   3.954  19.290  0.00  0.00    +0.000 A 
ATOM      3  N   UNL     1       2.952   2.836  18.611  0.00  0.00    +0.000 NA
ATOM      4  C   UNL     1       3.838   3.007  17.600  0.00  0.00    +0.000 A 
ATOM      5  C   UNL     1       4.370   4.244  17.228  0.00  0.00    +0.000 A 
ATOM      6  N   UNL     1       4.020   5.360  17.917  0.00  0.00    +0.000 NA
ENDROOT
BRANCH   5   7
ATOM      7  C   UNL     1       5.290   4.406  16.077  0.00  0.00    +0.000 A 
ATOM      8  C   UNL     1       4.759   4.182  14.777  0.00  0.00    +0.000 A 
ATOM      9  C   UNL     1       5.547   4.186  13.623  0.00  0.00    +0.000 A 
ATOM     10  C   UNL     1       6.902   4.447  13.723  0.00  0.00    +0.000 A 
ATOM     11  C   UNL     1       7.452   4.725  14.971  0.00  0.00    +0.000 A 
ATOM     12  C   UNL     1       6.670   4.720  16.151  0.00  0.00    +0.000 A 
BRANCH  12  13
ATOM     13  C   UNL     1       7.473   5.001  17.383  0.00  0.00    +0.000 C 
ATOM     14  O   UNL     1       7.269   5.993  18.067  0.00  0.00    +0.000 OA
BRANCH  13  15
ATOM     15  O   UNL     1       8.296   4.021  17.798  0.00  0.00    +0.000 OA
ATOM     16  H   UNL     1       7.905   3.480  18.522  0.00  0.00    +0.000 HD
ENDBRANCH  13  15
ENDBRANCH  12  13
ENDBRANCH   5   7
BRANCH   1  17
ATOM     17  C   UNL     1       2.900   6.387  19.855  0.00  0.00    +0.000 C 
BRANCH  17  22
ATOM     18  N   UNL     1       0.660   9.494  19.994  0.00  0.00    +0.000 NA
ATOM     19  C   UNL     1       1.248  10.254  18.865  0.00  0.00    +0.000 C 
ATOM     20  C   UNL     1       1.522   9.319  17.698  0.00  0.00    +0.000 C 
ATOM     21  C   UNL     1       2.458   8.194  18.115  0.00  0.00    +0.000 C 
ATOM     22  C   UNL     1       1.885   7.407  19.304  0.00  0.00    +0.000 C 
ATOM     23  C   UNL     1       1.491   8.352  20.454  0.00  0.00    +0.000 C 
BRANCH  18  25
ATOM     24  C   UNL     1      -0.409   9.244  22.490  0.00  0.00    +0.000 C 
ATOM     25  S   UNL     1      -0.004  10.456  21.243  0.00  0.00    +0.000 S 
ATOM     26  O   UNL     1      -1.245  11.021  20.756  0.00  0.00    +0.000 OA
ATOM     27  O   UNL     1       1.048  11.301  21.768  0.00  0.00    +0.000 OA
ENDBRANCH  18  25
ENDBRANCH  17  22
ENDBRANCH   1  17
TORSDOF 6
ENDMDL
MODEL 6
REMARK VINA RESULT:      -7.6      3.005      8.933
REMARK  Name = 
REMARK  7 active torsions:
REMARK  status: ('A' for Active; 'I' for Inactive)
REMARK    1  A    between atoms: C_1  and  S_2
REMARK    2  A    between atoms: S_2  and  N_5
REMARK    3  A    between atoms: C_9  and  C_10
REMARK    4  A    between atoms: C_10  and  C_11
REMARK    5  A    between atoms: C_15  and  C_16
REMARK    6  A    between atoms: C_21  and  C_22
REMARK    7  A    between atoms: C_22  and  O_24
REMARK                            x       y       z     vdW  Elec       q    Type
REMARK                         _______ _______ _______ _____ _____    ______ ____
ROOT
ATOM      1  C   UNL     1       2.007   7.967  19.086  0.00  0.00    +0.000 A 
ATOM      2  C   UNL     1       2.293   8.601  17.885  0.00  0.00    +0.000 A 
ATOM      3  N   UNL     1       1.919   9.870  17.630  0.00  0.00    +0.000 NA
ATOM      4  C   UNL     1       1.244  10.486  18.631  0.00  0.00    +0.000 A 
ATOM      5  C   UNL     1       0.902   9.872  19.838  0.00  0.00    +0.000 A 
ATOM      6  N   UNL     1       1.276   8.586  20.066  0.00  0.00    +0.000 NA
ENDROOT
BRANCH   5   7
ATOM      7  C   UNL     1       0.109  10.554  20.887  0.00  0.00    +0.000 A 
ATOM      8  C   UNL     1      -0.076   9.868  22.119  0.00  0.00    +0.000 A 
ATOM      9  C   UNL     1      -0.900  10.349  23.140  0.00  0.00    +0.000 A 
ATOM     10  C   UNL     1      -1.551  11.559  22.979  0.00  0.00    +0.000 A 
ATOM     11  C   UNL     1      -1.354  12.288  21.810  0.00  0.00    +0.000 A 
ATOM     12  C   UNL     1      -0.528  11.814  20.763  0.00  0.00    +0.000 A 
BRANCH  12  13
ATOM     13  C   UNL     1      -0.496  12.737  19.583  0.00  0.00    +0.000 C 
ATOM     14  O   UNL     1       0.451  13.482  19.381  0.00  0.00    +0.000 OA
BRANCH  13  15
ATOM     15  O   UNL     1      -1.466  12.570  18.666  0.00  0.00    +0.000 OA
ATOM     16  H   UNL     1      -2.081  13.338  18.623  0.00  0.00    +0.000 HD
ENDBRANCH  13  15
ENDBRANCH  12  13
ENDBRANCH   5   7
BRANCH   1  17
ATOM     17  C   UNL     1       2.574   6.607  19.387  0.00  0.00    +0.000 C 
BRANCH  17  22
ATOM     18  N   UNL     1       5.507   5.025  17.495  0.00  0.00    +0.000 NA
ATOM     19  C   UNL     1       4.969   3.652  17.338  0.00  0.00    +0.000 C 
ATOM     20  C   UNL     1       3.500   3.713  16.954  0.00  0.00    +0.000 C 
ATOM     21  C   UNL     1       2.698   4.473  18.001  0.00  0.00    +0.000 C 
ATOM     22  C   UNL     1       3.254   5.891  18.203  0.00  0.00    +0.000 C 
ATOM     23  C   UNL     1       4.769   5.857  18.478  0.00  0.00    +0.000 C 
BRANCH  18  25
ATOM     24  C   UNL     1       7.505   6.881  17.484  0.00  0.00    +0.000 C 
ATOM     25  S   UNL     1       7.213   5.123  17.598  0.00  0.00    +0.000 S 
ATOM     26  O   UNL     1       7.765   4.505  16.412  0.00  0.00    +0.000 OA
ATOM     27  O   UNL     1       7.609   4.691  18.922  0.00  0.00    +0.000 OA
ENDBRANCH  18  25
ENDBRANCH  17  22
ENDBRANCH   1  17
TORSDOF 6
ENDMDL
MODEL 7
REMARK VINA RESULT:      -7.6      0.926      1.225
REMARK  Name = 
REMARK  7 active torsions:
REMARK  status: ('A' for Active; 'I' for Inactive)
REMARK    1  A    between atoms: C_1  and  S_2
REMARK    2  A    between atoms: S_2  and  N_5
REMARK    3  A    between atoms: C_9  and  C_10
REMARK    4  A    between atoms: C_10  and  C_11
REMARK    5  A    between atoms: C_15  and  C_16
REMARK    6  A    between atoms: C_21  and  C_22
REMARK    7  A    between atoms: C_22  and  O_24
REMARK                            x       y       z     vdW  Elec       q    Type
REMARK                         _______ _______ _______ _____ _____    ______ ____
ROOT
ATOM      1  C   UNL     1       2.652   7.799  18.478  0.00  0.00    +0.000 A 
ATOM      2  C   UNL     1       2.331   7.043  19.597  0.00  0.00    +0.000 A 
ATOM      3  N   UNL     1       2.915   5.858  19.861  0.00  0.00    +0.000 NA
ATOM      4  C   UNL     1       3.841   5.455  18.956  0.00  0.00    +0.000 A 
ATOM      5  C   UNL     1       4.164   6.166  17.799  0.00  0.00    +0.000 A 
ATOM      6  N   UNL     1       3.551   7.352  17.546  0.00  0.00    +0.000 NA
ENDROOT
BRANCH   5   7
ATOM      7  C   UNL     1       5.136   5.668  16.798  0.00  0.00    +0.000 A 
ATOM      8  C   UNL     1       4.661   4.745  15.826  0.00  0.00    +0.000 A 
ATOM      9  C   UNL     1       5.501   4.111  14.906  0.00  0.00    +0.000 A 
ATOM     10  C   UNL     1       6.854   4.402  14.902  0.00  0.00    +0.000 A 
ATOM     11  C   UNL     1       7.350   5.341  15.802  0.00  0.00    +0.000 A 
ATOM     12  C   UNL     1       6.516   5.988  16.745  0.00  0.00    +0.000 A 
BRANCH  12  13
ATOM     13  C   UNL     1       7.267   6.924  17.642  0.00  0.00    +0.000 C 
ATOM     14  O   UNL     1       7.833   6.527  18.649  0.00  0.00    +0.000 OA
BRANCH  13  15
ATOM     15  O   UNL     1       7.441   8.178  17.187  0.00  0.00    +0.000 OA
ATOM     16  H   UNL     1       6.895   8.836  17.675  0.00  0.00    +0.000 HD
ENDBRANCH  13  15
ENDBRANCH  12  13
ENDBRANCH   5   7
BRANCH   1  17
ATOM     17  C   UNL     1       2.089   9.182  18.303  0.00  0.00    +0.000 C 
BRANCH  17  22
ATOM     18  N   UNL     1      -0.680  10.738  20.449  0.00  0.00    +0.000 NA
ATOM     19  C   UNL     1      -1.523  11.302  19.367  0.00  0.00    +0.000 C 
ATOM     20  C   UNL     1      -1.638  10.303  18.227  0.00  0.00    +0.000 C 
ATOM     21  C   UNL     1      -0.263   9.941  17.684  0.00  0.00    +0.000 C 
ATOM     22  C   UNL     1       0.641   9.380  18.793  0.00  0.00    +0.000 C 
ATOM     23  C   UNL     1       0.677  10.325  20.009  0.00  0.00    +0.000 C 
BRANCH  18  25
ATOM     24  C   UNL     1       0.249  13.048  21.562  0.00  0.00    +0.000 C 
ATOM     25  S   UNL     1      -0.732  11.600  21.926  0.00  0.00    +0.000 S 
ATOM     26  O   UNL     1      -0.021  10.823  22.919  0.00  0.00    +0.000 OA
ATOM     27  O   UNL     1      -2.096  12.030  22.148  0.00  0.00    +0.000 OA
ENDBRANCH  18  25
ENDBRANCH  17  22
ENDBRANCH   1  17
TORSDOF 6
ENDMDL
MODEL 8
REMARK VINA RESULT:      -7.5      1.260      1.464
REMARK  Name = 
REMARK  7 active torsions:
REMARK  status: ('A' for Active; 'I' for Inactive)
REMARK    1  A    between atoms: C_1  and  S_2
REMARK    2  A    between atoms: S_2  and  N_5
REMARK    3  A    between atoms: C_9  and  C_10
REMARK    4  A    between atoms: C_10  and  C_11
REMARK    5  A    between atoms: C_15  and  C_16
REMARK    6  A    between atoms: C_21  and  C_22
REMARK    7  A    between atoms: C_22  and  O_24
REMARK                            x       y       z     vdW  Elec       q    Type
REMARK                         _______ _______ _______ _____ _____    ______ ____
ROOT
ATOM      1  C   UNL     1       2.603   7.905  18.256  0.00  0.00    +0.000 A 
ATOM      2  C   UNL     1       2.201   7.344  19.460  0.00  0.00    +0.000 A 
ATOM      3  N   UNL     1       2.759   6.224  19.958  0.00  0.00    +0.000 NA
ATOM      4  C   UNL     1       3.744   5.683  19.201  0.00  0.00    +0.000 A 
ATOM      5  C   UNL     1       4.152   6.193  17.967  0.00  0.00    +0.000 A 
ATOM      6  N   UNL     1       3.564   7.316  17.477  0.00  0.00    +0.000 NA
ENDROOT
BRANCH   5   7
ATOM      7  C   UNL     1       5.191   5.542  17.134  0.00  0.00    +0.000 A 
ATOM      8  C   UNL     1       4.768   4.922  15.926  0.00  0.00    +0.000 A 
ATOM      9  C   UNL     1       5.627   4.175  15.115  0.00  0.00    +0.000 A 
ATOM     10  C   UNL     1       6.958   4.043  15.469  0.00  0.00    +0.000 A 
ATOM     11  C   UNL     1       7.424   4.679  16.616  0.00  0.00    +0.000 A 
ATOM     12  C   UNL     1       6.567   5.436  17.452  0.00  0.00    +0.000 A 
BRANCH  12  13
ATOM     13  C   UNL     1       7.269   5.993  18.652  0.00  0.00    +0.000 C 
ATOM     14  O   UNL     1       7.914   7.029  18.591  0.00  0.00    +0.000 OA
BRANCH  13  15
ATOM     15  O   UNL     1       7.001   5.402  19.831  0.00  0.00    +0.000 OA
ATOM     16  H   UNL     1       7.719   5.534  20.491  0.00  0.00    +0.000 HD
ENDBRANCH  13  15
ENDBRANCH  12  13
ENDBRANCH   5   7
BRANCH   1  17
ATOM     17  C   UNL     1       2.060   9.236  17.814  0.00  0.00    +0.000 C 
BRANCH  17  22
ATOM     18  N   UNL     1       0.577  12.069  19.927  0.00  0.00    +0.000 NA
ATOM     19  C   UNL     1      -0.742  12.189  19.261  0.00  0.00    +0.000 C 
ATOM     20  C   UNL     1      -1.307  10.806  18.977  0.00  0.00    +0.000 C 
ATOM     21  C   UNL     1      -0.352  10.001  18.107  0.00  0.00    +0.000 C 
ATOM     22  C   UNL     1       1.033   9.886  18.762  0.00  0.00    +0.000 C 
ATOM     23  C   UNL     1       1.571  11.272  19.165  0.00  0.00    +0.000 C 
BRANCH  18  25
ATOM     24  C   UNL     1       0.366  14.770  19.617  0.00  0.00    +0.000 C 
ATOM     25  S   UNL     1       1.178  13.521  20.604  0.00  0.00    +0.000 S 
ATOM     26  O   UNL     1       2.596  13.589  20.323  0.00  0.00    +0.000 OA
ATOM     27  O   UNL     1       0.676  13.627  21.958  0.00  0.00    +0.000 OA
ENDBRANCH  18  25
ENDBRANCH  17  22
ENDBRANCH   1  17
TORSDOF 6
ENDMDL
MODEL 9
REMARK VINA RESULT:      -7.5      2.918      8.678
REMARK  Name = 
REMARK  7 active torsions:
REMARK  status: ('A' for Active; 'I' for Inactive)
REMARK    1  A    between atoms: C_1  and  S_2
REMARK    2  A    between atoms: S_2  and  N_5
REMARK    3  A    between atoms: C_9  and  C_10
REMARK    4  A    between atoms: C_10  and  C_11
REMARK    5  A    between atoms: C_15  and  C_16
REMARK    6  A    between atoms: C_21  and  C_22
REMARK    7  A    between atoms: C_22  and  O_24
REMARK                            x       y       z     vdW  Elec       q    Type
REMARK                         _______ _______ _______ _____ _____    ______ ____
ROOT
ATOM      1  C   UNL     1       1.910   8.284  19.090  0.00  0.00    +0.000 A 
ATOM      2  C   UNL     1       2.341   8.855  17.901  0.00  0.00    +0.000 A 
ATOM      3  N   UNL     1       2.068  10.133  17.572  0.00  0.00    +0.000 NA
ATOM      4  C   UNL     1       1.343  10.823  18.486  0.00  0.00    +0.000 A 
ATOM      5  C   UNL     1       0.857  10.274  19.674  0.00  0.00    +0.000 A 
ATOM      6  N   UNL     1       1.131   8.979  19.977  0.00  0.00    +0.000 NA
ENDROOT
BRANCH   5   7
ATOM      7  C   UNL     1       0.013  11.038  20.623  0.00  0.00    +0.000 A 
ATOM      8  C   UNL     1      -0.459  12.311  20.201  0.00  0.00    +0.000 A 
ATOM      9  C   UNL     1      -1.161  13.178  21.044  0.00  0.00    +0.000 A 
ATOM     10  C   UNL     1      -1.445  12.790  22.341  0.00  0.00    +0.000 A 
ATOM     11  C   UNL     1      -1.046  11.529  22.776  0.00  0.00    +0.000 A 
ATOM     12  C   UNL     1      -0.330  10.640  21.939  0.00  0.00    +0.000 A 
BRANCH  12  13
ATOM     13  C   UNL     1       0.034   9.360  22.626  0.00  0.00    +0.000 C 
ATOM     14  O   UNL     1      -0.726   8.403  22.640  0.00  0.00    +0.000 OA
BRANCH  13  15
ATOM     15  O   UNL     1       1.303   9.254  23.062  0.00  0.00    +0.000 OA
ATOM     16  H   UNL     1       1.369   9.288  24.043  0.00  0.00    +0.000 HD
ENDBRANCH  13  15
ENDBRANCH  12  13
ENDBRANCH   5   7
BRANCH   1  17
ATOM     17  C   UNL     1       2.365   6.905  19.484  0.00  0.00    +0.000 C 
BRANCH  17  22
ATOM     18  N   UNL     1       5.428   5.209  17.928  0.00  0.00    +0.000 NA
ATOM     19  C   UNL     1       4.894   3.830  17.808  0.00  0.00    +0.000 C 
ATOM     20  C   UNL     1       3.461   3.873  17.304  0.00  0.00    +0.000 C 
ATOM     21  C   UNL     1       2.584   4.695  18.238  0.00  0.00    +0.000 C 
ATOM     22  C   UNL     1       3.132   6.120  18.402  0.00  0.00    +0.000 C 
ATOM     23  C   UNL     1       4.620   6.099  18.799  0.00  0.00    +0.000 C 
BRANCH  18  25
ATOM     24  C   UNL     1       7.475   6.996  17.696  0.00  0.00    +0.000 C 
ATOM     25  S   UNL     1       7.121   5.308  18.160  0.00  0.00    +0.000 S 
ATOM     26  O   UNL     1       7.754   4.441  17.191  0.00  0.00    +0.000 OA
ATOM     27  O   UNL     1       7.388   5.170  19.576  0.00  0.00    +0.000 OA
ENDBRANCH  18  25
ENDBRANCH  17  22
ENDBRANCH   1  17
TORSDOF 6
ENDMDL
