MODEL 1
REMARK VINA RESULT:      -6.7      0.000      0.000
REMARK  Name = 
REMARK  0 active torsions:
REMARK  status: ('A' for Active; 'I' for Inactive)
REMARK                            x       y       z     vdW  Elec       q    Type
REMARK                         _______ _______ _______ _____ _____    ______ ____
ROOT
ATOM      1  O   UNL     1       5.941   3.544  15.967  0.00  0.00    +0.000 OA
ATOM      2  C   UNL     1       5.262   4.402  16.520  0.00  0.00    +0.000 A 
ATOM      3  C   UNL     1       5.199   5.786  15.938  0.00  0.00    +0.000 A 
ATOM      4  C   UNL     1       4.495   6.754  16.532  0.00  0.00    +0.000 A 
ATOM      5  C   UNL     1       3.649   6.496  17.684  0.00  0.00    +0.000 A 
ATOM      6  I   UNL     1       2.414   7.985  18.394  0.00  0.00    +0.000 I 
ATOM      7  C   UNL     1       3.560   5.215  18.085  0.00  0.00    +0.000 A 
ATOM      8  N   UNL     1       4.429   4.179  17.608  0.00  0.00    +0.000 N 
ATOM      9  C   UNL     1       4.109   2.742  18.075  0.00  0.00    +0.000 C 
ATOM     10  C   UNL     1       2.539   2.408  17.926  0.00  0.00    +0.000 C 
ATOM     11  C   UNL     1       1.666   2.074  19.206  0.00  0.00    +0.000 C 
ATOM     12  N   UNL     1       0.722   3.152  19.743  0.00  0.00    +0.000 NA
ATOM     13  C   UNL     1       1.250   4.566  19.699  0.00  0.00    +0.000 C 
ATOM     14  C   UNL     1       2.389   4.564  18.716  0.00  0.00    +0.000 C 
ATOM     15  C   UNL     1       1.928   3.703  17.489  0.00  0.00    +0.000 C 
ATOM     16  H   UNL     1      -0.109   3.143  19.145  0.00  0.00    +0.000 HD
ENDROOT
TORSDOF 0
ENDMDL
MODEL 2
REMARK VINA RESULT:      -6.4      2.104      4.220
REMARK  Name = 
REMARK  0 active torsions:
REMARK  status: ('A' for Active; 'I' for Inactive)
REMARK                            x       y       z     vdW  Elec       q    Type
REMARK                         _______ _______ _______ _____ _____    ______ ____
ROOT
ATOM      1  O   UNL     1       3.173   2.870  20.408  0.00  0.00    +0.000 OA
ATOM      2  C   UNL     1       2.967   3.954  19.873  0.00  0.00    +0.000 A 
ATOM      3  C   UNL     1       2.243   5.029  20.631  0.00  0.00    +0.000 A 
ATOM      4  C   UNL     1       1.974   6.211  20.068  0.00  0.00    +0.000 A 
ATOM      5  C   UNL     1       2.480   6.573  18.755  0.00  0.00    +0.000 A 
ATOM      6  I   UNL     1       2.225   8.495  18.059  0.00  0.00    +0.000 I 
ATOM      7  C   UNL     1       3.289   5.677  18.160  0.00  0.00    +0.000 A 
ATOM      8  N   UNL     1       3.456   4.332  18.629  0.00  0.00    +0.000 N 
ATOM      9  C   UNL     1       4.518   3.476  17.905  0.00  0.00    +0.000 C 
ATOM     10  C   UNL     1       5.899   4.286  17.712  0.00  0.00    +0.000 C 
ATOM     11  C   UNL     1       6.443   4.607  16.259  0.00  0.00    +0.000 C 
ATOM     12  N   UNL     1       6.288   6.032  15.723  0.00  0.00    +0.000 NA
ATOM     13  C   UNL     1       4.993   6.726  16.071  0.00  0.00    +0.000 C 
ATOM     14  C   UNL     1       4.408   5.973  17.235  0.00  0.00    +0.000 C 
ATOM     15  C   UNL     1       5.592   5.662  18.216  0.00  0.00    +0.000 C 
ATOM     16  H   UNL     1       7.032   6.591  16.151  0.00  0.00    +0.000 HD
ENDROOT
TORSDOF 0
ENDMDL
MODEL 3
REMARK VINA RESULT:      -6.3      2.676      3.276
REMARK  Name = 
REMARK  0 active torsions:
REMARK  status: ('A' for Active; 'I' for Inactive)
REMARK                            x       y       z     vdW  Elec       q    Type
REMARK                         _______ _______ _______ _____ _____    ______ ____
ROOT
ATOM      1  O   UNL     1       7.184   5.507  20.170  0.00  0.00    +0.000 OA
ATOM      2  C   UNL     1       6.813   5.252  19.030  0.00  0.00    +0.000 A 
ATOM      3  C   UNL     1       7.826   4.873  17.987  0.00  0.00    +0.000 A 
ATOM      4  C   UNL     1       7.460   4.619  16.728  0.00  0.00    +0.000 A 
ATOM      5  C   UNL     1       6.065   4.560  16.327  0.00  0.00    +0.000 A 
ATOM      6  I   UNL     1       5.577   3.930  14.427  0.00  0.00    +0.000 I 
ATOM      7  C   UNL     1       5.156   4.712  17.306  0.00  0.00    +0.000 A 
ATOM      8  N   UNL     1       5.487   5.169  18.625  0.00  0.00    +0.000 N 
ATOM      9  C   UNL     1       4.344   5.165  19.664  0.00  0.00    +0.000 C 
ATOM     10  C   UNL     1       3.520   3.780  19.631  0.00  0.00    +0.000 C 
ATOM     11  C   UNL     1       1.983   3.770  19.245  0.00  0.00    +0.000 C 
ATOM     12  N   UNL     1       1.588   3.286  17.849  0.00  0.00    +0.000 NA
ATOM     13  C   UNL     1       2.510   3.698  16.726  0.00  0.00    +0.000 C 
ATOM     14  C   UNL     1       3.811   4.094  17.370  0.00  0.00    +0.000 C 
ATOM     15  C   UNL     1       4.112   3.027  18.480  0.00  0.00    +0.000 C 
ATOM     16  H   UNL     1       1.612   2.263  17.873  0.00  0.00    +0.000 HD
ENDROOT
TORSDOF 0
ENDMDL
MODEL 4
REMARK VINA RESULT:      -6.1      1.355      1.610
REMARK  Name = 
REMARK  0 active torsions:
REMARK  status: ('A' for Active; 'I' for Inactive)
REMARK                            x       y       z     vdW  Elec       q    Type
REMARK                         _______ _______ _______ _____ _____    ______ ____
ROOT
ATOM      1  O   UNL     1       4.944   5.621  16.120  0.00  0.00    +0.000 OA
ATOM      2  C   UNL     1       4.262   6.025  17.055  0.00  0.00    +0.000 A 
ATOM      3  C   UNL     1       3.844   7.468  17.098  0.00  0.00    +0.000 A 
ATOM      4  C   UNL     1       3.128   7.950  18.117  0.00  0.00    +0.000 A 
ATOM      5  C   UNL     1       2.599   7.091  19.163  0.00  0.00    +0.000 A 
ATOM      6  I   UNL     1       1.308   7.871  20.567  0.00  0.00    +0.000 I 
ATOM      7  C   UNL     1       2.816   5.771  19.018  0.00  0.00    +0.000 A 
ATOM      8  N   UNL     1       3.728   5.224  18.055  0.00  0.00    +0.000 N 
ATOM      9  C   UNL     1       3.761   3.684  17.935  0.00  0.00    +0.000 C 
ATOM     10  C   UNL     1       2.274   3.064  17.865  0.00  0.00    +0.000 C 
ATOM     11  C   UNL     1       1.760   2.084  18.998  0.00  0.00    +0.000 C 
ATOM     12  N   UNL     1       0.783   2.629  20.042  0.00  0.00    +0.000 NA
ATOM     13  C   UNL     1       1.042   4.041  20.509  0.00  0.00    +0.000 C 
ATOM     14  C   UNL     1       1.931   4.674  19.474  0.00  0.00    +0.000 C 
ATOM     15  C   UNL     1       1.374   4.243  18.072  0.00  0.00    +0.000 C 
ATOM     16  H   UNL     1      -0.142   2.643  19.602  0.00  0.00    +0.000 HD
ENDROOT
TORSDOF 0
ENDMDL
MODEL 5
REMARK VINA RESULT:      -6.0      2.605      3.266
REMARK  Name = 
REMARK  0 active torsions:
REMARK  status: ('A' for Active; 'I' for Inactive)
REMARK                            x       y       z     vdW  Elec       q    Type
REMARK                         _______ _______ _______ _____ _____    ______ ____
ROOT
ATOM      1  O   UNL     1       2.188   7.678  18.949  0.00  0.00    +0.000 OA
ATOM      2  C   UNL     1       2.873   6.941  18.248  0.00  0.00    +0.000 A 
ATOM      3  C   UNL     1       4.136   7.468  17.630  0.00  0.00    +0.000 A 
ATOM      4  C   UNL     1       4.890   6.703  16.836  0.00  0.00    +0.000 A 
ATOM      5  C   UNL     1       4.611   5.292  16.634  0.00  0.00    +0.000 A 
ATOM      6  I   UNL     1       5.952   4.128  15.589  0.00  0.00    +0.000 I 
ATOM      7  C   UNL     1       3.588   4.779  17.341  0.00  0.00    +0.000 A 
ATOM      8  N   UNL     1       2.640   5.585  18.054  0.00  0.00    +0.000 N 
ATOM      9  C   UNL     1       1.605   4.831  18.917  0.00  0.00    +0.000 C 
ATOM     10  C   UNL     1       2.302   3.684  19.810  0.00  0.00    +0.000 C 
ATOM     11  C   UNL     1       1.923   2.160  19.595  0.00  0.00    +0.000 C 
ATOM     12  N   UNL     1       2.909   1.265  18.842  0.00  0.00    +0.000 NA
ATOM     13  C   UNL     1       3.610   1.905  17.668  0.00  0.00    +0.000 C 
ATOM     14  C   UNL     1       3.471   3.392  17.849  0.00  0.00    +0.000 C 
ATOM     15  C   UNL     1       3.732   3.691  19.367  0.00  0.00    +0.000 C 
ATOM     16  H   UNL     1       3.646   1.013  19.507  0.00  0.00    +0.000 HD
ENDROOT
TORSDOF 0
ENDMDL
MODEL 6
REMARK VINA RESULT:      -6.0      1.943      4.169
REMARK  Name = 
REMARK  0 active torsions:
REMARK  status: ('A' for Active; 'I' for Inactive)
REMARK                            x       y       z     vdW  Elec       q    Type
REMARK                         _______ _______ _______ _____ _____    ______ ____
ROOT
ATOM      1  O   UNL     1       2.197   1.550  18.952  0.00  0.00    +0.000 OA
ATOM      2  C   UNL     1       2.071   2.747  19.185  0.00  0.00    +0.000 A 
ATOM      3  C   UNL     1       1.567   3.191  20.528  0.00  0.00    +0.000 A 
ATOM      4  C   UNL     1       1.388   4.485  20.807  0.00  0.00    +0.000 A 
ATOM      5  C   UNL     1       1.795   5.535  19.888  0.00  0.00    +0.000 A 
ATOM      6  I   UNL     1       1.705   7.504  20.488  0.00  0.00    +0.000 I 
ATOM      7  C   UNL     1       2.421   5.136  18.767  0.00  0.00    +0.000 A 
ATOM      8  N   UNL     1       2.471   3.770  18.335  0.00  0.00    +0.000 N 
ATOM      9  C   UNL     1       3.339   3.470  17.093  0.00  0.00    +0.000 C 
ATOM     10  C   UNL     1       4.781   4.184  17.194  0.00  0.00    +0.000 C 
ATOM     11  C   UNL     1       5.207   5.282  16.134  0.00  0.00    +0.000 C 
ATOM     12  N   UNL     1       5.172   6.752  16.557  0.00  0.00    +0.000 NA
ATOM     13  C   UNL     1       4.015   7.153  17.440  0.00  0.00    +0.000 C 
ATOM     14  C   UNL     1       3.466   5.880  18.025  0.00  0.00    +0.000 C 
ATOM     15  C   UNL     1       4.699   5.004  18.444  0.00  0.00    +0.000 C 
ATOM     16  H   UNL     1       6.019   6.921  17.108  0.00  0.00    +0.000 HD
ENDROOT
TORSDOF 0
ENDMDL
MODEL 7
REMARK VINA RESULT:      -5.9      1.800      4.205
REMARK  Name = 
REMARK  0 active torsions:
REMARK  status: ('A' for Active; 'I' for Inactive)
REMARK                            x       y       z     vdW  Elec       q    Type
REMARK                         _______ _______ _______ _____ _____    ______ ____
ROOT
ATOM      1  O   UNL     1       3.311   1.737  17.797  0.00  0.00    +0.000 OA
ATOM      2  C   UNL     1       3.102   2.943  17.860  0.00  0.00    +0.000 A 
ATOM      3  C   UNL     1       2.019   3.461  18.763  0.00  0.00    +0.000 A 
ATOM      4  C   UNL     1       1.742   4.766  18.833  0.00  0.00    +0.000 A 
ATOM      5  C   UNL     1       2.551   5.763  18.154  0.00  0.00    +0.000 A 
ATOM      6  I   UNL     1       2.206   7.765  18.502  0.00  0.00    +0.000 I 
ATOM      7  C   UNL     1       3.635   5.308  17.500  0.00  0.00    +0.000 A 
ATOM      8  N   UNL     1       3.871   3.918  17.238  0.00  0.00    +0.000 N 
ATOM      9  C   UNL     1       5.226   3.558  16.589  0.00  0.00    +0.000 C 
ATOM     10  C   UNL     1       6.450   4.311  17.321  0.00  0.00    +0.000 C 
ATOM     11  C   UNL     1       7.344   5.348  16.524  0.00  0.00    +0.000 C 
ATOM     12  N   UNL     1       7.126   6.841  16.778  0.00  0.00    +0.000 NA
ATOM     13  C   UNL     1       5.692   7.271  16.968  0.00  0.00    +0.000 C 
ATOM     14  C   UNL     1       4.916   6.026  17.302  0.00  0.00    +0.000 C 
ATOM     15  C   UNL     1       5.786   5.208  18.319  0.00  0.00    +0.000 C 
ATOM     16  H   UNL     1       7.606   7.065  17.654  0.00  0.00    +0.000 HD
ENDROOT
TORSDOF 0
ENDMDL
MODEL 8
REMARK VINA RESULT:      -5.5      1.789      2.051
REMARK  Name = 
REMARK  0 active torsions:
REMARK  status: ('A' for Active; 'I' for Inactive)
REMARK                            x       y       z     vdW  Elec       q    Type
REMARK                         _______ _______ _______ _____ _____    ______ ____
ROOT
ATOM      1  O   UNL     1       5.394   5.664  16.567  0.00  0.00    +0.000 OA
ATOM      2  C   UNL     1       4.626   6.072  17.431  0.00  0.00    +0.000 A 
ATOM      3  C   UNL     1       3.779   7.282  17.159  0.00  0.00    +0.000 A 
ATOM      4  C   UNL     1       2.953   7.772  18.089  0.00  0.00    +0.000 A 
ATOM      5  C   UNL     1       2.727   7.093  19.353  0.00  0.00    +0.000 A 
ATOM      6  I   UNL     1       1.265   7.783  20.631  0.00  0.00    +0.000 I 
ATOM      7  C   UNL     1       3.344   5.909  19.514  0.00  0.00    +0.000 A 
ATOM      8  N   UNL     1       4.375   5.432  18.639  0.00  0.00    +0.000 N 
ATOM      9  C   UNL     1       4.887   3.998  18.893  0.00  0.00    +0.000 C 
ATOM     10  C   UNL     1       3.668   2.963  19.103  0.00  0.00    +0.000 C 
ATOM     11  C   UNL     1       3.493   2.200  20.481  0.00  0.00    +0.000 C 
ATOM     12  N   UNL     1       2.401   2.675  21.441  0.00  0.00    +0.000 NA
ATOM     13  C   UNL     1       2.209   4.170  21.528  0.00  0.00    +0.000 C 
ATOM     14  C   UNL     1       2.849   4.753  20.297  0.00  0.00    +0.000 C 
ATOM     15  C   UNL     1       2.446   3.829  19.095  0.00  0.00    +0.000 C 
ATOM     16  H   UNL     1       1.516   2.297  21.092  0.00  0.00    +0.000 HD
ENDROOT
TORSDOF 0
ENDMDL
MODEL 9
REMARK VINA RESULT:      -5.5      2.761      4.313
REMARK  Name = 
REMARK  0 active torsions:
REMARK  status: ('A' for Active; 'I' for Inactive)
REMARK                            x       y       z     vdW  Elec       q    Type
REMARK                         _______ _______ _______ _____ _____    ______ ____
ROOT
ATOM      1  O   UNL     1       2.108   2.359  20.711  0.00  0.00    +0.000 OA
ATOM      2  C   UNL     1       2.818   2.741  19.787  0.00  0.00    +0.000 A 
ATOM      3  C   UNL     1       3.220   1.773  18.711  0.00  0.00    +0.000 A 
ATOM      4  C   UNL     1       4.018   2.146  17.707  0.00  0.00    +0.000 A 
ATOM      5  C   UNL     1       4.428   3.527  17.521  0.00  0.00    +0.000 A 
ATOM      6  I   UNL     1       5.460   4.063  15.819  0.00  0.00    +0.000 I 
ATOM      7  C   UNL     1       3.910   4.424  18.379  0.00  0.00    +0.000 A 
ATOM      8  N   UNL     1       3.208   4.057  19.574  0.00  0.00    +0.000 N 
ATOM      9  C   UNL     1       2.569   5.209  20.380  0.00  0.00    +0.000 C 
ATOM     10  C   UNL     1       1.759   6.222  19.422  0.00  0.00    +0.000 C 
ATOM     11  C   UNL     1       2.207   7.737  19.295  0.00  0.00    +0.000 C 
ATOM     12  N   UNL     1       2.955   8.170  18.033  0.00  0.00    +0.000 NA
ATOM     13  C   UNL     1       3.954   7.176  17.489  0.00  0.00    +0.000 C 
ATOM     14  C   UNL     1       3.600   5.844  18.094  0.00  0.00    +0.000 C 
ATOM     15  C   UNL     1       2.037   5.721  18.039  0.00  0.00    +0.000 C 
ATOM     16  H   UNL     1       2.252   8.293  17.299  0.00  0.00    +0.000 HD
ENDROOT
TORSDOF 0
ENDMDL
