MODEL 1
REMARK VINA RESULT:      -8.2      0.000      0.000
REMARK  Name = 
REMARK  4 active torsions:
REMARK  status: ('A' for Active; 'I' for Inactive)
REMARK    1  A    between atoms: O_1  and  C_2
REMARK    2  A    between atoms: C_6  and  O_7
REMARK    3  A    between atoms: C_8  and  N_9
REMARK    4  A    between atoms: N_9  and  C_10
REMARK                            x       y       z     vdW  Elec       q    Type
REMARK                         _______ _______ _______ _____ _____    ______ ____
ROOT
ATOM      1  C   UNL     1       3.493   5.585  18.587  0.00  0.00    +0.000 A 
ATOM      2  C   UNL     1       2.638   4.443  18.700  0.00  0.00    +0.000 A 
ATOM      3  C   UNL     1       1.436   4.393  19.461  0.00  0.00    +0.000 A 
ATOM      4  C   UNL     1       0.739   3.206  19.661  0.00  0.00    +0.000 A 
ATOM      5  C   UNL     1       1.188   2.051  19.046  0.00  0.00    +0.000 A 
ATOM      6  C   UNL     1       2.304   2.108  18.208  0.00  0.00    +0.000 A 
ATOM      7  C   UNL     1       3.029   3.279  18.018  0.00  0.00    +0.000 A 
ATOM      8  N   UNL     1       4.089   3.225  17.205  0.00  0.00    +0.000 NA
ATOM      9  C   UNL     1       4.867   4.305  17.066  0.00  0.00    +0.000 A 
ATOM     10  C   UNL     1       5.971   4.188  16.231  0.00  0.00    +0.000 A 
ATOM     11  C   UNL     1       6.881   5.230  16.057  0.00  0.00    +0.000 A 
ATOM     12  C   UNL     1       6.685   6.427  16.730  0.00  0.00    +0.000 A 
ATOM     13  C   UNL     1       5.575   6.572  17.563  0.00  0.00    +0.000 A 
ATOM     14  C   UNL     1       4.636   5.520  17.739  0.00  0.00    +0.000 A 
ENDROOT
BRANCH   1  15
ATOM     15  N   UNL     1       3.288   6.738  19.393  0.00  0.00    +0.000 N 
ATOM     16  H   UNL     1       3.843   6.805  20.239  0.00  0.00    +0.000 HD
BRANCH  15  22
ATOM     17  C   UNL     1       1.550   8.044  20.470  0.00  0.00    +0.000 A 
ATOM     18  C   UNL     1       0.692   9.145  20.528  0.00  0.00    +0.000 A 
ATOM     19  C   UNL     1       0.561   9.976  19.416  0.00  0.00    +0.000 A 
ATOM     20  C   UNL     1       1.260   9.688  18.245  0.00  0.00    +0.000 A 
ATOM     21  C   UNL     1       2.105   8.577  18.196  0.00  0.00    +0.000 A 
ATOM     22  C   UNL     1       2.298   7.748  19.316  0.00  0.00    +0.000 A 
BRANCH  17  23
ATOM     23  O   UNL     1       1.688   7.226  21.566  0.00  0.00    +0.000 OA
ATOM     24  H   UNL     1       1.812   6.315  21.255  0.00  0.00    +0.000 HD
ENDBRANCH  17  23
BRANCH  21  25
ATOM     25  O   UNL     1       2.715   8.283  17.005  0.00  0.00    +0.000 OA
ATOM     26  H   UNL     1       2.169   7.640  16.526  0.00  0.00    +0.000 HD
ENDBRANCH  21  25
ENDBRANCH  15  22
ENDBRANCH   1  15
TORSDOF 4
ENDMDL
MODEL 2
REMARK VINA RESULT:      -8.2      0.243      3.786
REMARK  Name = 
REMARK  4 active torsions:
REMARK  status: ('A' for Active; 'I' for Inactive)
REMARK    1  A    between atoms: O_1  and  C_2
REMARK    2  A    between atoms: C_6  and  O_7
REMARK    3  A    between atoms: C_8  and  N_9
REMARK    4  A    between atoms: N_9  and  C_10
REMARK                            x       y       z     vdW  Elec       q    Type
REMARK                         _______ _______ _______ _____ _____    ______ ____
ROOT
ATOM      1  C   UNL     1       3.545   5.533  18.796  0.00  0.00    +0.000 A 
ATOM      2  C   UNL     1       4.626   5.439  17.863  0.00  0.00    +0.000 A 
ATOM      3  C   UNL     1       5.640   6.421  17.684  0.00  0.00    +0.000 A 
ATOM      4  C   UNL     1       6.566   6.344  16.648  0.00  0.00    +0.000 A 
ATOM      5  C   UNL     1       6.546   5.246  15.808  0.00  0.00    +0.000 A 
ATOM      6  C   UNL     1       5.625   4.221  16.040  0.00  0.00    +0.000 A 
ATOM      7  C   UNL     1       4.675   4.293  17.052  0.00  0.00    +0.000 A 
ATOM      8  N   UNL     1       3.831   3.264  17.182  0.00  0.00    +0.000 NA
ATOM      9  C   UNL     1       2.845   3.333  18.083  0.00  0.00    +0.000 A 
ATOM     10  C   UNL     1       1.979   2.249  18.160  0.00  0.00    +0.000 A 
ATOM     11  C   UNL     1       0.883   2.237  19.021  0.00  0.00    +0.000 A 
ATOM     12  C   UNL     1       0.641   3.334  19.834  0.00  0.00    +0.000 A 
ATOM     13  C   UNL     1       1.506   4.429  19.784  0.00  0.00    +0.000 A 
ATOM     14  C   UNL     1       2.632   4.446  18.919  0.00  0.00    +0.000 A 
ENDROOT
BRANCH   1  15
ATOM     15  N   UNL     1       3.300   6.734  19.515  0.00  0.00    +0.000 N 
ATOM     16  H   UNL     1       3.814   6.859  20.380  0.00  0.00    +0.000 HD
BRANCH  15  22
ATOM     17  C   UNL     1       1.542   8.133  20.433  0.00  0.00    +0.000 A 
ATOM     18  C   UNL     1       0.684   9.234  20.372  0.00  0.00    +0.000 A 
ATOM     19  C   UNL     1       0.580   9.962  19.188  0.00  0.00    +0.000 A 
ATOM     20  C   UNL     1       1.303   9.570  18.063  0.00  0.00    +0.000 A 
ATOM     21  C   UNL     1       2.147   8.459  18.132  0.00  0.00    +0.000 A 
ATOM     22  C   UNL     1       2.314   7.734  19.326  0.00  0.00    +0.000 A 
BRANCH  17  23
ATOM     23  O   UNL     1       1.654   7.416  21.600  0.00  0.00    +0.000 OA
ATOM     24  H   UNL     1       2.453   7.712  22.066  0.00  0.00    +0.000 HD
ENDBRANCH  17  23
BRANCH  21  25
ATOM     25  O   UNL     1       2.782   8.060  16.986  0.00  0.00    +0.000 OA
ATOM     26  H   UNL     1       3.194   8.834  16.573  0.00  0.00    +0.000 HD
ENDBRANCH  21  25
ENDBRANCH  15  22
ENDBRANCH   1  15
TORSDOF 4
ENDMDL
MODEL 3
REMARK VINA RESULT:      -8.1      1.105      1.977
REMARK  Name = 
REMARK  4 active torsions:
REMARK  status: ('A' for Active; 'I' for Inactive)
REMARK    1  A    between atoms: O_1  and  C_2
REMARK    2  A    between atoms: C_6  and  O_7
REMARK    3  A    between atoms: C_8  and  N_9
REMARK    4  A    between atoms: N_9  and  C_10
REMARK                            x       y       z     vdW  Elec       q    Type
REMARK                         _______ _______ _______ _____ _____    ______ ____
ROOT
ATOM      1  C   UNL     1       3.295   5.724  17.884  0.00  0.00    +0.000 A 
ATOM      2  C   UNL     1       2.794   4.411  18.150  0.00  0.00    +0.000 A 
ATOM      3  C   UNL     1       1.417   4.061  18.232  0.00  0.00    +0.000 A 
ATOM      4  C   UNL     1       0.999   2.803  18.654  0.00  0.00    +0.000 A 
ATOM      5  C   UNL     1       1.950   1.839  18.937  0.00  0.00    +0.000 A 
ATOM      6  C   UNL     1       3.303   2.135  18.755  0.00  0.00    +0.000 A 
ATOM      7  C   UNL     1       3.740   3.394  18.361  0.00  0.00    +0.000 A 
ATOM      8  N   UNL     1       5.058   3.577  18.227  0.00  0.00    +0.000 NA
ATOM      9  C   UNL     1       5.526   4.797  17.937  0.00  0.00    +0.000 A 
ATOM     10  C   UNL     1       6.904   4.940  17.837  0.00  0.00    +0.000 A 
ATOM     11  C   UNL     1       7.504   6.175  17.597  0.00  0.00    +0.000 A 
ATOM     12  C   UNL     1       6.711   7.303  17.448  0.00  0.00    +0.000 A 
ATOM     13  C   UNL     1       5.322   7.180  17.531  0.00  0.00    +0.000 A 
ATOM     14  C   UNL     1       4.700   5.925  17.764  0.00  0.00    +0.000 A 
ENDROOT
BRANCH   1  15
ATOM     15  N   UNL     1       2.425   6.848  17.853  0.00  0.00    +0.000 N 
ATOM     16  H   UNL     1       2.108   7.152  16.939  0.00  0.00    +0.000 HD
BRANCH  15  22
ATOM     17  C   UNL     1       1.684   9.059  18.523  0.00  0.00    +0.000 A 
ATOM     18  C   UNL     1       1.129   9.946  19.450  0.00  0.00    +0.000 A 
ATOM     19  C   UNL     1       0.933   9.533  20.767  0.00  0.00    +0.000 A 
ATOM     20  C   UNL     1       1.320   8.253  21.161  0.00  0.00    +0.000 A 
ATOM     21  C   UNL     1       1.887   7.381  20.229  0.00  0.00    +0.000 A 
ATOM     22  C   UNL     1       2.052   7.749  18.881  0.00  0.00    +0.000 A 
BRANCH  17  23
ATOM     23  O   UNL     1       1.873   9.459  17.222  0.00  0.00    +0.000 OA
ATOM     24  H   UNL     1       1.804  10.427  17.186  0.00  0.00    +0.000 HD
ENDBRANCH  17  23
BRANCH  21  25
ATOM     25  O   UNL     1       2.325   6.161  20.671  0.00  0.00    +0.000 OA
ATOM     26  H   UNL     1       2.930   6.299  21.416  0.00  0.00    +0.000 HD
ENDBRANCH  21  25
ENDBRANCH  15  22
ENDBRANCH   1  15
TORSDOF 4
ENDMDL
MODEL 4
REMARK VINA RESULT:      -7.9      0.962      4.176
REMARK  Name = 
REMARK  4 active torsions:
REMARK  status: ('A' for Active; 'I' for Inactive)
REMARK    1  A    between atoms: O_1  and  C_2
REMARK    2  A    between atoms: C_6  and  O_7
REMARK    3  A    between atoms: C_8  and  N_9
REMARK    4  A    between atoms: N_9  and  C_10
REMARK                            x       y       z     vdW  Elec       q    Type
REMARK                         _______ _______ _______ _____ _____    ______ ____
ROOT
ATOM      1  C   UNL     1       3.265   5.743  18.065  0.00  0.00    +0.000 A 
ATOM      2  C   UNL     1       4.665   5.914  17.820  0.00  0.00    +0.000 A 
ATOM      3  C   UNL     1       5.321   7.166  17.659  0.00  0.00    +0.000 A 
ATOM      4  C   UNL     1       6.651   7.256  17.262  0.00  0.00    +0.000 A 
ATOM      5  C   UNL     1       7.380   6.094  17.084  0.00  0.00    +0.000 A 
ATOM      6  C   UNL     1       6.779   4.860  17.344  0.00  0.00    +0.000 A 
ATOM      7  C   UNL     1       5.444   4.749  17.715  0.00  0.00    +0.000 A 
ATOM      8  N   UNL     1       4.962   3.521  17.930  0.00  0.00    +0.000 NA
ATOM      9  C   UNL     1       3.661   3.363  18.200  0.00  0.00    +0.000 A 
ATOM     10  C   UNL     1       3.205   2.064  18.388  0.00  0.00    +0.000 A 
ATOM     11  C   UNL     1       1.860   1.778  18.617  0.00  0.00    +0.000 A 
ATOM     12  C   UNL     1       0.940   2.814  18.665  0.00  0.00    +0.000 A 
ATOM     13  C   UNL     1       1.377   4.129  18.493  0.00  0.00    +0.000 A 
ATOM     14  C   UNL     1       2.747   4.432  18.270  0.00  0.00    +0.000 A 
ENDROOT
BRANCH   1  15
ATOM     15  N   UNL     1       2.369   6.843  17.990  0.00  0.00    +0.000 N 
ATOM     16  H   UNL     1       2.021   7.084  17.069  0.00  0.00    +0.000 HD
BRANCH  15  22
ATOM     17  C   UNL     1       1.655   9.094  18.550  0.00  0.00    +0.000 A 
ATOM     18  C   UNL     1       1.106  10.030  19.429  0.00  0.00    +0.000 A 
ATOM     19  C   UNL     1       0.895   9.683  20.763  0.00  0.00    +0.000 A 
ATOM     20  C   UNL     1       1.261   8.418  21.219  0.00  0.00    +0.000 A 
ATOM     21  C   UNL     1       1.822   7.495  20.334  0.00  0.00    +0.000 A 
ATOM     22  C   UNL     1       2.001   7.797  18.971  0.00  0.00    +0.000 A 
BRANCH  17  23
ATOM     23  O   UNL     1       1.858   9.429  17.233  0.00  0.00    +0.000 OA
ATOM     24  H   UNL     1       1.728  10.386  17.137  0.00  0.00    +0.000 HD
ENDBRANCH  17  23
BRANCH  21  25
ATOM     25  O   UNL     1       2.239   6.291  20.836  0.00  0.00    +0.000 OA
ATOM     26  H   UNL     1       2.776   5.843  20.164  0.00  0.00    +0.000 HD
ENDBRANCH  21  25
ENDBRANCH  15  22
ENDBRANCH   1  15
TORSDOF 4
ENDMDL
MODEL 5
REMARK VINA RESULT:      -7.8      0.700      1.869
REMARK  Name = 
REMARK  4 active torsions:
REMARK  status: ('A' for Active; 'I' for Inactive)
REMARK    1  A    between atoms: O_1  and  C_2
REMARK    2  A    between atoms: C_6  and  O_7
REMARK    3  A    between atoms: C_8  and  N_9
REMARK    4  A    between atoms: N_9  and  C_10
REMARK                            x       y       z     vdW  Elec       q    Type
REMARK                         _______ _______ _______ _____ _____    ______ ____
ROOT
ATOM      1  C   UNL     1       3.172   5.837  18.555  0.00  0.00    +0.000 A 
ATOM      2  C   UNL     1       2.362   4.735  18.976  0.00  0.00    +0.000 A 
ATOM      3  C   UNL     1       1.374   4.789  19.999  0.00  0.00    +0.000 A 
ATOM      4  C   UNL     1       0.738   3.645  20.472  0.00  0.00    +0.000 A 
ATOM      5  C   UNL     1       1.022   2.426  19.883  0.00  0.00    +0.000 A 
ATOM      6  C   UNL     1       1.909   2.374  18.805  0.00  0.00    +0.000 A 
ATOM      7  C   UNL     1       2.574   3.502  18.337  0.00  0.00    +0.000 A 
ATOM      8  N   UNL     1       3.411   3.343  17.307  0.00  0.00    +0.000 NA
ATOM      9  C   UNL     1       4.139   4.383  16.884  0.00  0.00    +0.000 A 
ATOM     10  C   UNL     1       5.013   4.159  15.828  0.00  0.00    +0.000 A 
ATOM     11  C   UNL     1       5.862   5.155  15.345  0.00  0.00    +0.000 A 
ATOM     12  C   UNL     1       5.837   6.413  15.926  0.00  0.00    +0.000 A 
ATOM     13  C   UNL     1       4.956   6.666  16.980  0.00  0.00    +0.000 A 
ATOM     14  C   UNL     1       4.080   5.662  17.472  0.00  0.00    +0.000 A 
ENDROOT
BRANCH   1  15
ATOM     15  N   UNL     1       3.169   7.065  19.271  0.00  0.00    +0.000 N 
ATOM     16  H   UNL     1       3.924   7.206  19.933  0.00  0.00    +0.000 HD
BRANCH  15  22
ATOM     17  C   UNL     1       1.835   8.776  18.186  0.00  0.00    +0.000 A 
ATOM     18  C   UNL     1       0.747   9.652  18.147  0.00  0.00    +0.000 A 
ATOM     19  C   UNL     1      -0.021   9.848  19.294  0.00  0.00    +0.000 A 
ATOM     20  C   UNL     1       0.319   9.198  20.479  0.00  0.00    +0.000 A 
ATOM     21  C   UNL     1       1.416   8.335  20.509  0.00  0.00    +0.000 A 
ATOM     22  C   UNL     1       2.181   8.076  19.356  0.00  0.00    +0.000 A 
BRANCH  17  23
ATOM     23  O   UNL     1       2.591   8.574  17.056  0.00  0.00    +0.000 OA
ATOM     24  H   UNL     1       3.122   7.771  17.182  0.00  0.00    +0.000 HD
ENDBRANCH  17  23
BRANCH  21  25
ATOM     25  O   UNL     1       1.763   7.774  21.709  0.00  0.00    +0.000 OA
ATOM     26  H   UNL     1       2.429   7.087  21.550  0.00  0.00    +0.000 HD
ENDBRANCH  21  25
ENDBRANCH  15  22
ENDBRANCH   1  15
TORSDOF 4
ENDMDL
MODEL 6
REMARK VINA RESULT:      -7.7      3.069      5.557
REMARK  Name = 
REMARK  4 active torsions:
REMARK  status: ('A' for Active; 'I' for Inactive)
REMARK    1  A    between atoms: O_1  and  C_2
REMARK    2  A    between atoms: C_6  and  O_7
REMARK    3  A    between atoms: C_8  and  N_9
REMARK    4  A    between atoms: N_9  and  C_10
REMARK                            x       y       z     vdW  Elec       q    Type
REMARK                         _______ _______ _______ _____ _____    ______ ____
ROOT
ATOM      1  C   UNL     1       5.619   3.966  16.365  0.00  0.00    +0.000 A 
ATOM      2  C   UNL     1       5.922   4.097  14.972  0.00  0.00    +0.000 A 
ATOM      3  C   UNL     1       5.280   3.380  13.924  0.00  0.00    +0.000 A 
ATOM      4  C   UNL     1       5.732   3.433  12.609  0.00  0.00    +0.000 A 
ATOM      5  C   UNL     1       6.795   4.261  12.296  0.00  0.00    +0.000 A 
ATOM      6  C   UNL     1       7.364   5.055  13.296  0.00  0.00    +0.000 A 
ATOM      7  C   UNL     1       6.944   4.994  14.620  0.00  0.00    +0.000 A 
ATOM      8  N   UNL     1       7.563   5.786  15.501  0.00  0.00    +0.000 NA
ATOM      9  C   UNL     1       7.251   5.694  16.800  0.00  0.00    +0.000 A 
ATOM     10  C   UNL     1       7.942   6.519  17.677  0.00  0.00    +0.000 A 
ATOM     11  C   UNL     1       7.741   6.467  19.056  0.00  0.00    +0.000 A 
ATOM     12  C   UNL     1       6.822   5.569  19.578  0.00  0.00    +0.000 A 
ATOM     13  C   UNL     1       6.106   4.740  18.713  0.00  0.00    +0.000 A 
ATOM     14  C   UNL     1       6.295   4.793  17.307  0.00  0.00    +0.000 A 
ENDROOT
BRANCH   1  15
ATOM     15  N   UNL     1       4.745   2.947  16.832  0.00  0.00    +0.000 N 
ATOM     16  H   UNL     1       4.874   2.023  16.437  0.00  0.00    +0.000 HD
BRANCH  15  22
ATOM     17  C   UNL     1       3.227   1.916  18.419  0.00  0.00    +0.000 A 
ATOM     18  C   UNL     1       2.212   1.983  19.377  0.00  0.00    +0.000 A 
ATOM     19  C   UNL     1       1.526   3.181  19.572  0.00  0.00    +0.000 A 
ATOM     20  C   UNL     1       1.832   4.294  18.790  0.00  0.00    +0.000 A 
ATOM     21  C   UNL     1       2.839   4.211  17.827  0.00  0.00    +0.000 A 
ATOM     22  C   UNL     1       3.585   3.032  17.640  0.00  0.00    +0.000 A 
BRANCH  17  23
ATOM     23  O   UNL     1       3.911   0.739  18.229  0.00  0.00    +0.000 OA
ATOM     24  H   UNL     1       4.803   0.839  18.600  0.00  0.00    +0.000 HD
ENDBRANCH  17  23
BRANCH  21  25
ATOM     25  O   UNL     1       3.059   5.301  17.028  0.00  0.00    +0.000 OA
ATOM     26  H   UNL     1       2.225   5.784  16.925  0.00  0.00    +0.000 HD
ENDBRANCH  21  25
ENDBRANCH  15  22
ENDBRANCH   1  15
TORSDOF 4
ENDMDL
MODEL 7
REMARK VINA RESULT:      -7.7      2.133      5.677
REMARK  Name = 
REMARK  4 active torsions:
REMARK  status: ('A' for Active; 'I' for Inactive)
REMARK    1  A    between atoms: O_1  and  C_2
REMARK    2  A    between atoms: C_6  and  O_7
REMARK    3  A    between atoms: C_8  and  N_9
REMARK    4  A    between atoms: N_9  and  C_10
REMARK                            x       y       z     vdW  Elec       q    Type
REMARK                         _______ _______ _______ _____ _____    ______ ____
ROOT
ATOM      1  C   UNL     1       3.445   5.499  18.781  0.00  0.00    +0.000 A 
ATOM      2  C   UNL     1       2.713   6.726  18.876  0.00  0.00    +0.000 A 
ATOM      3  C   UNL     1       2.849   7.830  17.988  0.00  0.00    +0.000 A 
ATOM      4  C   UNL     1       2.229   9.052  18.231  0.00  0.00    +0.000 A 
ATOM      5  C   UNL     1       1.400   9.178  19.331  0.00  0.00    +0.000 A 
ATOM      6  C   UNL     1       1.172   8.070  20.150  0.00  0.00    +0.000 A 
ATOM      7  C   UNL     1       1.804   6.849  19.939  0.00  0.00    +0.000 A 
ATOM      8  N   UNL     1       1.526   5.854  20.787  0.00  0.00    +0.000 NA
ATOM      9  C   UNL     1       2.180   4.692  20.675  0.00  0.00    +0.000 A 
ATOM     10  C   UNL     1       1.874   3.700  21.597  0.00  0.00    +0.000 A 
ATOM     11  C   UNL     1       2.534   2.472  21.610  0.00  0.00    +0.000 A 
ATOM     12  C   UNL     1       3.526   2.220  20.674  0.00  0.00    +0.000 A 
ATOM     13  C   UNL     1       3.840   3.197  19.728  0.00  0.00    +0.000 A 
ATOM     14  C   UNL     1       3.166   4.447  19.699  0.00  0.00    +0.000 A 
ENDROOT
BRANCH   1  15
ATOM     15  N   UNL     1       4.522   5.358  17.864  0.00  0.00    +0.000 N 
ATOM     16  H   UNL     1       4.419   4.646  17.149  0.00  0.00    +0.000 HD
BRANCH  15  22
ATOM     17  C   UNL     1       6.155   6.854  16.873  0.00  0.00    +0.000 A 
ATOM     18  C   UNL     1       7.339   7.594  16.922  0.00  0.00    +0.000 A 
ATOM     19  C   UNL     1       8.221   7.414  17.987  0.00  0.00    +0.000 A 
ATOM     20  C   UNL     1       7.935   6.476  18.977  0.00  0.00    +0.000 A 
ATOM     21  C   UNL     1       6.755   5.733  18.910  0.00  0.00    +0.000 A 
ATOM     22  C   UNL     1       5.820   5.926  17.877  0.00  0.00    +0.000 A 
BRANCH  17  23
ATOM     23  O   UNL     1       5.279   7.033  15.829  0.00  0.00    +0.000 OA
ATOM     24  H   UNL     1       4.374   7.008  16.181  0.00  0.00    +0.000 HD
ENDBRANCH  17  23
BRANCH  21  25
ATOM     25  O   UNL     1       6.546   4.768  19.859  0.00  0.00    +0.000 OA
ATOM     26  H   UNL     1       5.924   5.111  20.520  0.00  0.00    +0.000 HD
ENDBRANCH  21  25
ENDBRANCH  15  22
ENDBRANCH   1  15
TORSDOF 4
ENDMDL
MODEL 8
REMARK VINA RESULT:      -7.7      1.337      4.340
REMARK  Name = 
REMARK  4 active torsions:
REMARK  status: ('A' for Active; 'I' for Inactive)
REMARK    1  A    between atoms: O_1  and  C_2
REMARK    2  A    between atoms: C_6  and  O_7
REMARK    3  A    between atoms: C_8  and  N_9
REMARK    4  A    between atoms: N_9  and  C_10
REMARK                            x       y       z     vdW  Elec       q    Type
REMARK                         _______ _______ _______ _____ _____    ______ ____
ROOT
ATOM      1  C   UNL     1       3.194   5.802  18.888  0.00  0.00    +0.000 A 
ATOM      2  C   UNL     1       4.533   5.891  18.392  0.00  0.00    +0.000 A 
ATOM      3  C   UNL     1       5.067   6.996  17.671  0.00  0.00    +0.000 A 
ATOM      4  C   UNL     1       6.324   6.950  17.076  0.00  0.00    +0.000 A 
ATOM      5  C   UNL     1       7.109   5.824  17.248  0.00  0.00    +0.000 A 
ATOM      6  C   UNL     1       6.641   4.776  18.044  0.00  0.00    +0.000 A 
ATOM      7  C   UNL     1       5.377   4.792  18.624  0.00  0.00    +0.000 A 
ATOM      8  N   UNL     1       5.020   3.734  19.358  0.00  0.00    +0.000 NA
ATOM      9  C   UNL     1       3.781   3.669  19.859  0.00  0.00    +0.000 A 
ATOM     10  C   UNL     1       3.452   2.536  20.592  0.00  0.00    +0.000 A 
ATOM     11  C   UNL     1       2.173   2.335  21.110  0.00  0.00    +0.000 A 
ATOM     12  C   UNL     1       1.192   3.291  20.896  0.00  0.00    +0.000 A 
ATOM     13  C   UNL     1       1.504   4.445  20.174  0.00  0.00    +0.000 A 
ATOM     14  C   UNL     1       2.806   4.664  19.652  0.00  0.00    +0.000 A 
ENDROOT
BRANCH   1  15
ATOM     15  N   UNL     1       2.216   6.771  18.535  0.00  0.00    +0.000 N 
ATOM     16  H   UNL     1       1.735   6.630  17.653  0.00  0.00    +0.000 HD
BRANCH  15  22
ATOM     17  C   UNL     1       1.839   9.155  18.292  0.00  0.00    +0.000 A 
ATOM     18  C   UNL     1       1.361  10.382  18.760  0.00  0.00    +0.000 A 
ATOM     19  C   UNL     1       0.943  10.499  20.085  0.00  0.00    +0.000 A 
ATOM     20  C   UNL     1       1.033   9.404  20.943  0.00  0.00    +0.000 A 
ATOM     21  C   UNL     1       1.524   8.187  20.467  0.00  0.00    +0.000 A 
ATOM     22  C   UNL     1       1.907   8.022  19.123  0.00  0.00    +0.000 A 
BRANCH  17  23
ATOM     23  O   UNL     1       2.246   9.034  16.985  0.00  0.00    +0.000 OA
ATOM     24  H   UNL     1       2.748   8.207  16.896  0.00  0.00    +0.000 HD
ENDBRANCH  17  23
BRANCH  21  25
ATOM     25  O   UNL     1       1.668   7.157  21.358  0.00  0.00    +0.000 OA
ATOM     26  H   UNL     1       2.603   7.089  21.606  0.00  0.00    +0.000 HD
ENDBRANCH  21  25
ENDBRANCH  15  22
ENDBRANCH   1  15
TORSDOF 4
ENDMDL
MODEL 9
REMARK VINA RESULT:      -7.7      2.999      5.265
REMARK  Name = 
REMARK  4 active torsions:
REMARK  status: ('A' for Active; 'I' for Inactive)
REMARK    1  A    between atoms: O_1  and  C_2
REMARK    2  A    between atoms: C_6  and  O_7
REMARK    3  A    between atoms: C_8  and  N_9
REMARK    4  A    between atoms: N_9  and  C_10
REMARK                            x       y       z     vdW  Elec       q    Type
REMARK                         _______ _______ _______ _____ _____    ______ ____
ROOT
ATOM      1  C   UNL     1       5.079   4.136  16.179  0.00  0.00    +0.000 A 
ATOM      2  C   UNL     1       5.869   4.699  17.231  0.00  0.00    +0.000 A 
ATOM      3  C   UNL     1       5.503   4.721  18.607  0.00  0.00    +0.000 A 
ATOM      4  C   UNL     1       6.239   5.427  19.554  0.00  0.00    +0.000 A 
ATOM      5  C   UNL     1       7.399   6.070  19.161  0.00  0.00    +0.000 A 
ATOM      6  C   UNL     1       7.828   5.966  17.836  0.00  0.00    +0.000 A 
ATOM      7  C   UNL     1       7.092   5.288  16.870  0.00  0.00    +0.000 A 
ATOM      8  N   UNL     1       7.584   5.256  15.627  0.00  0.00    +0.000 NA
ATOM      9  C   UNL     1       6.865   4.693  14.649  0.00  0.00    +0.000 A 
ATOM     10  C   UNL     1       7.408   4.711  13.372  0.00  0.00    +0.000 A 
ATOM     11  C   UNL     1       6.722   4.206  12.268  0.00  0.00    +0.000 A 
ATOM     12  C   UNL     1       5.458   3.662  12.440  0.00  0.00    +0.000 A 
ATOM     13  C   UNL     1       4.897   3.621  13.718  0.00  0.00    +0.000 A 
ATOM     14  C   UNL     1       5.593   4.123  14.851  0.00  0.00    +0.000 A 
ENDROOT
BRANCH   1  15
ATOM     15  N   UNL     1       3.747   3.698  16.416  0.00  0.00    +0.000 N 
ATOM     16  H   UNL     1       3.109   3.739  15.629  0.00  0.00    +0.000 HD
BRANCH  15  22
ATOM     17  C   UNL     1       2.195   4.307  18.179  0.00  0.00    +0.000 A 
ATOM     18  C   UNL     1       1.373   3.987  19.262  0.00  0.00    +0.000 A 
ATOM     19  C   UNL     1       1.436   2.712  19.823  0.00  0.00    +0.000 A 
ATOM     20  C   UNL     1       2.338   1.775  19.323  0.00  0.00    +0.000 A 
ATOM     21  C   UNL     1       3.164   2.111  18.249  0.00  0.00    +0.000 A 
ATOM     22  C   UNL     1       3.090   3.371  17.628  0.00  0.00    +0.000 A 
BRANCH  17  23
ATOM     23  O   UNL     1       2.132   5.560  17.618  0.00  0.00    +0.000 OA
ATOM     24  H   UNL     1       2.832   5.632  16.950  0.00  0.00    +0.000 HD
ENDBRANCH  17  23
BRANCH  21  25
ATOM     25  O   UNL     1       4.090   1.190  17.835  0.00  0.00    +0.000 OA
ATOM     26  H   UNL     1       4.282   1.341  16.897  0.00  0.00    +0.000 HD
ENDBRANCH  21  25
ENDBRANCH  15  22
ENDBRANCH   1  15
TORSDOF 4
ENDMDL
