MODEL 1
REMARK VINA RESULT:      -7.8      0.000      0.000
REMARK  Name = 
REMARK  5 active torsions:
REMARK  status: ('A' for Active; 'I' for Inactive)
REMARK    1  A    between atoms: C_1  and  N_2
REMARK    2  A    between atoms: C_6  and  C_8
REMARK    3  A    between atoms: C_11  and  N_12
REMARK    4  A    between atoms: N_12  and  S_13
REMARK    5  A    between atoms: S_13  and  C_16
REMARK                            x       y       z     vdW  Elec       q    Type
REMARK                         _______ _______ _______ _____ _____    ______ ____
ROOT
ATOM      1  C   UNL     1       0.945   9.421  18.812  0.00  0.00    +0.000 A 
ATOM      2  C   UNL     1       1.824   8.861  17.878  0.00  0.00    +0.000 A 
ATOM      3  C   UNL     1       2.583   7.732  18.200  0.00  0.00    +0.000 A 
ATOM      4  C   UNL     1       2.529   7.211  19.489  0.00  0.00    +0.000 A 
ATOM      5  C   UNL     1       1.715   7.807  20.454  0.00  0.00    +0.000 A 
ATOM      6  C   UNL     1       0.922   8.910  20.117  0.00  0.00    +0.000 A 
ENDROOT
BRANCH   1  12
ATOM      7  C   UNL     1       1.650  15.640  20.404  0.00  0.00    +0.000 C 
ATOM      8  N   UNL     1       1.414  14.568  19.442  0.00  0.00    +0.000 NA
ATOM      9  C   UNL     1      -0.021  14.201  19.393  0.00  0.00    +0.000 C 
ATOM     10  C   UNL     1      -0.309  13.026  18.427  0.00  0.00    +0.000 C 
ATOM     11  N   UNL     1       0.581  11.888  18.674  0.00  0.00    +0.000 N 
ATOM     12  C   UNL     1       0.084  10.595  18.488  0.00  0.00    +0.000 C 
ATOM     13  O   UNL     1      -1.058  10.378  18.084  0.00  0.00    +0.000 OA
ATOM     14  C   UNL     1       1.998  12.274  18.718  0.00  0.00    +0.000 C 
ATOM     15  C   UNL     1       2.221  13.378  19.768  0.00  0.00    +0.000 C 
ENDBRANCH   1  12
BRANCH   4  16
ATOM     16  N   UNL     1       3.323   6.091  19.850  0.00  0.00    +0.000 N 
ATOM     17  H   UNL     1       3.521   5.935  20.837  0.00  0.00    +0.000 HD
BRANCH  16  18
ATOM     18  S   UNL     1       3.093   4.634  19.020  0.00  0.00    +0.000 S 
ATOM     19  O   UNL     1       3.116   3.596  20.031  0.00  0.00    +0.000 OA
ATOM     20  O   UNL     1       1.970   4.766  18.117  0.00  0.00    +0.000 OA
BRANCH  18  21
ATOM     21  C   UNL     1       4.586   4.513  18.072  0.00  0.00    +0.000 A 
ATOM     22  C   UNL     1       5.815   4.817  18.661  0.00  0.00    +0.000 A 
ATOM     23  C   UNL     1       6.966   4.818  17.873  0.00  0.00    +0.000 A 
ATOM     24  C   UNL     1       6.882   4.512  16.511  0.00  0.00    +0.000 A 
ATOM     25  C   UNL     1       5.656   4.169  15.940  0.00  0.00    +0.000 A 
ATOM     26  C   UNL     1       4.505   4.152  16.724  0.00  0.00    +0.000 A 
ENDBRANCH  18  21
ENDBRANCH  16  18
ENDBRANCH   4  16
TORSDOF 4
ENDMDL
MODEL 2
REMARK VINA RESULT:      -7.6      0.183      1.380
REMARK  Name = 
REMARK  5 active torsions:
REMARK  status: ('A' for Active; 'I' for Inactive)
REMARK    1  A    between atoms: C_1  and  N_2
REMARK    2  A    between atoms: C_6  and  C_8
REMARK    3  A    between atoms: C_11  and  N_12
REMARK    4  A    between atoms: N_12  and  S_13
REMARK    5  A    between atoms: S_13  and  C_16
REMARK                            x       y       z     vdW  Elec       q    Type
REMARK                         _______ _______ _______ _____ _____    ______ ____
ROOT
ATOM      1  C   UNL     1       0.873   9.545  18.912  0.00  0.00    +0.000 A 
ATOM      2  C   UNL     1       0.806   8.976  20.190  0.00  0.00    +0.000 A 
ATOM      3  C   UNL     1       1.619   7.893  20.532  0.00  0.00    +0.000 A 
ATOM      4  C   UNL     1       2.443   7.318  19.568  0.00  0.00    +0.000 A 
ATOM      5  C   UNL     1       2.462   7.827  18.269  0.00  0.00    +0.000 A 
ATOM      6  C   UNL     1       1.681   8.939  17.939  0.00  0.00    +0.000 A 
ENDROOT
BRANCH   1  12
ATOM      7  C   UNL     1       1.668  15.776  20.410  0.00  0.00    +0.000 C 
ATOM      8  N   UNL     1       1.446  14.690  19.460  0.00  0.00    +0.000 NA
ATOM      9  C   UNL     1       0.006  14.357  19.356  0.00  0.00    +0.000 C 
ATOM     10  C   UNL     1      -0.270  13.170  18.401  0.00  0.00    +0.000 C 
ATOM     11  N   UNL     1       0.579  12.016  18.710  0.00  0.00    +0.000 N 
ATOM     12  C   UNL     1       0.057  10.732  18.527  0.00  0.00    +0.000 C 
ATOM     13  O   UNL     1      -1.071  10.535  18.078  0.00  0.00    +0.000 OA
ATOM     14  C   UNL     1       2.002  12.368  18.808  0.00  0.00    +0.000 C 
ATOM     15  C   UNL     1       2.208  13.488  19.844  0.00  0.00    +0.000 C 
ENDBRANCH   1  12
BRANCH   4  16
ATOM     16  N   UNL     1       3.246   6.191  19.883  0.00  0.00    +0.000 N 
ATOM     17  H   UNL     1       3.416   5.977  20.864  0.00  0.00    +0.000 HD
BRANCH  16  18
ATOM     18  S   UNL     1       3.069   4.786  18.957  0.00  0.00    +0.000 S 
ATOM     19  O   UNL     1       3.084   3.686  19.900  0.00  0.00    +0.000 OA
ATOM     20  O   UNL     1       1.971   4.955  18.030  0.00  0.00    +0.000 OA
BRANCH  18  21
ATOM     21  C   UNL     1       4.592   4.753  18.049  0.00  0.00    +0.000 A 
ATOM     22  C   UNL     1       4.612   4.291  16.732  0.00  0.00    +0.000 A 
ATOM     23  C   UNL     1       5.834   4.173  16.070  0.00  0.00    +0.000 A 
ATOM     24  C   UNL     1       7.020   4.523  16.722  0.00  0.00    +0.000 A 
ATOM     25  C   UNL     1       6.987   5.023  18.024  0.00  0.00    +0.000 A 
ATOM     26  C   UNL     1       5.769   5.156  18.687  0.00  0.00    +0.000 A 
ENDBRANCH  18  21
ENDBRANCH  16  18
ENDBRANCH   4  16
TORSDOF 4
ENDMDL
MODEL 3
REMARK VINA RESULT:      -7.5      1.962      2.766
REMARK  Name = 
REMARK  5 active torsions:
REMARK  status: ('A' for Active; 'I' for Inactive)
REMARK    1  A    between atoms: C_1  and  N_2
REMARK    2  A    between atoms: C_6  and  C_8
REMARK    3  A    between atoms: C_11  and  N_12
REMARK    4  A    between atoms: N_12  and  S_13
REMARK    5  A    between atoms: S_13  and  C_16
REMARK                            x       y       z     vdW  Elec       q    Type
REMARK                         _______ _______ _______ _____ _____    ______ ____
ROOT
ATOM      1  C   UNL     1       1.670   7.610  20.316  0.00  0.00    +0.000 A 
ATOM      2  C   UNL     1       2.323   7.697  19.080  0.00  0.00    +0.000 A 
ATOM      3  C   UNL     1       2.556   6.552  18.313  0.00  0.00    +0.000 A 
ATOM      4  C   UNL     1       2.213   5.302  18.821  0.00  0.00    +0.000 A 
ATOM      5  C   UNL     1       1.631   5.194  20.086  0.00  0.00    +0.000 A 
ATOM      6  C   UNL     1       1.358   6.345  20.832  0.00  0.00    +0.000 A 
ENDROOT
BRANCH   1  12
ATOM      7  C   UNL     1      -0.367  13.457  18.481  0.00  0.00    +0.000 C 
ATOM      8  N   UNL     1      -0.451  12.257  19.307  0.00  0.00    +0.000 NA
ATOM      9  C   UNL     1       0.437  12.360  20.489  0.00  0.00    +0.000 C 
ATOM     10  C   UNL     1       0.424  11.083  21.365  0.00  0.00    +0.000 C 
ATOM     11  N   UNL     1       0.647   9.874  20.566  0.00  0.00    +0.000 N 
ATOM     12  C   UNL     1       1.360   8.816  21.137  0.00  0.00    +0.000 C 
ATOM     13  O   UNL     1       1.769   8.844  22.297  0.00  0.00    +0.000 OA
ATOM     14  C   UNL     1      -0.242   9.792  19.400  0.00  0.00    +0.000 C 
ATOM     15  C   UNL     1      -0.104  11.054  18.529  0.00  0.00    +0.000 C 
ENDBRANCH   1  12
BRANCH   4  16
ATOM     16  N   UNL     1       2.478   4.123  18.078  0.00  0.00    +0.000 N 
ATOM     17  H   UNL     1       2.262   4.119  17.082  0.00  0.00    +0.000 HD
BRANCH  16  18
ATOM     18  S   UNL     1       3.890   3.253  18.415  0.00  0.00    +0.000 S 
ATOM     19  O   UNL     1       4.222   3.558  19.792  0.00  0.00    +0.000 OA
ATOM     20  O   UNL     1       3.730   1.884  17.976  0.00  0.00    +0.000 OA
BRANCH  18  21
ATOM     21  C   UNL     1       5.074   4.060  17.371  0.00  0.00    +0.000 A 
ATOM     22  C   UNL     1       4.841   4.165  15.999  0.00  0.00    +0.000 A 
ATOM     23  C   UNL     1       5.830   4.709  15.180  0.00  0.00    +0.000 A 
ATOM     24  C   UNL     1       7.036   5.148  15.734  0.00  0.00    +0.000 A 
ATOM     25  C   UNL     1       7.244   5.077  17.112  0.00  0.00    +0.000 A 
ATOM     26  C   UNL     1       6.256   4.548  17.939  0.00  0.00    +0.000 A 
ENDBRANCH  18  21
ENDBRANCH  16  18
ENDBRANCH   4  16
TORSDOF 4
ENDMDL
MODEL 4
REMARK VINA RESULT:      -7.5      2.841      4.013
REMARK  Name = 
REMARK  5 active torsions:
REMARK  status: ('A' for Active; 'I' for Inactive)
REMARK    1  A    between atoms: C_1  and  N_2
REMARK    2  A    between atoms: C_6  and  C_8
REMARK    3  A    between atoms: C_11  and  N_12
REMARK    4  A    between atoms: N_12  and  S_13
REMARK    5  A    between atoms: S_13  and  C_16
REMARK                            x       y       z     vdW  Elec       q    Type
REMARK                         _______ _______ _______ _____ _____    ______ ____
ROOT
ATOM      1  C   UNL     1       1.260   9.290  19.180  0.00  0.00    +0.000 A 
ATOM      2  C   UNL     1       1.848   9.157  17.915  0.00  0.00    +0.000 A 
ATOM      3  C   UNL     1       2.551   7.999  17.573  0.00  0.00    +0.000 A 
ATOM      4  C   UNL     1       2.743   7.003  18.526  0.00  0.00    +0.000 A 
ATOM      5  C   UNL     1       2.228   7.156  19.815  0.00  0.00    +0.000 A 
ATOM      6  C   UNL     1       1.487   8.297  20.143  0.00  0.00    +0.000 A 
ENDROOT
BRANCH   1  12
ATOM      7  C   UNL     1      -4.305  11.498  16.762  0.00  0.00    +0.000 C 
ATOM      8  N   UNL     1      -3.441  11.102  17.870  0.00  0.00    +0.000 NA
ATOM      9  C   UNL     1      -2.575  12.226  18.299  0.00  0.00    +0.000 C 
ATOM     10  C   UNL     1      -1.599  11.834  19.434  0.00  0.00    +0.000 C 
ATOM     11  N   UNL     1      -0.858  10.610  19.115  0.00  0.00    +0.000 N 
ATOM     12  C   UNL     1       0.461  10.489  19.562  0.00  0.00    +0.000 C 
ATOM     13  O   UNL     1       1.008  11.352  20.248  0.00  0.00    +0.000 OA
ATOM     14  C   UNL     1      -1.734   9.509  18.693  0.00  0.00    +0.000 C 
ATOM     15  C   UNL     1      -2.606   9.945  17.500  0.00  0.00    +0.000 C 
ENDBRANCH   1  12
BRANCH   4  16
ATOM     16  N   UNL     1       3.489   5.837  18.213  0.00  0.00    +0.000 N 
ATOM     17  H   UNL     1       4.304   5.616  18.783  0.00  0.00    +0.000 HD
BRANCH  16  18
ATOM     18  S   UNL     1       2.654   4.441  17.747  0.00  0.00    +0.000 S 
ATOM     19  O   UNL     1       1.345   4.889  17.317  0.00  0.00    +0.000 OA
ATOM     20  O   UNL     1       3.492   3.647  16.875  0.00  0.00    +0.000 OA
BRANCH  18  21
ATOM     21  C   UNL     1       2.465   3.595  19.294  0.00  0.00    +0.000 A 
ATOM     22  C   UNL     1       1.225   3.578  19.935  0.00  0.00    +0.000 A 
ATOM     23  C   UNL     1       1.121   2.999  21.200  0.00  0.00    +0.000 A 
ATOM     24  C   UNL     1       2.248   2.438  21.809  0.00  0.00    +0.000 A 
ATOM     25  C   UNL     1       3.474   2.423  21.143  0.00  0.00    +0.000 A 
ATOM     26  C   UNL     1       3.583   2.987  19.874  0.00  0.00    +0.000 A 
ENDBRANCH  18  21
ENDBRANCH  16  18
ENDBRANCH   4  16
TORSDOF 4
ENDMDL
MODEL 5
REMARK VINA RESULT:      -7.5      2.883      8.709
REMARK  Name = 
REMARK  5 active torsions:
REMARK  status: ('A' for Active; 'I' for Inactive)
REMARK    1  A    between atoms: C_1  and  N_2
REMARK    2  A    between atoms: C_6  and  C_8
REMARK    3  A    between atoms: C_11  and  N_12
REMARK    4  A    between atoms: N_12  and  S_13
REMARK    5  A    between atoms: S_13  and  C_16
REMARK                            x       y       z     vdW  Elec       q    Type
REMARK                         _______ _______ _______ _____ _____    ______ ____
ROOT
ATOM      1  C   UNL     1       2.305   7.080  18.837  0.00  0.00    +0.000 A 
ATOM      2  C   UNL     1       2.204   7.975  17.764  0.00  0.00    +0.000 A 
ATOM      3  C   UNL     1       1.768   9.287  17.968  0.00  0.00    +0.000 A 
ATOM      4  C   UNL     1       1.348   9.684  19.234  0.00  0.00    +0.000 A 
ATOM      5  C   UNL     1       1.370   8.779  20.297  0.00  0.00    +0.000 A 
ATOM      6  C   UNL     1       1.849   7.480  20.101  0.00  0.00    +0.000 A 
ENDROOT
BRANCH   1  12
ATOM      7  C   UNL     1       6.733   4.766  14.746  0.00  0.00    +0.000 C 
ATOM      8  N   UNL     1       6.158   4.926  16.078  0.00  0.00    +0.000 NA
ATOM      9  C   UNL     1       5.100   3.919  16.327  0.00  0.00    +0.000 C 
ATOM     10  C   UNL     1       4.422   4.087  17.708  0.00  0.00    +0.000 C 
ATOM     11  N   UNL     1       3.984   5.468  17.934  0.00  0.00    +0.000 N 
ATOM     12  C   UNL     1       2.813   5.689  18.666  0.00  0.00    +0.000 C 
ATOM     13  O   UNL     1       2.162   4.772  19.163  0.00  0.00    +0.000 OA
ATOM     14  C   UNL     1       5.047   6.449  17.682  0.00  0.00    +0.000 C 
ATOM     15  C   UNL     1       5.606   6.281  16.257  0.00  0.00    +0.000 C 
ENDBRANCH   1  12
BRANCH   4  16
ATOM     16  N   UNL     1       0.862  11.000  19.454  0.00  0.00    +0.000 N 
ATOM     17  H   UNL     1       1.474  11.784  19.238  0.00  0.00    +0.000 HD
BRANCH  16  18
ATOM     18  S   UNL     1      -0.752  11.341  19.075  0.00  0.00    +0.000 S 
ATOM     19  O   UNL     1      -0.722  12.545  18.269  0.00  0.00    +0.000 OA
ATOM     20  O   UNL     1      -1.398  10.140  18.593  0.00  0.00    +0.000 OA
BRANCH  18  21
ATOM     21  C   UNL     1      -1.419  11.759  20.664  0.00  0.00    +0.000 A 
ATOM     22  C   UNL     1      -0.793  11.307  21.827  0.00  0.00    +0.000 A 
ATOM     23  C   UNL     1      -1.391  11.557  23.062  0.00  0.00    +0.000 A 
ATOM     24  C   UNL     1      -2.598  12.258  23.127  0.00  0.00    +0.000 A 
ATOM     25  C   UNL     1      -3.196  12.742  21.963  0.00  0.00    +0.000 A 
ATOM     26  C   UNL     1      -2.598  12.509  20.727  0.00  0.00    +0.000 A 
ENDBRANCH  18  21
ENDBRANCH  16  18
ENDBRANCH   4  16
TORSDOF 4
ENDMDL
MODEL 6
REMARK VINA RESULT:      -7.5      3.407      9.201
REMARK  Name = 
REMARK  5 active torsions:
REMARK  status: ('A' for Active; 'I' for Inactive)
REMARK    1  A    between atoms: C_1  and  N_2
REMARK    2  A    between atoms: C_6  and  C_8
REMARK    3  A    between atoms: C_11  and  N_12
REMARK    4  A    between atoms: N_12  and  S_13
REMARK    5  A    between atoms: S_13  and  C_16
REMARK                            x       y       z     vdW  Elec       q    Type
REMARK                         _______ _______ _______ _____ _____    ______ ____
ROOT
ATOM      1  C   UNL     1       2.440   7.742  18.570  0.00  0.00    +0.000 A 
ATOM      2  C   UNL     1       2.146   7.499  19.918  0.00  0.00    +0.000 A 
ATOM      3  C   UNL     1       1.157   8.234  20.577  0.00  0.00    +0.000 A 
ATOM      4  C   UNL     1       0.517   9.277  19.913  0.00  0.00    +0.000 A 
ATOM      5  C   UNL     1       0.856   9.582  18.593  0.00  0.00    +0.000 A 
ATOM      6  C   UNL     1       1.814   8.816  17.921  0.00  0.00    +0.000 A 
ENDROOT
BRANCH   1  12
ATOM      7  C   UNL     1       3.461   1.367  18.505  0.00  0.00    +0.000 C 
ATOM      8  N   UNL     1       3.253   2.652  17.845  0.00  0.00    +0.000 NA
ATOM      9  C   UNL     1       4.530   3.387  17.694  0.00  0.00    +0.000 C 
ATOM     10  C   UNL     1       4.349   4.783  17.050  0.00  0.00    +0.000 C 
ATOM     11  N   UNL     1       3.300   5.558  17.720  0.00  0.00    +0.000 N 
ATOM     12  C   UNL     1       3.452   6.944  17.821  0.00  0.00    +0.000 C 
ATOM     13  O   UNL     1       4.410   7.541  17.332  0.00  0.00    +0.000 OA
ATOM     14  C   UNL     1       2.043   4.812  17.859  0.00  0.00    +0.000 C 
ATOM     15  C   UNL     1       2.288   3.480  18.592  0.00  0.00    +0.000 C 
ENDBRANCH   1  12
BRANCH   4  16
ATOM     16  N   UNL     1      -0.460  10.065  20.576  0.00  0.00    +0.000 N 
ATOM     17  H   UNL     1      -1.357   9.636  20.798  0.00  0.00    +0.000 HD
BRANCH  16  18
ATOM     18  S   UNL     1       0.045  11.127  21.793  0.00  0.00    +0.000 S 
ATOM     19  O   UNL     1       0.307  10.302  22.954  0.00  0.00    +0.000 OA
ATOM     20  O   UNL     1       1.060  12.014  21.267  0.00  0.00    +0.000 OA
BRANCH  18  21
ATOM     21  C   UNL     1      -1.433  12.058  22.101  0.00  0.00    +0.000 A 
ATOM     22  C   UNL     1      -2.188  11.812  23.249  0.00  0.00    +0.000 A 
ATOM     23  C   UNL     1      -3.401  12.479  23.422  0.00  0.00    +0.000 A 
ATOM     24  C   UNL     1      -3.845  13.386  22.455  0.00  0.00    +0.000 A 
ATOM     25  C   UNL     1      -3.064  13.656  21.331  0.00  0.00    +0.000 A 
ATOM     26  C   UNL     1      -1.846  13.004  21.158  0.00  0.00    +0.000 A 
ENDBRANCH  18  21
ENDBRANCH  16  18
ENDBRANCH   4  16
TORSDOF 4
ENDMDL
MODEL 7
REMARK VINA RESULT:      -7.5      1.950      2.575
REMARK  Name = 
REMARK  5 active torsions:
REMARK  status: ('A' for Active; 'I' for Inactive)
REMARK    1  A    between atoms: C_1  and  N_2
REMARK    2  A    between atoms: C_6  and  C_8
REMARK    3  A    between atoms: C_11  and  N_12
REMARK    4  A    between atoms: N_12  and  S_13
REMARK    5  A    between atoms: S_13  and  C_16
REMARK                            x       y       z     vdW  Elec       q    Type
REMARK                         _______ _______ _______ _____ _____    ______ ____
ROOT
ATOM      1  C   UNL     1       1.679   7.693  20.314  0.00  0.00    +0.000 A 
ATOM      2  C   UNL     1       2.284   7.814  19.057  0.00  0.00    +0.000 A 
ATOM      3  C   UNL     1       2.547   6.683  18.279  0.00  0.00    +0.000 A 
ATOM      4  C   UNL     1       2.283   5.417  18.795  0.00  0.00    +0.000 A 
ATOM      5  C   UNL     1       1.752   5.279  20.078  0.00  0.00    +0.000 A 
ATOM      6  C   UNL     1       1.448   6.414  20.837  0.00  0.00    +0.000 A 
ENDROOT
BRANCH   1  12
ATOM      7  C   UNL     1      -0.355  13.558  18.534  0.00  0.00    +0.000 C 
ATOM      8  N   UNL     1      -0.451  12.342  19.336  0.00  0.00    +0.000 NA
ATOM      9  C   UNL     1       0.405  12.430  20.543  0.00  0.00    +0.000 C 
ATOM     10  C   UNL     1       0.379  11.137  21.394  0.00  0.00    +0.000 C 
ATOM     11  N   UNL     1       0.633   9.945  20.579  0.00  0.00    +0.000 N 
ATOM     12  C   UNL     1       1.338   8.881  21.149  0.00  0.00    +0.000 C 
ATOM     13  O   UNL     1       1.716   8.890  22.319  0.00  0.00    +0.000 OA
ATOM     14  C   UNL     1      -0.225   9.878  19.389  0.00  0.00    +0.000 C 
ATOM     15  C   UNL     1      -0.074  11.156  18.545  0.00  0.00    +0.000 C 
ENDBRANCH   1  12
BRANCH   4  16
ATOM     16  N   UNL     1       2.581   4.253  18.039  0.00  0.00    +0.000 N 
ATOM     17  H   UNL     1       2.446   4.283  17.030  0.00  0.00    +0.000 HD
BRANCH  16  18
ATOM     18  S   UNL     1       3.942   3.339  18.462  0.00  0.00    +0.000 S 
ATOM     19  O   UNL     1       3.939   3.274  19.909  0.00  0.00    +0.000 OA
ATOM     20  O   UNL     1       3.978   2.133  17.664  0.00  0.00    +0.000 OA
BRANCH  18  21
ATOM     21  C   UNL     1       5.267   4.404  17.961  0.00  0.00    +0.000 A 
ATOM     22  C   UNL     1       6.036   5.064  18.922  0.00  0.00    +0.000 A 
ATOM     23  C   UNL     1       7.004   5.978  18.507  0.00  0.00    +0.000 A 
ATOM     24  C   UNL     1       7.202   6.220  17.145  0.00  0.00    +0.000 A 
ATOM     25  C   UNL     1       6.458   5.525  16.191  0.00  0.00    +0.000 A 
ATOM     26  C   UNL     1       5.499   4.601  16.596  0.00  0.00    +0.000 A 
ENDBRANCH  18  21
ENDBRANCH  16  18
ENDBRANCH   4  16
TORSDOF 4
ENDMDL
MODEL 8
REMARK VINA RESULT:      -7.4      2.883      4.058
REMARK  Name = 
REMARK  5 active torsions:
REMARK  status: ('A' for Active; 'I' for Inactive)
REMARK    1  A    between atoms: C_1  and  N_2
REMARK    2  A    between atoms: C_6  and  C_8
REMARK    3  A    between atoms: C_11  and  N_12
REMARK    4  A    between atoms: N_12  and  S_13
REMARK    5  A    between atoms: S_13  and  C_16
REMARK                            x       y       z     vdW  Elec       q    Type
REMARK                         _______ _______ _______ _____ _____    ______ ____
ROOT
ATOM      1  C   UNL     1       2.802   6.842  19.109  0.00  0.00    +0.000 A 
ATOM      2  C   UNL     1       3.268   7.258  17.856  0.00  0.00    +0.000 A 
ATOM      3  C   UNL     1       4.115   6.441  17.102  0.00  0.00    +0.000 A 
ATOM      4  C   UNL     1       4.570   5.240  17.639  0.00  0.00    +0.000 A 
ATOM      5  C   UNL     1       4.174   4.849  18.919  0.00  0.00    +0.000 A 
ATOM      6  C   UNL     1       3.291   5.647  19.654  0.00  0.00    +0.000 A 
ENDROOT
BRANCH   1  12
ATOM      7  C   UNL     1       1.452  13.146  18.748  0.00  0.00    +0.000 C 
ATOM      8  N   UNL     1       1.064  11.740  18.810  0.00  0.00    +0.000 NA
ATOM      9  C   UNL     1       0.987  11.269  20.212  0.00  0.00    +0.000 C 
ATOM     10  C   UNL     1       0.636   9.765  20.323  0.00  0.00    +0.000 C 
ATOM     11  N   UNL     1       1.500   8.941  19.474  0.00  0.00    +0.000 N 
ATOM     12  C   UNL     1       1.858   7.665  19.919  0.00  0.00    +0.000 C 
ATOM     13  O   UNL     1       1.441   7.193  20.975  0.00  0.00    +0.000 OA
ATOM     14  C   UNL     1       1.563   9.425  18.088  0.00  0.00    +0.000 C 
ATOM     15  C   UNL     1       2.009  10.898  18.054  0.00  0.00    +0.000 C 
ENDBRANCH   1  12
BRANCH   4  16
ATOM     16  N   UNL     1       5.464   4.414  16.908  0.00  0.00    +0.000 N 
ATOM     17  H   UNL     1       5.075   3.764  16.227  0.00  0.00    +0.000 HD
BRANCH  16  18
ATOM     18  S   UNL     1       6.928   5.077  16.377  0.00  0.00    +0.000 S 
ATOM     19  O   UNL     1       6.808   6.507  16.574  0.00  0.00    +0.000 OA
ATOM     20  O   UNL     1       8.029   4.337  16.954  0.00  0.00    +0.000 OA
BRANCH  18  21
ATOM     21  C   UNL     1       6.865   4.753  14.635  0.00  0.00    +0.000 A 
ATOM     22  C   UNL     1       5.971   3.806  14.131  0.00  0.00    +0.000 A 
ATOM     23  C   UNL     1       6.009   3.489  12.773  0.00  0.00    +0.000 A 
ATOM     24  C   UNL     1       6.928   4.123  11.932  0.00  0.00    +0.000 A 
ATOM     25  C   UNL     1       7.789   5.098  12.436  0.00  0.00    +0.000 A 
ATOM     26  C   UNL     1       7.748   5.430  13.788  0.00  0.00    +0.000 A 
ENDBRANCH  18  21
ENDBRANCH  16  18
ENDBRANCH   4  16
TORSDOF 4
ENDMDL
MODEL 9
REMARK VINA RESULT:      -7.4      1.976      2.898
REMARK  Name = 
REMARK  5 active torsions:
REMARK  status: ('A' for Active; 'I' for Inactive)
REMARK    1  A    between atoms: C_1  and  N_2
REMARK    2  A    between atoms: C_6  and  C_8
REMARK    3  A    between atoms: C_11  and  N_12
REMARK    4  A    between atoms: N_12  and  S_13
REMARK    5  A    between atoms: S_13  and  C_16
REMARK                            x       y       z     vdW  Elec       q    Type
REMARK                         _______ _______ _______ _____ _____    ______ ____
ROOT
ATOM      1  C   UNL     1       1.630   7.693  20.453  0.00  0.00    +0.000 A 
ATOM      2  C   UNL     1       1.291   6.414  20.912  0.00  0.00    +0.000 A 
ATOM      3  C   UNL     1       1.629   5.278  20.172  0.00  0.00    +0.000 A 
ATOM      4  C   UNL     1       2.232   5.422  18.925  0.00  0.00    +0.000 A 
ATOM      5  C   UNL     1       2.506   6.695  18.421  0.00  0.00    +0.000 A 
ATOM      6  C   UNL     1       2.207   7.830  19.183  0.00  0.00    +0.000 A 
ENDROOT
BRANCH   1  12
ATOM      7  C   UNL     1      -0.394  13.490  18.454  0.00  0.00    +0.000 C 
ATOM      8  N   UNL     1      -0.478  12.316  19.317  0.00  0.00    +0.000 NA
ATOM      9  C   UNL     1       0.417  12.451  20.490  0.00  0.00    +0.000 C 
ATOM     10  C   UNL     1       0.404  11.201  21.404  0.00  0.00    +0.000 C 
ATOM     11  N   UNL     1       0.618   9.968  20.641  0.00  0.00    +0.000 N 
ATOM     12  C   UNL     1       1.329   8.924  21.240  0.00  0.00    +0.000 C 
ATOM     13  O   UNL     1       1.745   8.986  22.396  0.00  0.00    +0.000 OA
ATOM     14  C   UNL     1      -0.278   9.854  19.483  0.00  0.00    +0.000 C 
ATOM     15  C   UNL     1      -0.140  11.089  18.573  0.00  0.00    +0.000 C 
ENDBRANCH   1  12
BRANCH   4  16
ATOM     16  N   UNL     1       2.546   4.284  18.138  0.00  0.00    +0.000 N 
ATOM     17  H   UNL     1       2.376   4.327  17.135  0.00  0.00    +0.000 HD
BRANCH  16  18
ATOM     18  S   UNL     1       3.952   3.413  18.498  0.00  0.00    +0.000 S 
ATOM     19  O   UNL     1       3.963   3.258  19.938  0.00  0.00    +0.000 OA
ATOM     20  O   UNL     1       4.042   2.262  17.626  0.00  0.00    +0.000 OA
BRANCH  18  21
ATOM     21  C   UNL     1       5.221   4.571  18.059  0.00  0.00    +0.000 A 
ATOM     22  C   UNL     1       5.440   4.895  16.719  0.00  0.00    +0.000 A 
ATOM     23  C   UNL     1       6.510   5.726  16.386  0.00  0.00    +0.000 A 
ATOM     24  C   UNL     1       7.343   6.230  17.388  0.00  0.00    +0.000 A 
ATOM     25  C   UNL     1       7.092   5.936  18.728  0.00  0.00    +0.000 A 
ATOM     26  C   UNL     1       6.017   5.118  19.070  0.00  0.00    +0.000 A 
ENDBRANCH  18  21
ENDBRANCH  16  18
ENDBRANCH   4  16
TORSDOF 4
ENDMDL
