MODEL 1
REMARK VINA RESULT:      -7.7      0.000      0.000
REMARK  Name = 
REMARK  12 active torsions:
REMARK  status: ('A' for Active; 'I' for Inactive)
REMARK    1  A    between atoms: C_1  and  C_2
REMARK    2  A    between atoms: C_2  and  C_3
REMARK    3  A    between atoms: C_2  and  C_4
REMARK    4  A    between atoms: C_4  and  N_5
REMARK    5  A    between atoms: C_4  and  C_29
REMARK    6  A    between atoms: C_6  and  C_8
REMARK    7  A    between atoms: C_8  and  N_9
REMARK    8  A    between atoms: C_11  and  C_12
REMARK    9  A    between atoms: C_12  and  C_13
REMARK   10  A    between atoms: C_20  and  N_21
REMARK   11  A    between atoms: C_22  and  C_24
REMARK   12  A    between atoms: C_29  and  C_31
REMARK                            x       y       z     vdW  Elec       q    Type
REMARK                         _______ _______ _______ _____ _____    ______ ____
ROOT
ATOM      1  N   UNL     1       0.615   9.817  18.154  0.00  0.00    +0.000 N 
ATOM      2  C   UNL     1      -0.525   9.401  17.478  0.00  0.00    +0.000 A 
ATOM      3  C   UNL     1      -1.700  10.025  17.653  0.00  0.00    +0.000 A 
ATOM      4  C   UNL     1      -1.814  10.972  18.741  0.00  0.00    +0.000 A 
ATOM      5  C   UNL     1      -0.745  11.494  19.355  0.00  0.00    +0.000 A 
ATOM      6  C   UNL     1       0.616  11.031  18.865  0.00  0.00    +0.000 A 
ATOM      7  O   UNL     1       1.633  11.653  19.160  0.00  0.00    +0.000 OA
ENDROOT
BRANCH   5   8
ATOM      8  N   UNL     1      -0.796  12.393  20.405  0.00  0.00    +0.000 N 
ATOM      9  C   UNL     1      -0.475  12.134  21.737  0.00  0.00    +0.000 C 
ATOM     10  O   UNL     1      -0.061  11.088  22.212  0.00  0.00    +0.000 OA
ATOM     11  H   UNL     1      -1.097  13.346  20.186  0.00  0.00    +0.000 HD
BRANCH   9  12
ATOM     12  C   UNL     1      -0.662  13.327  22.681  0.00  0.00    +0.000 C 
ATOM     13  N   UNL     1      -1.869  13.317  23.353  0.00  0.00    +0.000 N 
ATOM     14  O   UNL     1       0.188  14.195  22.790  0.00  0.00    +0.000 OA
ATOM     15  H   UNL     1      -2.517  12.567  23.197  0.00  0.00    +0.000 HD
ATOM     16  H   UNL     1      -2.096  14.072  23.985  0.00  0.00    +0.000 HD
ENDBRANCH   9  12
ENDBRANCH   5   8
BRANCH   1  17
ATOM     17  C   UNL     1       1.903   9.181  17.841  0.00  0.00    +0.000 C 
BRANCH  17  19
ATOM     18  N   UNL     1       2.792   6.863  17.982  0.00  0.00    +0.000 N 
ATOM     19  C   UNL     1       2.231   7.918  18.660  0.00  0.00    +0.000 C 
ATOM     20  O   UNL     1       2.068   7.890  19.882  0.00  0.00    +0.000 OA
ATOM     21  H   UNL     1       2.783   6.903  16.968  0.00  0.00    +0.000 HD
BRANCH  18  22
ATOM     22  C   UNL     1       3.084   5.570  18.615  0.00  0.00    +0.000 C 
BRANCH  22  24
ATOM     23  C   UNL     1       4.864   5.644  16.758  0.00  0.00    +0.000 C 
ATOM     24  C   UNL     1       4.302   4.877  17.960  0.00  0.00    +0.000 C 
ATOM     25  C   UNL     1       5.423   4.648  18.980  0.00  0.00    +0.000 C 
ENDBRANCH  22  24
BRANCH  22  26
ATOM     26  C   UNL     1       1.835   4.679  18.545  0.00  0.00    +0.000 C 
ATOM     27  O   UNL     1       1.300   4.427  17.458  0.00  0.00    +0.000 OA
BRANCH  26  28
ATOM     28  C   UNL     1       1.359   4.084  19.863  0.00  0.00    +0.000 C 
ATOM     29  F   UNL     1       0.424   3.106  19.709  0.00  0.00    +0.000 F 
ATOM     30  F   UNL     1       2.374   3.529  20.581  0.00  0.00    +0.000 F 
ATOM     31  F   UNL     1       0.784   5.019  20.671  0.00  0.00    +0.000 F 
ENDBRANCH  26  28
ENDBRANCH  22  26
ENDBRANCH  18  22
ENDBRANCH  17  19
ENDBRANCH   1  17
BRANCH   3  32
ATOM     32  C   UNL     1      -2.917   9.813  16.777  0.00  0.00    +0.000 C 
BRANCH  32  33
ATOM     33  C   UNL     1      -4.123  10.559  17.317  0.00  0.00    +0.000 A 
ATOM     34  C   UNL     1      -4.913   9.988  18.326  0.00  0.00    +0.000 A 
ATOM     35  C   UNL     1      -6.109  10.590  18.722  0.00  0.00    +0.000 A 
ATOM     36  C   UNL     1      -6.523  11.780  18.127  0.00  0.00    +0.000 A 
ATOM     37  C   UNL     1      -5.723  12.385  17.158  0.00  0.00    +0.000 A 
ATOM     38  C   UNL     1      -4.531  11.780  16.754  0.00  0.00    +0.000 A 
ENDBRANCH  32  33
ENDBRANCH   3  32
TORSDOF 10
ENDMDL
MODEL 2
REMARK VINA RESULT:      -7.6      2.362      4.430
REMARK  Name = 
REMARK  12 active torsions:
REMARK  status: ('A' for Active; 'I' for Inactive)
REMARK    1  A    between atoms: C_1  and  C_2
REMARK    2  A    between atoms: C_2  and  C_3
REMARK    3  A    between atoms: C_2  and  C_4
REMARK    4  A    between atoms: C_4  and  N_5
REMARK    5  A    between atoms: C_4  and  C_29
REMARK    6  A    between atoms: C_6  and  C_8
REMARK    7  A    between atoms: C_8  and  N_9
REMARK    8  A    between atoms: C_11  and  C_12
REMARK    9  A    between atoms: C_12  and  C_13
REMARK   10  A    between atoms: C_20  and  N_21
REMARK   11  A    between atoms: C_22  and  C_24
REMARK   12  A    between atoms: C_29  and  C_31
REMARK                            x       y       z     vdW  Elec       q    Type
REMARK                         _______ _______ _______ _____ _____    ______ ____
ROOT
ATOM      1  N   UNL     1       1.024   9.581  19.004  0.00  0.00    +0.000 N 
ATOM      2  C   UNL     1       0.965   9.902  20.354  0.00  0.00    +0.000 A 
ATOM      3  C   UNL     1      -0.123  10.486  20.880  0.00  0.00    +0.000 A 
ATOM      4  C   UNL     1      -1.127  11.001  19.973  0.00  0.00    +0.000 A 
ATOM      5  C   UNL     1      -1.186  10.637  18.685  0.00  0.00    +0.000 A 
ATOM      6  C   UNL     1      -0.130   9.658  18.204  0.00  0.00    +0.000 A 
ATOM      7  O   UNL     1      -0.272   9.056  17.143  0.00  0.00    +0.000 OA
ENDROOT
BRANCH   5   8
ATOM      8  N   UNL     1      -2.115  11.106  17.773  0.00  0.00    +0.000 N 
ATOM      9  C   UNL     1      -3.273  10.450  17.356  0.00  0.00    +0.000 C 
ATOM     10  O   UNL     1      -3.694   9.368  17.737  0.00  0.00    +0.000 OA
ATOM     11  H   UNL     1      -1.942  12.027  17.365  0.00  0.00    +0.000 HD
BRANCH   9  12
ATOM     12  C   UNL     1      -4.093  11.210  16.306  0.00  0.00    +0.000 C 
ATOM     13  N   UNL     1      -5.342  11.594  16.754  0.00  0.00    +0.000 N 
ATOM     14  O   UNL     1      -3.659  11.420  15.187  0.00  0.00    +0.000 OA
ATOM     15  H   UNL     1      -5.624  11.372  17.690  0.00  0.00    +0.000 HD
ATOM     16  H   UNL     1      -5.967  12.084  16.129  0.00  0.00    +0.000 HD
ENDBRANCH   9  12
ENDBRANCH   5   8
BRANCH   1  17
ATOM     17  C   UNL     1       2.185   8.835  18.498  0.00  0.00    +0.000 C 
BRANCH  17  19
ATOM     18  N   UNL     1       2.831   6.449  18.227  0.00  0.00    +0.000 N 
ATOM     19  C   UNL     1       2.363   7.420  19.080  0.00  0.00    +0.000 C 
ATOM     20  O   UNL     1       2.168   7.192  20.276  0.00  0.00    +0.000 OA
ATOM     21  H   UNL     1       2.851   6.669  17.237  0.00  0.00    +0.000 HD
BRANCH  18  22
ATOM     22  C   UNL     1       2.974   5.041  18.620  0.00  0.00    +0.000 C 
BRANCH  22  24
ATOM     23  C   UNL     1       4.653   5.133  16.671  0.00  0.00    +0.000 C 
ATOM     24  C   UNL     1       4.176   4.372  17.914  0.00  0.00    +0.000 C 
ATOM     25  C   UNL     1       5.355   4.193  18.877  0.00  0.00    +0.000 C 
ENDBRANCH  22  24
BRANCH  22  26
ATOM     26  C   UNL     1       1.666   4.296  18.315  0.00  0.00    +0.000 C 
ATOM     27  O   UNL     1       1.136   4.381  17.200  0.00  0.00    +0.000 OA
BRANCH  26  28
ATOM     28  C   UNL     1       1.124   3.407  19.427  0.00  0.00    +0.000 C 
ATOM     29  F   UNL     1       0.498   4.101  20.417  0.00  0.00    +0.000 F 
ATOM     30  F   UNL     1       0.221   2.496  18.972  0.00  0.00    +0.000 F 
ATOM     31  F   UNL     1       2.111   2.697  20.042  0.00  0.00    +0.000 F 
ENDBRANCH  26  28
ENDBRANCH  22  26
ENDBRANCH  18  22
ENDBRANCH  17  19
ENDBRANCH   1  17
BRANCH   3  32
ATOM     32  C   UNL     1      -0.380  10.632  22.365  0.00  0.00    +0.000 C 
BRANCH  32  33
ATOM     33  C   UNL     1      -1.143  11.909  22.671  0.00  0.00    +0.000 A 
ATOM     34  C   UNL     1      -0.523  13.157  22.511  0.00  0.00    +0.000 A 
ATOM     35  C   UNL     1      -1.157  14.327  22.935  0.00  0.00    +0.000 A 
ATOM     36  C   UNL     1      -2.425  14.266  23.508  0.00  0.00    +0.000 A 
ATOM     37  C   UNL     1      -3.074  13.038  23.627  0.00  0.00    +0.000 A 
ATOM     38  C   UNL     1      -2.439  11.866  23.212  0.00  0.00    +0.000 A 
ENDBRANCH  32  33
ENDBRANCH   3  32
TORSDOF 10
ENDMDL
MODEL 3
REMARK VINA RESULT:      -7.6      3.477      6.230
REMARK  Name = 
REMARK  12 active torsions:
REMARK  status: ('A' for Active; 'I' for Inactive)
REMARK    1  A    between atoms: C_1  and  C_2
REMARK    2  A    between atoms: C_2  and  C_3
REMARK    3  A    between atoms: C_2  and  C_4
REMARK    4  A    between atoms: C_4  and  N_5
REMARK    5  A    between atoms: C_4  and  C_29
REMARK    6  A    between atoms: C_6  and  C_8
REMARK    7  A    between atoms: C_8  and  N_9
REMARK    8  A    between atoms: C_11  and  C_12
REMARK    9  A    between atoms: C_12  and  C_13
REMARK   10  A    between atoms: C_20  and  N_21
REMARK   11  A    between atoms: C_22  and  C_24
REMARK   12  A    between atoms: C_29  and  C_31
REMARK                            x       y       z     vdW  Elec       q    Type
REMARK                         _______ _______ _______ _____ _____    ______ ____
ROOT
ATOM      1  N   UNL     1       2.541   7.944  18.345  0.00  0.00    +0.000 N 
ATOM      2  C   UNL     1       2.443   6.936  19.296  0.00  0.00    +0.000 A 
ATOM      3  C   UNL     1       1.677   7.085  20.388  0.00  0.00    +0.000 A 
ATOM      4  C   UNL     1       1.156   8.404  20.681  0.00  0.00    +0.000 A 
ATOM      5  C   UNL     1       1.121   9.382  19.767  0.00  0.00    +0.000 A 
ATOM      6  C   UNL     1       1.673   9.051  18.391  0.00  0.00    +0.000 A 
ATOM      7  O   UNL     1       1.425   9.770  17.427  0.00  0.00    +0.000 OA
ENDROOT
BRANCH   5   8
ATOM      8  N   UNL     1       0.645  10.660  19.996  0.00  0.00    +0.000 N 
ATOM      9  C   UNL     1      -0.603  11.160  19.627  0.00  0.00    +0.000 C 
ATOM     10  O   UNL     1      -1.510  10.560  19.071  0.00  0.00    +0.000 OA
ATOM     11  H   UNL     1       1.267  11.306  20.488  0.00  0.00    +0.000 HD
BRANCH   9  12
ATOM     12  C   UNL     1      -0.833  12.632  19.991  0.00  0.00    +0.000 C 
ATOM     13  N   UNL     1      -1.888  13.211  19.311  0.00  0.00    +0.000 N 
ATOM     14  O   UNL     1      -0.121  13.210  20.794  0.00  0.00    +0.000 OA
ATOM     15  H   UNL     1      -2.418  12.664  18.659  0.00  0.00    +0.000 HD
ATOM     16  H   UNL     1      -2.107  14.185  19.466  0.00  0.00    +0.000 HD
ENDBRANCH   9  12
ENDBRANCH   5   8
BRANCH   1  17
ATOM     17  C   UNL     1       3.295   7.690  17.110  0.00  0.00    +0.000 C 
BRANCH  17  19
ATOM     18  N   UNL     1       5.562   6.672  17.186  0.00  0.00    +0.000 N 
ATOM     19  C   UNL     1       4.207   6.449  17.139  0.00  0.00    +0.000 C 
ATOM     20  O   UNL     1       3.736   5.311  17.198  0.00  0.00    +0.000 OA
ATOM     21  H   UNL     1       5.885   7.618  17.009  0.00  0.00    +0.000 HD
BRANCH  18  22
ATOM     22  C   UNL     1       6.553   5.589  17.137  0.00  0.00    +0.000 C 
BRANCH  22  24
ATOM     23  C   UNL     1       8.048   7.459  18.085  0.00  0.00    +0.000 C 
ATOM     24  C   UNL     1       7.830   5.949  17.935  0.00  0.00    +0.000 C 
ATOM     25  C   UNL     1       7.815   5.302  19.324  0.00  0.00    +0.000 C 
ENDBRANCH  22  24
BRANCH  22  26
ATOM     26  C   UNL     1       6.886   5.272  15.672  0.00  0.00    +0.000 C 
ATOM     27  O   UNL     1       7.802   5.867  15.090  0.00  0.00    +0.000 OA
BRANCH  26  28
ATOM     28  C   UNL     1       6.082   4.151  15.028  0.00  0.00    +0.000 C 
ATOM     29  F   UNL     1       6.757   3.499  14.041  0.00  0.00    +0.000 F 
ATOM     30  F   UNL     1       5.704   3.199  15.923  0.00  0.00    +0.000 F 
ATOM     31  F   UNL     1       4.936   4.610  14.448  0.00  0.00    +0.000 F 
ENDBRANCH  26  28
ENDBRANCH  22  26
ENDBRANCH  18  22
ENDBRANCH  17  19
ENDBRANCH   1  17
BRANCH   3  32
ATOM     32  C   UNL     1       1.307   5.960  21.331  0.00  0.00    +0.000 C 
BRANCH  32  33
ATOM     33  C   UNL     1       1.618   4.604  20.724  0.00  0.00    +0.000 A 
ATOM     34  C   UNL     1       2.916   4.076  20.803  0.00  0.00    +0.000 A 
ATOM     35  C   UNL     1       3.251   2.907  20.117  0.00  0.00    +0.000 A 
ATOM     36  C   UNL     1       2.292   2.242  19.357  0.00  0.00    +0.000 A 
ATOM     37  C   UNL     1       0.986   2.728  19.310  0.00  0.00    +0.000 A 
ATOM     38  C   UNL     1       0.649   3.902  19.988  0.00  0.00    +0.000 A 
ENDBRANCH  32  33
ENDBRANCH   3  32
TORSDOF 10
ENDMDL
MODEL 4
REMARK VINA RESULT:      -7.6      4.164      8.641
REMARK  Name = 
REMARK  12 active torsions:
REMARK  status: ('A' for Active; 'I' for Inactive)
REMARK    1  A    between atoms: C_1  and  C_2
REMARK    2  A    between atoms: C_2  and  C_3
REMARK    3  A    between atoms: C_2  and  C_4
REMARK    4  A    between atoms: C_4  and  N_5
REMARK    5  A    between atoms: C_4  and  C_29
REMARK    6  A    between atoms: C_6  and  C_8
REMARK    7  A    between atoms: C_8  and  N_9
REMARK    8  A    between atoms: C_11  and  C_12
REMARK    9  A    between atoms: C_12  and  C_13
REMARK   10  A    between atoms: C_20  and  N_21
REMARK   11  A    between atoms: C_22  and  C_24
REMARK   12  A    between atoms: C_29  and  C_31
REMARK                            x       y       z     vdW  Elec       q    Type
REMARK                         _______ _______ _______ _____ _____    ______ ____
ROOT
ATOM      1  N   UNL     1       0.592  10.335  20.359  0.00  0.00    +0.000 N 
ATOM      2  C   UNL     1       1.411   9.215  20.279  0.00  0.00    +0.000 A 
ATOM      3  C   UNL     1       1.531   8.526  19.133  0.00  0.00    +0.000 A 
ATOM      4  C   UNL     1       0.606   8.820  18.060  0.00  0.00    +0.000 A 
ATOM      5  C   UNL     1      -0.125   9.941  18.028  0.00  0.00    +0.000 A 
ATOM      6  C   UNL     1       0.047  10.901  19.192  0.00  0.00    +0.000 A 
ATOM      7  O   UNL     1      -0.352  12.060  19.113  0.00  0.00    +0.000 OA
ENDROOT
BRANCH   5   8
ATOM      8  N   UNL     1      -1.031  10.267  17.034  0.00  0.00    +0.000 N 
ATOM      9  C   UNL     1      -2.401  10.006  17.041  0.00  0.00    +0.000 C 
ATOM     10  O   UNL     1      -3.053   9.480  17.929  0.00  0.00    +0.000 OA
ATOM     11  H   UNL     1      -0.663  10.750  16.211  0.00  0.00    +0.000 HD
BRANCH   9  12
ATOM     12  C   UNL     1      -3.142  10.460  15.777  0.00  0.00    +0.000 C 
ATOM     13  N   UNL     1      -4.412  10.943  16.025  0.00  0.00    +0.000 N 
ATOM     14  O   UNL     1      -2.634  10.370  14.672  0.00  0.00    +0.000 OA
ATOM     15  H   UNL     1      -4.756  10.974  16.967  0.00  0.00    +0.000 HD
ATOM     16  H   UNL     1      -4.989  11.249  15.254  0.00  0.00    +0.000 HD
ENDBRANCH   9  12
ENDBRANCH   5   8
BRANCH   1  17
ATOM     17  C   UNL     1       0.585  11.126  21.597  0.00  0.00    +0.000 C 
BRANCH  17  19
ATOM     18  N   UNL     1      -1.584  12.324  21.804  0.00  0.00    +0.000 N 
ATOM     19  C   UNL     1      -0.794  11.297  22.262  0.00  0.00    +0.000 C 
ATOM     20  O   UNL     1      -1.198  10.497  23.109  0.00  0.00    +0.000 OA
ATOM     21  H   UNL     1      -1.148  13.015  21.202  0.00  0.00    +0.000 HD
BRANCH  18  22
ATOM     22  C   UNL     1      -2.887  12.656  22.396  0.00  0.00    +0.000 C 
BRANCH  22  24
ATOM     23  C   UNL     1      -3.561  12.531  19.915  0.00  0.00    +0.000 C 
ATOM     24  C   UNL     1      -3.922  13.043  21.314  0.00  0.00    +0.000 C 
ATOM     25  C   UNL     1      -5.324  12.545  21.685  0.00  0.00    +0.000 C 
ENDBRANCH  22  24
BRANCH  22  26
ATOM     26  C   UNL     1      -2.705  13.786  23.420  0.00  0.00    +0.000 C 
ATOM     27  O   UNL     1      -1.845  14.659  23.249  0.00  0.00    +0.000 OA
BRANCH  26  28
ATOM     28  C   UNL     1      -3.681  13.799  24.588  0.00  0.00    +0.000 C 
ATOM     29  F   UNL     1      -3.161  14.344  25.722  0.00  0.00    +0.000 F 
ATOM     30  F   UNL     1      -4.813  14.503  24.313  0.00  0.00    +0.000 F 
ATOM     31  F   UNL     1      -4.084  12.544  24.934  0.00  0.00    +0.000 F 
ENDBRANCH  26  28
ENDBRANCH  22  26
ENDBRANCH  18  22
ENDBRANCH  17  19
ENDBRANCH   1  17
BRANCH   3  32
ATOM     32  C   UNL     1       2.583   7.466  18.882  0.00  0.00    +0.000 C 
BRANCH  32  33
ATOM     33  C   UNL     1       2.022   6.071  19.089  0.00  0.00    +0.000 A 
ATOM     34  C   UNL     1       1.706   5.621  20.379  0.00  0.00    +0.000 A 
ATOM     35  C   UNL     1       1.338   4.293  20.600  0.00  0.00    +0.000 A 
ATOM     36  C   UNL     1       1.264   3.400  19.533  0.00  0.00    +0.000 A 
ATOM     37  C   UNL     1       1.527   3.846  18.238  0.00  0.00    +0.000 A 
ATOM     38  C   UNL     1       1.904   5.172  18.015  0.00  0.00    +0.000 A 
ENDBRANCH  32  33
ENDBRANCH   3  32
TORSDOF 10
ENDMDL
MODEL 5
REMARK VINA RESULT:      -7.5      7.732     10.594
REMARK  Name = 
REMARK  12 active torsions:
REMARK  status: ('A' for Active; 'I' for Inactive)
REMARK    1  A    between atoms: C_1  and  C_2
REMARK    2  A    between atoms: C_2  and  C_3
REMARK    3  A    between atoms: C_2  and  C_4
REMARK    4  A    between atoms: C_4  and  N_5
REMARK    5  A    between atoms: C_4  and  C_29
REMARK    6  A    between atoms: C_6  and  C_8
REMARK    7  A    between atoms: C_8  and  N_9
REMARK    8  A    between atoms: C_11  and  C_12
REMARK    9  A    between atoms: C_12  and  C_13
REMARK   10  A    between atoms: C_20  and  N_21
REMARK   11  A    between atoms: C_22  and  C_24
REMARK   12  A    between atoms: C_29  and  C_31
REMARK                            x       y       z     vdW  Elec       q    Type
REMARK                         _______ _______ _______ _____ _____    ______ ____
ROOT
ATOM      1  N   UNL     1       6.805   6.427  17.753  0.00  0.00    +0.000 N 
ATOM      2  C   UNL     1       5.546   6.699  18.275  0.00  0.00    +0.000 A 
ATOM      3  C   UNL     1       4.451   6.091  17.794  0.00  0.00    +0.000 A 
ATOM      4  C   UNL     1       4.573   5.341  16.562  0.00  0.00    +0.000 A 
ATOM      5  C   UNL     1       5.757   4.953  16.071  0.00  0.00    +0.000 A 
ATOM      6  C   UNL     1       6.988   5.353  16.864  0.00  0.00    +0.000 A 
ATOM      7  O   UNL     1       8.070   4.810  16.656  0.00  0.00    +0.000 OA
ENDROOT
BRANCH   5   8
ATOM      8  N   UNL     1       5.931   4.246  14.895  0.00  0.00    +0.000 N 
ATOM      9  C   UNL     1       6.716   4.625  13.806  0.00  0.00    +0.000 C 
ATOM     10  O   UNL     1       7.413   5.623  13.703  0.00  0.00    +0.000 OA
ATOM     11  H   UNL     1       5.440   3.352  14.813  0.00  0.00    +0.000 HD
BRANCH   9  12
ATOM     12  C   UNL     1       6.686   3.645  12.627  0.00  0.00    +0.000 C 
ATOM     13  N   UNL     1       5.800   2.600  12.799  0.00  0.00    +0.000 N 
ATOM     14  O   UNL     1       7.406   3.795  11.654  0.00  0.00    +0.000 OA
ATOM     15  H   UNL     1       5.251   2.547  13.637  0.00  0.00    +0.000 HD
ATOM     16  H   UNL     1       5.721   1.889  12.085  0.00  0.00    +0.000 HD
ENDBRANCH   9  12
ENDBRANCH   5   8
BRANCH   1  17
ATOM     17  C   UNL     1       7.986   7.025  18.391  0.00  0.00    +0.000 C 
BRANCH  17  19
ATOM     18  N   UNL     1       8.963   9.220  19.031  0.00  0.00    +0.000 N 
ATOM     19  C   UNL     1       8.181   8.532  18.135  0.00  0.00    +0.000 C 
ATOM     20  O   UNL     1       7.721   9.073  17.127  0.00  0.00    +0.000 OA
ATOM     21  H   UNL     1       9.205   8.749  19.897  0.00  0.00    +0.000 HD
BRANCH  18  22
ATOM     22  C   UNL     1       9.172  10.673  18.959  0.00  0.00    +0.000 C 
BRANCH  22  24
ATOM     23  C   UNL     1      10.389  12.228  17.308  0.00  0.00    +0.000 C 
ATOM     24  C   UNL     1      10.501  11.023  18.249  0.00  0.00    +0.000 C 
ATOM     25  C   UNL     1      11.620  11.279  19.264  0.00  0.00    +0.000 C 
ENDBRANCH  22  24
BRANCH  22  26
ATOM     26  C   UNL     1       9.128  11.262  20.376  0.00  0.00    +0.000 C 
ATOM     27  O   UNL     1       9.355  10.549  21.363  0.00  0.00    +0.000 OA
BRANCH  26  28
ATOM     28  C   UNL     1       8.869  12.759  20.475  0.00  0.00    +0.000 C 
ATOM     29  F   UNL     1       8.016  13.095  21.481  0.00  0.00    +0.000 F 
ATOM     30  F   UNL     1      10.008  13.472  20.688  0.00  0.00    +0.000 F 
ATOM     31  F   UNL     1       8.310  13.258  19.336  0.00  0.00    +0.000 F 
ENDBRANCH  26  28
ENDBRANCH  22  26
ENDBRANCH  18  22
ENDBRANCH  17  19
ENDBRANCH   1  17
BRANCH   3  32
ATOM     32  C   UNL     1       3.093   6.125  18.462  0.00  0.00    +0.000 C 
BRANCH  32  33
ATOM     33  C   UNL     1       2.632   4.732  18.850  0.00  0.00    +0.000 A 
ATOM     34  C   UNL     1       1.477   4.183  18.273  0.00  0.00    +0.000 A 
ATOM     35  C   UNL     1       0.957   2.972  18.734  0.00  0.00    +0.000 A 
ATOM     36  C   UNL     1       1.594   2.285  19.765  0.00  0.00    +0.000 A 
ATOM     37  C   UNL     1       2.771   2.793  20.312  0.00  0.00    +0.000 A 
ATOM     38  C   UNL     1       3.288   4.008  19.860  0.00  0.00    +0.000 A 
ENDBRANCH  32  33
ENDBRANCH   3  32
TORSDOF 10
ENDMDL
MODEL 6
REMARK VINA RESULT:      -7.5      3.397      9.249
REMARK  Name = 
REMARK  12 active torsions:
REMARK  status: ('A' for Active; 'I' for Inactive)
REMARK    1  A    between atoms: C_1  and  C_2
REMARK    2  A    between atoms: C_2  and  C_3
REMARK    3  A    between atoms: C_2  and  C_4
REMARK    4  A    between atoms: C_4  and  N_5
REMARK    5  A    between atoms: C_4  and  C_29
REMARK    6  A    between atoms: C_6  and  C_8
REMARK    7  A    between atoms: C_8  and  N_9
REMARK    8  A    between atoms: C_11  and  C_12
REMARK    9  A    between atoms: C_12  and  C_13
REMARK   10  A    between atoms: C_20  and  N_21
REMARK   11  A    between atoms: C_22  and  C_24
REMARK   12  A    between atoms: C_29  and  C_31
REMARK                            x       y       z     vdW  Elec       q    Type
REMARK                         _______ _______ _______ _____ _____    ______ ____
ROOT
ATOM      1  N   UNL     1       3.846   6.643  17.507  0.00  0.00    +0.000 N 
ATOM      2  C   UNL     1       3.067   5.528  17.796  0.00  0.00    +0.000 A 
ATOM      3  C   UNL     1       3.275   4.358  17.172  0.00  0.00    +0.000 A 
ATOM      4  C   UNL     1       4.152   4.344  16.021  0.00  0.00    +0.000 A 
ATOM      5  C   UNL     1       5.006   5.341  15.757  0.00  0.00    +0.000 A 
ATOM      6  C   UNL     1       5.006   6.514  16.721  0.00  0.00    +0.000 A 
ATOM      7  O   UNL     1       5.932   7.320  16.727  0.00  0.00    +0.000 OA
ENDROOT
BRANCH   5   8
ATOM      8  N   UNL     1       5.857   5.384  14.667  0.00  0.00    +0.000 N 
ATOM      9  C   UNL     1       7.199   5.005  14.646  0.00  0.00    +0.000 C 
ATOM     10  O   UNL     1       7.855   4.540  15.565  0.00  0.00    +0.000 OA
ATOM     11  H   UNL     1       5.466   5.723  13.785  0.00  0.00    +0.000 HD
BRANCH   9  12
ATOM     12  C   UNL     1       7.895   5.197  13.293  0.00  0.00    +0.000 C 
ATOM     13  N   UNL     1       7.338   4.447  12.275  0.00  0.00    +0.000 N 
ATOM     14  O   UNL     1       8.858   5.935  13.169  0.00  0.00    +0.000 OA
ATOM     15  H   UNL     1       6.550   3.857  12.466  0.00  0.00    +0.000 HD
ATOM     16  H   UNL     1       7.739   4.489  11.348  0.00  0.00    +0.000 HD
ENDBRANCH   9  12
ENDBRANCH   5   8
BRANCH   1  17
ATOM     17  C   UNL     1       3.662   7.866  18.299  0.00  0.00    +0.000 C 
BRANCH  17  19
ATOM     18  N   UNL     1       1.594   9.161  18.777  0.00  0.00    +0.000 N 
ATOM     19  C   UNL     1       2.295   8.000  18.997  0.00  0.00    +0.000 C 
ATOM     20  O   UNL     1       1.822   7.073  19.657  0.00  0.00    +0.000 OA
ATOM     21  H   UNL     1       2.089   9.928  18.332  0.00  0.00    +0.000 HD
BRANCH  18  22
ATOM     22  C   UNL     1       0.317   9.461  19.438  0.00  0.00    +0.000 C 
BRANCH  22  24
ATOM     23  C   UNL     1      -1.261   9.827  17.437  0.00  0.00    +0.000 C 
ATOM     24  C   UNL     1      -0.526  10.468  18.620  0.00  0.00    +0.000 C 
ATOM     25  C   UNL     1      -1.541  11.193  19.510  0.00  0.00    +0.000 C 
ENDBRANCH  22  24
BRANCH  22  26
ATOM     26  C   UNL     1       0.591   9.989  20.854  0.00  0.00    +0.000 C 
ATOM     27  O   UNL     1       1.235  11.031  21.025  0.00  0.00    +0.000 OA
BRANCH  26  28
ATOM     28  C   UNL     1      -0.034   9.201  21.997  0.00  0.00    +0.000 C 
ATOM     29  F   UNL     1      -0.950   9.915  22.708  0.00  0.00    +0.000 F 
ATOM     30  F   UNL     1      -0.674   8.080  21.569  0.00  0.00    +0.000 F 
ATOM     31  F   UNL     1       0.896   8.790  22.905  0.00  0.00    +0.000 F 
ENDBRANCH  26  28
ENDBRANCH  22  26
ENDBRANCH  18  22
ENDBRANCH  17  19
ENDBRANCH   1  17
BRANCH   3  32
ATOM     32  C   UNL     1       2.660   3.043  17.601  0.00  0.00    +0.000 C 
BRANCH  32  33
ATOM     33  C   UNL     1       2.394   3.018  19.096  0.00  0.00    +0.000 A 
ATOM     34  C   UNL     1       3.422   2.684  19.990  0.00  0.00    +0.000 A 
ATOM     35  C   UNL     1       3.154   2.506  21.349  0.00  0.00    +0.000 A 
ATOM     36  C   UNL     1       1.860   2.676  21.835  0.00  0.00    +0.000 A 
ATOM     37  C   UNL     1       0.839   3.057  20.965  0.00  0.00    +0.000 A 
ATOM     38  C   UNL     1       1.102   3.227  19.604  0.00  0.00    +0.000 A 
ENDBRANCH  32  33
ENDBRANCH   3  32
TORSDOF 10
ENDMDL
MODEL 7
REMARK VINA RESULT:      -7.5      0.482      1.178
REMARK  Name = 
REMARK  12 active torsions:
REMARK  status: ('A' for Active; 'I' for Inactive)
REMARK    1  A    between atoms: C_1  and  C_2
REMARK    2  A    between atoms: C_2  and  C_3
REMARK    3  A    between atoms: C_2  and  C_4
REMARK    4  A    between atoms: C_4  and  N_5
REMARK    5  A    between atoms: C_4  and  C_29
REMARK    6  A    between atoms: C_6  and  C_8
REMARK    7  A    between atoms: C_8  and  N_9
REMARK    8  A    between atoms: C_11  and  C_12
REMARK    9  A    between atoms: C_12  and  C_13
REMARK   10  A    between atoms: C_20  and  N_21
REMARK   11  A    between atoms: C_22  and  C_24
REMARK   12  A    between atoms: C_29  and  C_31
REMARK                            x       y       z     vdW  Elec       q    Type
REMARK                         _______ _______ _______ _____ _____    ______ ____
ROOT
ATOM      1  N   UNL     1       0.479   9.896  18.226  0.00  0.00    +0.000 N 
ATOM      2  C   UNL     1      -0.590   9.550  17.409  0.00  0.00    +0.000 A 
ATOM      3  C   UNL     1      -1.792  10.128  17.560  0.00  0.00    +0.000 A 
ATOM      4  C   UNL     1      -2.021  10.928  18.744  0.00  0.00    +0.000 A 
ATOM      5  C   UNL     1      -1.020  11.385  19.506  0.00  0.00    +0.000 A 
ATOM      6  C   UNL     1       0.389  11.010  19.081  0.00  0.00    +0.000 A 
ATOM      7  O   UNL     1       1.361  11.606  19.536  0.00  0.00    +0.000 OA
ENDROOT
BRANCH   5   8
ATOM      8  N   UNL     1      -1.182  12.143  20.653  0.00  0.00    +0.000 N 
ATOM      9  C   UNL     1      -1.126  11.683  21.968  0.00  0.00    +0.000 C 
ATOM     10  O   UNL     1      -0.894  10.546  22.349  0.00  0.00    +0.000 OA
ATOM     11  H   UNL     1      -1.356  13.143  20.527  0.00  0.00    +0.000 HD
BRANCH   9  12
ATOM     12  C   UNL     1      -1.377  12.759  23.031  0.00  0.00    +0.000 C 
ATOM     13  N   UNL     1      -2.685  12.806  23.472  0.00  0.00    +0.000 N 
ATOM     14  O   UNL     1      -0.486  13.498  23.413  0.00  0.00    +0.000 OA
ATOM     15  H   UNL     1      -3.359  12.164  23.096  0.00  0.00    +0.000 HD
ATOM     16  H   UNL     1      -2.956  13.496  24.159  0.00  0.00    +0.000 HD
ENDBRANCH   9  12
ENDBRANCH   5   8
BRANCH   1  17
ATOM     17  C   UNL     1       1.805   9.326  17.946  0.00  0.00    +0.000 C 
BRANCH  17  19
ATOM     18  N   UNL     1       2.870   7.086  18.121  0.00  0.00    +0.000 N 
ATOM     19  C   UNL     1       2.172   8.077  18.769  0.00  0.00    +0.000 C 
ATOM     20  O   UNL     1       1.917   8.008  19.973  0.00  0.00    +0.000 OA
ATOM     21  H   UNL     1       2.936   7.148  17.110  0.00  0.00    +0.000 HD
BRANCH  18  22
ATOM     22  C   UNL     1       3.217   5.808  18.754  0.00  0.00    +0.000 C 
BRANCH  22  24
ATOM     23  C   UNL     1       4.871   5.828  16.782  0.00  0.00    +0.000 C 
ATOM     24  C   UNL     1       4.476   5.177  18.112  0.00  0.00    +0.000 C 
ATOM     25  C   UNL     1       5.671   5.227  19.071  0.00  0.00    +0.000 C 
ENDBRANCH  22  24
BRANCH  22  26
ATOM     26  C   UNL     1       2.015   4.856  18.667  0.00  0.00    +0.000 C 
ATOM     27  O   UNL     1       1.483   4.610  17.577  0.00  0.00    +0.000 OA
BRANCH  26  28
ATOM     28  C   UNL     1       1.584   4.196  19.969  0.00  0.00    +0.000 C 
ATOM     29  F   UNL     1       2.612   3.993  20.839  0.00  0.00    +0.000 F 
ATOM     30  F   UNL     1       0.655   4.928  20.643  0.00  0.00    +0.000 F 
ATOM     31  F   UNL     1       1.029   2.968  19.763  0.00  0.00    +0.000 F 
ENDBRANCH  26  28
ENDBRANCH  22  26
ENDBRANCH  18  22
ENDBRANCH  17  19
ENDBRANCH   1  17
BRANCH   3  32
ATOM     32  C   UNL     1      -2.926  10.009  16.564  0.00  0.00    +0.000 C 
BRANCH  32  33
ATOM     33  C   UNL     1      -4.213  10.594  17.120  0.00  0.00    +0.000 A 
ATOM     34  C   UNL     1      -4.679  11.836  16.663  0.00  0.00    +0.000 A 
ATOM     35  C   UNL     1      -5.771  12.455  17.274  0.00  0.00    +0.000 A 
ATOM     36  C   UNL     1      -6.423  11.834  18.337  0.00  0.00    +0.000 A 
ATOM     37  C   UNL     1      -6.002  10.576  18.768  0.00  0.00    +0.000 A 
ATOM     38  C   UNL     1      -4.904   9.959  18.165  0.00  0.00    +0.000 A 
ENDBRANCH  32  33
ENDBRANCH   3  32
TORSDOF 10
ENDMDL
MODEL 8
REMARK VINA RESULT:      -7.4      3.399      9.251
REMARK  Name = 
REMARK  12 active torsions:
REMARK  status: ('A' for Active; 'I' for Inactive)
REMARK    1  A    between atoms: C_1  and  C_2
REMARK    2  A    between atoms: C_2  and  C_3
REMARK    3  A    between atoms: C_2  and  C_4
REMARK    4  A    between atoms: C_4  and  N_5
REMARK    5  A    between atoms: C_4  and  C_29
REMARK    6  A    between atoms: C_6  and  C_8
REMARK    7  A    between atoms: C_8  and  N_9
REMARK    8  A    between atoms: C_11  and  C_12
REMARK    9  A    between atoms: C_12  and  C_13
REMARK   10  A    between atoms: C_20  and  N_21
REMARK   11  A    between atoms: C_22  and  C_24
REMARK   12  A    between atoms: C_29  and  C_31
REMARK                            x       y       z     vdW  Elec       q    Type
REMARK                         _______ _______ _______ _____ _____    ______ ____
ROOT
ATOM      1  N   UNL     1       3.840   6.544  17.552  0.00  0.00    +0.000 N 
ATOM      2  C   UNL     1       3.031   5.439  17.792  0.00  0.00    +0.000 A 
ATOM      3  C   UNL     1       3.211   4.291  17.122  0.00  0.00    +0.000 A 
ATOM      4  C   UNL     1       4.094   4.300  15.975  0.00  0.00    +0.000 A 
ATOM      5  C   UNL     1       4.975   5.284  15.755  0.00  0.00    +0.000 A 
ATOM      6  C   UNL     1       5.000   6.417  16.767  0.00  0.00    +0.000 A 
ATOM      7  O   UNL     1       5.947   7.198  16.809  0.00  0.00    +0.000 OA
ENDROOT
BRANCH   5   8
ATOM      8  N   UNL     1       5.833   5.349  14.672  0.00  0.00    +0.000 N 
ATOM      9  C   UNL     1       7.184   5.003  14.660  0.00  0.00    +0.000 C 
ATOM     10  O   UNL     1       7.844   4.552  15.584  0.00  0.00    +0.000 OA
ATOM     11  H   UNL     1       5.440   5.680  13.787  0.00  0.00    +0.000 HD
BRANCH   9  12
ATOM     12  C   UNL     1       7.884   5.213  13.313  0.00  0.00    +0.000 C 
ATOM     13  N   UNL     1       7.340   4.468  12.285  0.00  0.00    +0.000 N 
ATOM     14  O   UNL     1       8.841   5.961  13.200  0.00  0.00    +0.000 OA
ATOM     15  H   UNL     1       6.556   3.869  12.467  0.00  0.00    +0.000 HD
ATOM     16  H   UNL     1       7.745   4.522  11.360  0.00  0.00    +0.000 HD
ENDBRANCH   9  12
ENDBRANCH   5   8
BRANCH   1  17
ATOM     17  C   UNL     1       3.683   7.739  18.393  0.00  0.00    +0.000 C 
BRANCH  17  19
ATOM     18  N   UNL     1       1.646   9.094  18.831  0.00  0.00    +0.000 N 
ATOM     19  C   UNL     1       2.300   7.906  19.049  0.00  0.00    +0.000 C 
ATOM     20  O   UNL     1       1.774   6.982  19.674  0.00  0.00    +0.000 OA
ATOM     21  H   UNL     1       2.180   9.852  18.418  0.00  0.00    +0.000 HD
BRANCH  18  22
ATOM     22  C   UNL     1       0.359   9.425  19.457  0.00  0.00    +0.000 C 
BRANCH  22  24
ATOM     23  C   UNL     1      -1.197   9.748  17.432  0.00  0.00    +0.000 C 
ATOM     24  C   UNL     1      -0.456  10.418  18.595  0.00  0.00    +0.000 C 
ATOM     25  C   UNL     1      -1.462  11.197  19.450  0.00  0.00    +0.000 C 
ENDBRANCH  22  24
BRANCH  22  26
ATOM     26  C   UNL     1       0.609   9.988  20.864  0.00  0.00    +0.000 C 
ATOM     27  O   UNL     1       1.266  11.025  21.021  0.00  0.00    +0.000 OA
BRANCH  26  28
ATOM     28  C   UNL     1      -0.053   9.242  22.015  0.00  0.00    +0.000 C 
ATOM     29  F   UNL     1       0.815   8.890  23.002  0.00  0.00    +0.000 F 
ATOM     30  F   UNL     1      -1.034   9.972  22.613  0.00  0.00    +0.000 F 
ATOM     31  F   UNL     1      -0.635   8.080  21.605  0.00  0.00    +0.000 F 
ENDBRANCH  26  28
ENDBRANCH  22  26
ENDBRANCH  18  22
ENDBRANCH  17  19
ENDBRANCH   1  17
BRANCH   3  32
ATOM     32  C   UNL     1       2.561   2.975  17.495  0.00  0.00    +0.000 C 
BRANCH  32  33
ATOM     33  C   UNL     1       2.345   2.870  18.994  0.00  0.00    +0.000 A 
ATOM     34  C   UNL     1       1.095   3.180  19.550  0.00  0.00    +0.000 A 
ATOM     35  C   UNL     1       0.926   3.237  20.935  0.00  0.00    +0.000 A 
ATOM     36  C   UNL     1       1.999   2.970  21.782  0.00  0.00    +0.000 A 
ATOM     37  C   UNL     1       3.234   2.611  21.243  0.00  0.00    +0.000 A 
ATOM     38  C   UNL     1       3.408   2.561  19.858  0.00  0.00    +0.000 A 
ENDBRANCH  32  33
ENDBRANCH   3  32
TORSDOF 10
ENDMDL
MODEL 9
REMARK VINA RESULT:      -7.4      2.295      3.171
REMARK  Name = 
REMARK  12 active torsions:
REMARK  status: ('A' for Active; 'I' for Inactive)
REMARK    1  A    between atoms: C_1  and  C_2
REMARK    2  A    between atoms: C_2  and  C_3
REMARK    3  A    between atoms: C_2  and  C_4
REMARK    4  A    between atoms: C_4  and  N_5
REMARK    5  A    between atoms: C_4  and  C_29
REMARK    6  A    between atoms: C_6  and  C_8
REMARK    7  A    between atoms: C_8  and  N_9
REMARK    8  A    between atoms: C_11  and  C_12
REMARK    9  A    between atoms: C_12  and  C_13
REMARK   10  A    between atoms: C_20  and  N_21
REMARK   11  A    between atoms: C_22  and  C_24
REMARK   12  A    between atoms: C_29  and  C_31
REMARK                            x       y       z     vdW  Elec       q    Type
REMARK                         _______ _______ _______ _____ _____    ______ ____
ROOT
ATOM      1  N   UNL     1      -0.175   9.264  21.505  0.00  0.00    +0.000 N 
ATOM      2  C   UNL     1      -0.305   9.638  20.173  0.00  0.00    +0.000 A 
ATOM      3  C   UNL     1      -0.787  10.845  19.836  0.00  0.00    +0.000 A 
ATOM      4  C   UNL     1      -1.401  11.648  20.872  0.00  0.00    +0.000 A 
ATOM      5  C   UNL     1      -1.218  11.402  22.175  0.00  0.00    +0.000 A 
ATOM      6  C   UNL     1      -0.337  10.216  22.529  0.00  0.00    +0.000 A 
ATOM      7  O   UNL     1       0.115  10.088  23.663  0.00  0.00    +0.000 OA
ENDROOT
BRANCH   5   8
ATOM      8  N   UNL     1      -1.788  12.129  23.205  0.00  0.00    +0.000 N 
ATOM      9  C   UNL     1      -3.132  12.480  23.329  0.00  0.00    +0.000 C 
ATOM     10  O   UNL     1      -4.050  12.186  22.578  0.00  0.00    +0.000 OA
ATOM     11  H   UNL     1      -1.165  12.439  23.955  0.00  0.00    +0.000 HD
BRANCH   9  12
ATOM     12  C   UNL     1      -3.460  13.320  24.569  0.00  0.00    +0.000 C 
ATOM     13  N   UNL     1      -4.454  12.776  25.358  0.00  0.00    +0.000 N 
ATOM     14  O   UNL     1      -2.889  14.374  24.795  0.00  0.00    +0.000 OA
ATOM     15  H   UNL     1      -4.877  11.906  25.093  0.00  0.00    +0.000 HD
ATOM     16  H   UNL     1      -4.756  13.265  26.189  0.00  0.00    +0.000 HD
ENDBRANCH   9  12
ENDBRANCH   5   8
BRANCH   1  17
ATOM     17  C   UNL     1       0.468   7.983  21.827  0.00  0.00    +0.000 C 
BRANCH  17  19
ATOM     18  N   UNL     1       1.689   6.134  20.700  0.00  0.00    +0.000 N 
ATOM     19  C   UNL     1       1.507   7.492  20.801  0.00  0.00    +0.000 C 
ATOM     20  O   UNL     1       2.089   8.281  20.054  0.00  0.00    +0.000 OA
ATOM     21  H   UNL     1       1.277   5.553  21.423  0.00  0.00    +0.000 HD
BRANCH  18  22
ATOM     22  C   UNL     1       2.700   5.526  19.824  0.00  0.00    +0.000 C 
BRANCH  22  24
ATOM     23  C   UNL     1       3.633   6.145  17.507  0.00  0.00    +0.000 C 
ATOM     24  C   UNL     1       2.391   5.785  18.331  0.00  0.00    +0.000 C 
ATOM     25  C   UNL     1       1.695   4.579  17.691  0.00  0.00    +0.000 C 
ENDBRANCH  22  24
BRANCH  22  26
ATOM     26  C   UNL     1       2.786   4.021  20.119  0.00  0.00    +0.000 C 
ATOM     27  O   UNL     1       1.816   3.414  20.591  0.00  0.00    +0.000 OA
BRANCH  26  28
ATOM     28  C   UNL     1       4.087   3.333  19.730  0.00  0.00    +0.000 C 
ATOM     29  F   UNL     1       4.013   2.669  18.543  0.00  0.00    +0.000 F 
ATOM     30  F   UNL     1       5.124   4.206  19.614  0.00  0.00    +0.000 F 
ATOM     31  F   UNL     1       4.469   2.401  20.649  0.00  0.00    +0.000 F 
ENDBRANCH  26  28
ENDBRANCH  22  26
ENDBRANCH  18  22
ENDBRANCH  17  19
ENDBRANCH   1  17
BRANCH   3  32
ATOM     32  C   UNL     1      -0.720  11.431  18.442  0.00  0.00    +0.000 C 
BRANCH  32  33
ATOM     33  C   UNL     1      -1.930  11.032  17.616  0.00  0.00    +0.000 A 
ATOM     34  C   UNL     1      -1.839   9.978  16.694  0.00  0.00    +0.000 A 
ATOM     35  C   UNL     1      -2.893   9.703  15.821  0.00  0.00    +0.000 A 
ATOM     36  C   UNL     1      -4.058  10.466  15.868  0.00  0.00    +0.000 A 
ATOM     37  C   UNL     1      -4.181  11.483  16.813  0.00  0.00    +0.000 A 
ATOM     38  C   UNL     1      -3.126  11.767  17.682  0.00  0.00    +0.000 A 
ENDBRANCH  32  33
ENDBRANCH   3  32
TORSDOF 10
ENDMDL
