MODEL 1
REMARK VINA RESULT:      -7.8      0.000      0.000
REMARK  Name = 
REMARK  6 active torsions:
REMARK  status: ('A' for Active; 'I' for Inactive)
REMARK    1  A    between atoms: C_1  and  O_2
REMARK    2  A    between atoms: O_2  and  C_3
REMARK    3  A    between atoms: C_4  and  C_5
REMARK    4  A    between atoms: C_5  and  C_7
REMARK    5  A    between atoms: C_8  and  C_9
REMARK    6  A    between atoms: C_15  and  O_16
REMARK                            x       y       z     vdW  Elec       q    Type
REMARK                         _______ _______ _______ _____ _____    ______ ____
ROOT
ATOM      1  C   UNL     1       4.530   4.266  17.079  0.00  0.00    +0.000 A 
ATOM      2  C   UNL     1       4.948   4.577  18.413  0.00  0.00    +0.000 A 
ATOM      3  C   UNL     1       6.278   4.983  18.624  0.00  0.00    +0.000 A 
ATOM      4  C   UNL     1       7.212   5.084  17.590  0.00  0.00    +0.000 A 
ATOM      5  C   UNL     1       6.767   4.753  16.318  0.00  0.00    +0.000 A 
ATOM      6  O   UNL     1       7.553   4.767  15.206  0.00  0.00    +0.000 OA
ATOM      7  C   UNL     1       6.769   4.405  14.167  0.00  0.00    +0.000 A 
ATOM      8  C   UNL     1       5.482   4.175  14.594  0.00  0.00    +0.000 A 
ATOM      9  C   UNL     1       5.470   4.364  16.012  0.00  0.00    +0.000 A 
ENDROOT
BRANCH   1  11
ATOM     10  C   UNL     1       2.775   2.648  17.094  0.00  0.00    +0.000 C 
ATOM     11  O   UNL     1       3.186   3.993  16.881  0.00  0.00    +0.000 OA
ENDBRANCH   1  11
BRANCH   2  12
ATOM     12  C   UNL     1       3.966   4.401  19.553  0.00  0.00    +0.000 C 
ATOM     13  O   UNL     1       3.926   3.339  20.177  0.00  0.00    +0.000 OA
BRANCH  12  14
ATOM     14  C   UNL     1       3.061   5.524  19.966  0.00  0.00    +0.000 C 
ATOM     15  C   UNL     1       3.017   6.660  19.257  0.00  0.00    +0.000 C 
BRANCH  15  16
ATOM     16  C   UNL     1       2.061   7.731  19.572  0.00  0.00    +0.000 A 
ATOM     17  C   UNL     1       1.754   8.723  18.640  0.00  0.00    +0.000 A 
ATOM     18  C   UNL     1       0.835   9.729  18.958  0.00  0.00    +0.000 A 
ATOM     19  C   UNL     1       0.222   9.750  20.213  0.00  0.00    +0.000 A 
ATOM     20  C   UNL     1       0.529   8.765  21.152  0.00  0.00    +0.000 A 
ATOM     21  C   UNL     1       1.449   7.762  20.834  0.00  0.00    +0.000 A 
ENDBRANCH  15  16
ENDBRANCH  12  14
ENDBRANCH   2  12
BRANCH   3  22
ATOM     22  O   UNL     1       6.767   5.267  19.871  0.00  0.00    +0.000 OA
ATOM     23  H   UNL     1       6.504   4.531  20.454  0.00  0.00    +0.000 HD
ENDBRANCH   3  22
TORSDOF 5
ENDMDL
MODEL 2
REMARK VINA RESULT:      -7.7      0.091      1.032
REMARK  Name = 
REMARK  6 active torsions:
REMARK  status: ('A' for Active; 'I' for Inactive)
REMARK    1  A    between atoms: C_1  and  O_2
REMARK    2  A    between atoms: O_2  and  C_3
REMARK    3  A    between atoms: C_4  and  C_5
REMARK    4  A    between atoms: C_5  and  C_7
REMARK    5  A    between atoms: C_8  and  C_9
REMARK    6  A    between atoms: C_15  and  O_16
REMARK                            x       y       z     vdW  Elec       q    Type
REMARK                         _______ _______ _______ _____ _____    ______ ____
ROOT
ATOM      1  C   UNL     1       4.512   4.226  17.097  0.00  0.00    +0.000 A 
ATOM      2  C   UNL     1       4.913   4.556  18.431  0.00  0.00    +0.000 A 
ATOM      3  C   UNL     1       6.237   4.977  18.651  0.00  0.00    +0.000 A 
ATOM      4  C   UNL     1       7.180   5.076  17.625  0.00  0.00    +0.000 A 
ATOM      5  C   UNL     1       6.751   4.727  16.353  0.00  0.00    +0.000 A 
ATOM      6  O   UNL     1       7.548   4.735  15.248  0.00  0.00    +0.000 OA
ATOM      7  C   UNL     1       6.778   4.354  14.206  0.00  0.00    +0.000 A 
ATOM      8  C   UNL     1       5.490   4.116  14.623  0.00  0.00    +0.000 A 
ATOM      9  C   UNL     1       5.461   4.321  16.038  0.00  0.00    +0.000 A 
ENDROOT
BRANCH   1  11
ATOM     10  C   UNL     1       2.772   2.591  17.116  0.00  0.00    +0.000 C 
ATOM     11  O   UNL     1       3.172   3.937  16.888  0.00  0.00    +0.000 OA
ENDBRANCH   1  11
BRANCH   2  12
ATOM     12  C   UNL     1       3.921   4.383  19.563  0.00  0.00    +0.000 C 
ATOM     13  O   UNL     1       3.909   3.341  20.222  0.00  0.00    +0.000 OA
BRANCH  12  14
ATOM     14  C   UNL     1       2.972   5.486  19.926  0.00  0.00    +0.000 C 
ATOM     15  C   UNL     1       3.057   6.683  19.332  0.00  0.00    +0.000 C 
BRANCH  15  16
ATOM     16  C   UNL     1       2.074   7.746  19.585  0.00  0.00    +0.000 A 
ATOM     17  C   UNL     1       1.449   7.871  20.826  0.00  0.00    +0.000 A 
ATOM     18  C   UNL     1       0.521   8.895  21.048  0.00  0.00    +0.000 A 
ATOM     19  C   UNL     1       0.212   9.797  20.027  0.00  0.00    +0.000 A 
ATOM     20  C   UNL     1       0.829   9.673  18.782  0.00  0.00    +0.000 A 
ATOM     21  C   UNL     1       1.753   8.648  18.561  0.00  0.00    +0.000 A 
ENDBRANCH  15  16
ENDBRANCH  12  14
ENDBRANCH   2  12
BRANCH   3  22
ATOM     22  O   UNL     1       6.710   5.280  19.899  0.00  0.00    +0.000 OA
ATOM     23  H   UNL     1       7.512   5.822  19.776  0.00  0.00    +0.000 HD
ENDBRANCH   3  22
TORSDOF 5
ENDMDL
MODEL 3
REMARK VINA RESULT:      -7.7      2.063      6.865
REMARK  Name = 
REMARK  6 active torsions:
REMARK  status: ('A' for Active; 'I' for Inactive)
REMARK    1  A    between atoms: C_1  and  O_2
REMARK    2  A    between atoms: O_2  and  C_3
REMARK    3  A    between atoms: C_4  and  C_5
REMARK    4  A    between atoms: C_5  and  C_7
REMARK    5  A    between atoms: C_8  and  C_9
REMARK    6  A    between atoms: C_15  and  O_16
REMARK                            x       y       z     vdW  Elec       q    Type
REMARK                         _______ _______ _______ _____ _____    ______ ____
ROOT
ATOM      1  C   UNL     1       2.986   5.293  18.706  0.00  0.00    +0.000 A 
ATOM      2  C   UNL     1       4.349   5.080  18.325  0.00  0.00    +0.000 A 
ATOM      3  C   UNL     1       5.047   4.001  18.899  0.00  0.00    +0.000 A 
ATOM      4  C   UNL     1       4.470   3.136  19.832  0.00  0.00    +0.000 A 
ATOM      5  C   UNL     1       3.153   3.395  20.185  0.00  0.00    +0.000 A 
ATOM      6  O   UNL     1       2.451   2.671  21.102  0.00  0.00    +0.000 OA
ATOM      7  C   UNL     1       1.214   3.210  21.163  0.00  0.00    +0.000 A 
ATOM      8  C   UNL     1       1.105   4.261  20.283  0.00  0.00    +0.000 A 
ATOM      9  C   UNL     1       2.381   4.421  19.657  0.00  0.00    +0.000 A 
ENDROOT
BRANCH   1  11
ATOM     10  C   UNL     1       2.169   7.536  18.695  0.00  0.00    +0.000 C 
ATOM     11  O   UNL     1       2.285   6.282  18.034  0.00  0.00    +0.000 OA
ENDBRANCH   1  11
BRANCH   2  12
ATOM     12  C   UNL     1       5.009   6.052  17.371  0.00  0.00    +0.000 C 
ATOM     13  O   UNL     1       5.428   7.137  17.781  0.00  0.00    +0.000 OA
BRANCH  12  14
ATOM     14  C   UNL     1       5.201   5.697  15.926  0.00  0.00    +0.000 C 
ATOM     15  C   UNL     1       6.316   5.075  15.518  0.00  0.00    +0.000 C 
BRANCH  15  16
ATOM     16  C   UNL     1       6.483   4.617  14.132  0.00  0.00    +0.000 A 
ATOM     17  C   UNL     1       5.640   3.650  13.583  0.00  0.00    +0.000 A 
ATOM     18  C   UNL     1       5.812   3.234  12.258  0.00  0.00    +0.000 A 
ATOM     19  C   UNL     1       6.833   3.781  11.477  0.00  0.00    +0.000 A 
ATOM     20  C   UNL     1       7.682   4.744  12.021  0.00  0.00    +0.000 A 
ATOM     21  C   UNL     1       7.511   5.157  13.345  0.00  0.00    +0.000 A 
ENDBRANCH  15  16
ENDBRANCH  12  14
ENDBRANCH   2  12
BRANCH   3  22
ATOM     22  O   UNL     1       6.361   3.746  18.614  0.00  0.00    +0.000 OA
ATOM     23  H   UNL     1       6.375   3.032  17.949  0.00  0.00    +0.000 HD
ENDBRANCH   3  22
TORSDOF 5
ENDMDL
MODEL 4
REMARK VINA RESULT:      -7.7      2.015      6.801
REMARK  Name = 
REMARK  6 active torsions:
REMARK  status: ('A' for Active; 'I' for Inactive)
REMARK    1  A    between atoms: C_1  and  O_2
REMARK    2  A    between atoms: O_2  and  C_3
REMARK    3  A    between atoms: C_4  and  C_5
REMARK    4  A    between atoms: C_5  and  C_7
REMARK    5  A    between atoms: C_8  and  C_9
REMARK    6  A    between atoms: C_15  and  O_16
REMARK                            x       y       z     vdW  Elec       q    Type
REMARK                         _______ _______ _______ _____ _____    ______ ____
ROOT
ATOM      1  C   UNL     1       3.031   5.368  18.706  0.00  0.00    +0.000 A 
ATOM      2  C   UNL     1       4.390   5.168  18.303  0.00  0.00    +0.000 A 
ATOM      3  C   UNL     1       5.091   4.066  18.825  0.00  0.00    +0.000 A 
ATOM      4  C   UNL     1       4.521   3.165  19.729  0.00  0.00    +0.000 A 
ATOM      5  C   UNL     1       3.209   3.412  20.106  0.00  0.00    +0.000 A 
ATOM      6  O   UNL     1       2.515   2.653  20.999  0.00  0.00    +0.000 OA
ATOM      7  C   UNL     1       1.279   3.191  21.094  0.00  0.00    +0.000 A 
ATOM      8  C   UNL     1       1.163   4.277  20.259  0.00  0.00    +0.000 A 
ATOM      9  C   UNL     1       2.433   4.460  19.627  0.00  0.00    +0.000 A 
ENDROOT
BRANCH   1  11
ATOM     10  C   UNL     1       2.119   7.571  18.839  0.00  0.00    +0.000 C 
ATOM     11  O   UNL     1       2.325   6.385  18.081  0.00  0.00    +0.000 OA
ENDBRANCH   1  11
BRANCH   2  12
ATOM     12  C   UNL     1       5.042   6.177  17.381  0.00  0.00    +0.000 C 
ATOM     13  O   UNL     1       5.414   7.268  17.820  0.00  0.00    +0.000 OA
BRANCH  12  14
ATOM     14  C   UNL     1       5.282   5.853  15.936  0.00  0.00    +0.000 C 
ATOM     15  C   UNL     1       6.304   5.065  15.575  0.00  0.00    +0.000 C 
BRANCH  15  16
ATOM     16  C   UNL     1       6.498   4.640  14.181  0.00  0.00    +0.000 A 
ATOM     17  C   UNL     1       7.494   5.207  13.384  0.00  0.00    +0.000 A 
ATOM     18  C   UNL     1       7.666   4.782  12.062  0.00  0.00    +0.000 A 
ATOM     19  C   UNL     1       6.839   3.790  11.530  0.00  0.00    +0.000 A 
ATOM     20  C   UNL     1       5.838   3.224  12.318  0.00  0.00    +0.000 A 
ATOM     21  C   UNL     1       5.665   3.651  13.638  0.00  0.00    +0.000 A 
ENDBRANCH  15  16
ENDBRANCH  12  14
ENDBRANCH   2  12
BRANCH   3  22
ATOM     22  O   UNL     1       6.401   3.820  18.517  0.00  0.00    +0.000 OA
ATOM     23  H   UNL     1       6.756   3.243  19.219  0.00  0.00    +0.000 HD
ENDBRANCH   3  22
TORSDOF 5
ENDMDL
MODEL 5
REMARK VINA RESULT:      -7.3      3.710      5.635
REMARK  Name = 
REMARK  6 active torsions:
REMARK  status: ('A' for Active; 'I' for Inactive)
REMARK    1  A    between atoms: C_1  and  O_2
REMARK    2  A    between atoms: O_2  and  C_3
REMARK    3  A    between atoms: C_4  and  C_5
REMARK    4  A    between atoms: C_5  and  C_7
REMARK    5  A    between atoms: C_8  and  C_9
REMARK    6  A    between atoms: C_15  and  O_16
REMARK                            x       y       z     vdW  Elec       q    Type
REMARK                         _______ _______ _______ _____ _____    ______ ____
ROOT
ATOM      1  C   UNL     1       4.805   5.464  17.046  0.00  0.00    +0.000 A 
ATOM      2  C   UNL     1       6.005   5.728  17.780  0.00  0.00    +0.000 A 
ATOM      3  C   UNL     1       6.084   5.301  19.118  0.00  0.00    +0.000 A 
ATOM      4  C   UNL     1       5.035   4.642  19.766  0.00  0.00    +0.000 A 
ATOM      5  C   UNL     1       3.885   4.427  19.021  0.00  0.00    +0.000 A 
ATOM      6  O   UNL     1       2.761   3.829  19.505  0.00  0.00    +0.000 OA
ATOM      7  C   UNL     1       1.871   3.785  18.490  0.00  0.00    +0.000 A 
ATOM      8  C   UNL     1       2.414   4.332  17.352  0.00  0.00    +0.000 A 
ATOM      9  C   UNL     1       3.725   4.793  17.690  0.00  0.00    +0.000 A 
ENDROOT
BRANCH   1  11
ATOM     10  C   UNL     1       5.100   4.720  14.797  0.00  0.00    +0.000 C 
ATOM     11  O   UNL     1       4.801   5.781  15.697  0.00  0.00    +0.000 OA
ENDBRANCH   1  11
BRANCH   2  12
ATOM     12  C   UNL     1       7.121   6.506  17.114  0.00  0.00    +0.000 C 
ATOM     13  O   UNL     1       7.834   5.965  16.266  0.00  0.00    +0.000 OA
BRANCH  12  14
ATOM     14  C   UNL     1       7.349   7.952  17.442  0.00  0.00    +0.000 C 
ATOM     15  C   UNL     1       8.363   8.320  18.236  0.00  0.00    +0.000 C 
BRANCH  15  16
ATOM     16  C   UNL     1       8.678   9.734  18.486  0.00  0.00    +0.000 A 
ATOM     17  C   UNL     1       8.290  10.730  17.588  0.00  0.00    +0.000 A 
ATOM     18  C   UNL     1       8.593  12.071  17.850  0.00  0.00    +0.000 A 
ATOM     19  C   UNL     1       9.290  12.421  19.009  0.00  0.00    +0.000 A 
ATOM     20  C   UNL     1       9.685  11.430  19.907  0.00  0.00    +0.000 A 
ATOM     21  C   UNL     1       9.384  10.090  19.643  0.00  0.00    +0.000 A 
ENDBRANCH  15  16
ENDBRANCH  12  14
ENDBRANCH   2  12
BRANCH   3  22
ATOM     22  O   UNL     1       7.181   5.541  19.899  0.00  0.00    +0.000 OA
ATOM     23  H   UNL     1       7.377   6.495  19.831  0.00  0.00    +0.000 HD
ENDBRANCH   3  22
TORSDOF 5
ENDMDL
MODEL 6
REMARK VINA RESULT:      -7.2      2.501      6.699
REMARK  Name = 
REMARK  6 active torsions:
REMARK  status: ('A' for Active; 'I' for Inactive)
REMARK    1  A    between atoms: C_1  and  O_2
REMARK    2  A    between atoms: O_2  and  C_3
REMARK    3  A    between atoms: C_4  and  C_5
REMARK    4  A    between atoms: C_5  and  C_7
REMARK    5  A    between atoms: C_8  and  C_9
REMARK    6  A    between atoms: C_15  and  O_16
REMARK                            x       y       z     vdW  Elec       q    Type
REMARK                         _______ _______ _______ _____ _____    ______ ____
ROOT
ATOM      1  C   UNL     1       4.261   3.542  19.122  0.00  0.00    +0.000 A 
ATOM      2  C   UNL     1       4.722   4.790  18.593  0.00  0.00    +0.000 A 
ATOM      3  C   UNL     1       3.777   5.795  18.318  0.00  0.00    +0.000 A 
ATOM      4  C   UNL     1       2.407   5.624  18.529  0.00  0.00    +0.000 A 
ATOM      5  C   UNL     1       2.005   4.392  19.024  0.00  0.00    +0.000 A 
ATOM      6  O   UNL     1       0.708   4.048  19.257  0.00  0.00    +0.000 OA
ATOM      7  C   UNL     1       0.717   2.788  19.746  0.00  0.00    +0.000 A 
ATOM      8  C   UNL     1       2.007   2.323  19.847  0.00  0.00    +0.000 A 
ATOM      9  C   UNL     1       2.866   3.350  19.343  0.00  0.00    +0.000 A 
ENDROOT
BRANCH   1  11
ATOM     10  C   UNL     1       4.916   1.817  20.637  0.00  0.00    +0.000 C 
ATOM     11  O   UNL     1       5.221   2.618  19.501  0.00  0.00    +0.000 OA
ENDBRANCH   1  11
BRANCH   2  12
ATOM     12  C   UNL     1       6.196   4.962  18.290  0.00  0.00    +0.000 C 
ATOM     13  O   UNL     1       6.997   5.170  19.205  0.00  0.00    +0.000 OA
BRANCH  12  14
ATOM     14  C   UNL     1       6.710   4.843  16.886  0.00  0.00    +0.000 C 
ATOM     15  C   UNL     1       5.931   4.350  15.914  0.00  0.00    +0.000 C 
BRANCH  15  16
ATOM     16  C   UNL     1       6.367   4.324  14.511  0.00  0.00    +0.000 A 
ATOM     17  C   UNL     1       5.751   3.490  13.577  0.00  0.00    +0.000 A 
ATOM     18  C   UNL     1       6.177   3.488  12.244  0.00  0.00    +0.000 A 
ATOM     19  C   UNL     1       7.225   4.318  11.840  0.00  0.00    +0.000 A 
ATOM     20  C   UNL     1       7.849   5.150  12.769  0.00  0.00    +0.000 A 
ATOM     21  C   UNL     1       7.425   5.149  14.101  0.00  0.00    +0.000 A 
ENDBRANCH  15  16
ENDBRANCH  12  14
ENDBRANCH   2  12
BRANCH   3  22
ATOM     22  O   UNL     1       4.130   7.004  17.782  0.00  0.00    +0.000 OA
ATOM     23  H   UNL     1       3.351   7.586  17.853  0.00  0.00    +0.000 HD
ENDBRANCH   3  22
TORSDOF 5
ENDMDL
MODEL 7
REMARK VINA RESULT:      -7.2      3.806      5.853
REMARK  Name = 
REMARK  6 active torsions:
REMARK  status: ('A' for Active; 'I' for Inactive)
REMARK    1  A    between atoms: C_1  and  O_2
REMARK    2  A    between atoms: O_2  and  C_3
REMARK    3  A    between atoms: C_4  and  C_5
REMARK    4  A    between atoms: C_5  and  C_7
REMARK    5  A    between atoms: C_8  and  C_9
REMARK    6  A    between atoms: C_15  and  O_16
REMARK                            x       y       z     vdW  Elec       q    Type
REMARK                         _______ _______ _______ _____ _____    ______ ____
ROOT
ATOM      1  C   UNL     1       4.390   6.218  17.783  0.00  0.00    +0.000 A 
ATOM      2  C   UNL     1       5.766   5.823  17.746  0.00  0.00    +0.000 A 
ATOM      3  C   UNL     1       6.142   4.634  18.398  0.00  0.00    +0.000 A 
ATOM      4  C   UNL     1       5.233   3.829  19.090  0.00  0.00    +0.000 A 
ATOM      5  C   UNL     1       3.915   4.264  19.115  0.00  0.00    +0.000 A 
ATOM      6  O   UNL     1       2.910   3.618  19.769  0.00  0.00    +0.000 OA
ATOM      7  C   UNL     1       1.781   4.328  19.553  0.00  0.00    +0.000 A 
ATOM      8  C   UNL     1       2.044   5.415  18.753  0.00  0.00    +0.000 A 
ATOM      9  C   UNL     1       3.449   5.410  18.485  0.00  0.00    +0.000 A 
ENDROOT
BRANCH   1  11
ATOM     10  C   UNL     1       3.122   8.236  17.640  0.00  0.00    +0.000 C 
ATOM     11  O   UNL     1       4.025   7.322  17.029  0.00  0.00    +0.000 OA
ENDBRANCH   1  11
BRANCH   2  12
ATOM     12  C   UNL     1       6.774   6.723  17.062  0.00  0.00    +0.000 C 
ATOM     13  O   UNL     1       7.336   6.352  16.029  0.00  0.00    +0.000 OA
BRANCH  12  14
ATOM     14  C   UNL     1       7.073   8.089  17.605  0.00  0.00    +0.000 C 
ATOM     15  C   UNL     1       8.325   8.432  17.937  0.00  0.00    +0.000 C 
BRANCH  15  16
ATOM     16  C   UNL     1       8.666   9.796  18.365  0.00  0.00    +0.000 A 
ATOM     17  C   UNL     1       8.355  10.902  17.573  0.00  0.00    +0.000 A 
ATOM     18  C   UNL     1       8.682  12.192  18.004  0.00  0.00    +0.000 A 
ATOM     19  C   UNL     1       9.325  12.382  19.229  0.00  0.00    +0.000 A 
ATOM     20  C   UNL     1       9.644  11.281  20.023  0.00  0.00    +0.000 A 
ATOM     21  C   UNL     1       9.320   9.992  19.590  0.00  0.00    +0.000 A 
ENDBRANCH  15  16
ENDBRANCH  12  14
ENDBRANCH   2  12
BRANCH   3  22
ATOM     22  O   UNL     1       7.439   4.201  18.437  0.00  0.00    +0.000 OA
ATOM     23  H   UNL     1       7.946   4.864  18.942  0.00  0.00    +0.000 HD
ENDBRANCH   3  22
TORSDOF 5
ENDMDL
MODEL 8
REMARK VINA RESULT:      -7.2      2.420      6.726
REMARK  Name = 
REMARK  6 active torsions:
REMARK  status: ('A' for Active; 'I' for Inactive)
REMARK    1  A    between atoms: C_1  and  O_2
REMARK    2  A    between atoms: O_2  and  C_3
REMARK    3  A    between atoms: C_4  and  C_5
REMARK    4  A    between atoms: C_5  and  C_7
REMARK    5  A    between atoms: C_8  and  C_9
REMARK    6  A    between atoms: C_15  and  O_16
REMARK                            x       y       z     vdW  Elec       q    Type
REMARK                         _______ _______ _______ _____ _____    ______ ____
ROOT
ATOM      1  C   UNL     1       4.227   3.531  19.325  0.00  0.00    +0.000 A 
ATOM      2  C   UNL     1       4.739   4.740  18.754  0.00  0.00    +0.000 A 
ATOM      3  C   UNL     1       3.867   5.833  18.597  0.00  0.00    +0.000 A 
ATOM      4  C   UNL     1       2.519   5.784  18.962  0.00  0.00    +0.000 A 
ATOM      5  C   UNL     1       2.063   4.586  19.493  0.00  0.00    +0.000 A 
ATOM      6  O   UNL     1       0.775   4.358  19.871  0.00  0.00    +0.000 OA
ATOM      7  C   UNL     1       0.723   3.095  20.348  0.00  0.00    +0.000 A 
ATOM      8  C   UNL     1       1.967   2.512  20.297  0.00  0.00    +0.000 A 
ATOM      9  C   UNL     1       2.855   3.464  19.704  0.00  0.00    +0.000 A 
ENDROOT
BRANCH   1  11
ATOM     10  C   UNL     1       4.915   1.761  20.771  0.00  0.00    +0.000 C 
ATOM     11  O   UNL     1       5.134   2.517  19.586  0.00  0.00    +0.000 OA
ENDBRANCH   1  11
BRANCH   2  12
ATOM     12  C   UNL     1       6.179   4.782  18.286  0.00  0.00    +0.000 C 
ATOM     13  O   UNL     1       7.074   5.116  19.064  0.00  0.00    +0.000 OA
BRANCH  12  14
ATOM     14  C   UNL     1       6.542   4.380  16.887  0.00  0.00    +0.000 C 
ATOM     15  C   UNL     1       5.869   4.874  15.839  0.00  0.00    +0.000 C 
BRANCH  15  16
ATOM     16  C   UNL     1       6.272   4.586  14.455  0.00  0.00    +0.000 A 
ATOM     17  C   UNL     1       7.377   5.214  13.878  0.00  0.00    +0.000 A 
ATOM     18  C   UNL     1       7.747   4.919  12.561  0.00  0.00    +0.000 A 
ATOM     19  C   UNL     1       7.011   3.997  11.814  0.00  0.00    +0.000 A 
ATOM     20  C   UNL     1       5.903   3.370  12.383  0.00  0.00    +0.000 A 
ATOM     21  C   UNL     1       5.531   3.668  13.697  0.00  0.00    +0.000 A 
ENDBRANCH  15  16
ENDBRANCH  12  14
ENDBRANCH   2  12
BRANCH   3  22
ATOM     22  O   UNL     1       4.267   7.012  18.031  0.00  0.00    +0.000 OA
ATOM     23  H   UNL     1       5.213   6.917  17.813  0.00  0.00    +0.000 HD
ENDBRANCH   3  22
TORSDOF 5
ENDMDL
MODEL 9
REMARK VINA RESULT:      -7.2      3.699      5.937
REMARK  Name = 
REMARK  6 active torsions:
REMARK  status: ('A' for Active; 'I' for Inactive)
REMARK    1  A    between atoms: C_1  and  O_2
REMARK    2  A    between atoms: O_2  and  C_3
REMARK    3  A    between atoms: C_4  and  C_5
REMARK    4  A    between atoms: C_5  and  C_7
REMARK    5  A    between atoms: C_8  and  C_9
REMARK    6  A    between atoms: C_15  and  O_16
REMARK                            x       y       z     vdW  Elec       q    Type
REMARK                         _______ _______ _______ _____ _____    ______ ____
ROOT
ATOM      1  C   UNL     1       4.160   6.162  17.929  0.00  0.00    +0.000 A 
ATOM      2  C   UNL     1       5.534   5.783  17.798  0.00  0.00    +0.000 A 
ATOM      3  C   UNL     1       5.974   4.612  18.444  0.00  0.00    +0.000 A 
ATOM      4  C   UNL     1       5.129   3.811  19.216  0.00  0.00    +0.000 A 
ATOM      5  C   UNL     1       3.810   4.229  19.329  0.00  0.00    +0.000 A 
ATOM      6  O   UNL     1       2.865   3.584  20.067  0.00  0.00    +0.000 OA
ATOM      7  C   UNL     1       1.713   4.275  19.920  0.00  0.00    +0.000 A 
ATOM      8  C   UNL     1       1.902   5.349  19.083  0.00  0.00    +0.000 A 
ATOM      9  C   UNL     1       3.284   5.356  18.712  0.00  0.00    +0.000 A 
ENDROOT
BRANCH   1  11
ATOM     10  C   UNL     1       2.909   8.194  17.858  0.00  0.00    +0.000 C 
ATOM     11  O   UNL     1       3.725   7.246  17.182  0.00  0.00    +0.000 OA
ENDBRANCH   1  11
BRANCH   2  12
ATOM     12  C   UNL     1       6.477   6.682  17.026  0.00  0.00    +0.000 C 
ATOM     13  O   UNL     1       6.910   6.328  15.927  0.00  0.00    +0.000 OA
BRANCH  12  14
ATOM     14  C   UNL     1       6.865   8.028  17.562  0.00  0.00    +0.000 C 
ATOM     15  C   UNL     1       8.138   8.293  17.885  0.00  0.00    +0.000 C 
BRANCH  15  16
ATOM     16  C   UNL     1       8.566   9.635  18.307  0.00  0.00    +0.000 A 
ATOM     17  C   UNL     1       9.261   9.830  19.501  0.00  0.00    +0.000 A 
ATOM     18  C   UNL     1       9.666  11.115  19.879  0.00  0.00    +0.000 A 
ATOM     19  C   UNL     1       9.373  12.212  19.066  0.00  0.00    +0.000 A 
ATOM     20  C   UNL     1       8.674  12.024  17.874  0.00  0.00    +0.000 A 
ATOM     21  C   UNL     1       8.267  10.741  17.498  0.00  0.00    +0.000 A 
ENDBRANCH  15  16
ENDBRANCH  12  14
ENDBRANCH   2  12
BRANCH   3  22
ATOM     22  O   UNL     1       7.276   4.197  18.397  0.00  0.00    +0.000 OA
ATOM     23  H   UNL     1       7.758   4.831  17.834  0.00  0.00    +0.000 HD
ENDBRANCH   3  22
TORSDOF 5
ENDMDL
