MODEL 1
REMARK VINA RESULT:      -8.0      0.000      0.000
REMARK  Name = 
REMARK  5 active torsions:
REMARK  status: ('A' for Active; 'I' for Inactive)
REMARK    1  A    between atoms: C_1  and  C_2
REMARK    2  A    between atoms: C_4  and  N_5
REMARK    3  A    between atoms: C_10  and  N_11
REMARK    4  A    between atoms: C_12  and  C_14
REMARK    5  A    between atoms: C_17  and  C_18
REMARK                            x       y       z     vdW  Elec       q    Type
REMARK                         _______ _______ _______ _____ _____    ______ ____
ROOT
ATOM      1  N   UNL     1       2.392   7.437  18.601  0.00  0.00    +0.000 N 
ATOM      2  C   UNL     1       1.939   8.677  18.132  0.00  0.00    +0.000 C 
ATOM      3  O   UNL     1       2.321   9.250  17.119  0.00  0.00    +0.000 OA
ATOM      4  H   UNL     1       2.108   7.161  19.530  0.00  0.00    +0.000 HD
ENDROOT
BRANCH   1  11
ATOM      5  C   UNL     1       1.876   4.509  17.962  0.00  0.00    +0.000 C 
ATOM      6  C   UNL     1       3.165   5.249  17.713  0.00  0.00    +0.000 A 
ATOM      7  C   UNL     1       4.229   4.468  17.201  0.00  0.00    +0.000 A 
ATOM      8  C   UNL     1       5.439   5.061  16.826  0.00  0.00    +0.000 A 
ATOM      9  C   UNL     1       5.612   6.432  16.972  0.00  0.00    +0.000 A 
ATOM     10  C   UNL     1       4.595   7.193  17.552  0.00  0.00    +0.000 A 
ATOM     11  C   UNL     1       3.377   6.626  17.965  0.00  0.00    +0.000 A 
BRANCH   8  12
ATOM     12  N   UNL     1       6.510   4.245  16.243  0.00  0.00    +0.000 N 
ATOM     13  O   UNL     1       6.204   3.462  15.331  0.00  0.00    +0.000 OA
ATOM     14  O   UNL     1       7.655   4.385  16.691  0.00  0.00    +0.000 OA
ENDBRANCH   8  12
ENDBRANCH   1  11
BRANCH   2  15
ATOM     15  C   UNL     1       0.922   9.386  18.956  0.00  0.00    +0.000 A 
ATOM     16  C   UNL     1       1.035   9.321  20.358  0.00  0.00    +0.000 A 
ATOM     17  C   UNL     1       0.203  10.085  21.184  0.00  0.00    +0.000 A 
ATOM     18  C   UNL     1      -0.752  10.961  20.637  0.00  0.00    +0.000 A 
ATOM     19  C   UNL     1      -0.868  10.982  19.237  0.00  0.00    +0.000 A 
ATOM     20  C   UNL     1      -0.067  10.196  18.403  0.00  0.00    +0.000 A 
BRANCH  18  21
ATOM     21  C   UNL     1      -1.618  11.802  21.494  0.00  0.00    +0.000 A 
ATOM     22  C   UNL     1      -1.748  11.575  22.874  0.00  0.00    +0.000 A 
ATOM     23  C   UNL     1      -2.593  12.365  23.661  0.00  0.00    +0.000 A 
ATOM     24  C   UNL     1      -3.309  13.409  23.087  0.00  0.00    +0.000 A 
ATOM     25  C   UNL     1      -3.182  13.672  21.730  0.00  0.00    +0.000 A 
ATOM     26  C   UNL     1      -2.348  12.872  20.944  0.00  0.00    +0.000 A 
ENDBRANCH  18  21
ENDBRANCH   2  15
TORSDOF 4
ENDMDL
MODEL 2
REMARK VINA RESULT:      -7.9      4.289     10.208
REMARK  Name = 
REMARK  5 active torsions:
REMARK  status: ('A' for Active; 'I' for Inactive)
REMARK    1  A    between atoms: C_1  and  C_2
REMARK    2  A    between atoms: C_4  and  N_5
REMARK    3  A    between atoms: C_10  and  N_11
REMARK    4  A    between atoms: C_12  and  C_14
REMARK    5  A    between atoms: C_17  and  C_18
REMARK                            x       y       z     vdW  Elec       q    Type
REMARK                         _______ _______ _______ _____ _____    ______ ____
ROOT
ATOM      1  N   UNL     1       0.096  11.146  21.490  0.00  0.00    +0.000 N 
ATOM      2  C   UNL     1      -0.136  10.728  20.173  0.00  0.00    +0.000 C 
ATOM      3  O   UNL     1      -1.066  11.076  19.456  0.00  0.00    +0.000 OA
ATOM      4  H   UNL     1       0.807  10.657  22.013  0.00  0.00    +0.000 HD
ENDROOT
BRANCH   1  11
ATOM      5  C   UNL     1       0.743  14.115  21.599  0.00  0.00    +0.000 C 
ATOM      6  C   UNL     1      -0.395  13.437  22.318  0.00  0.00    +0.000 A 
ATOM      7  C   UNL     1      -1.168  14.269  23.163  0.00  0.00    +0.000 A 
ATOM      8  C   UNL     1      -2.315  13.781  23.796  0.00  0.00    +0.000 A 
ATOM      9  C   UNL     1      -2.698  12.459  23.613  0.00  0.00    +0.000 A 
ATOM     10  C   UNL     1      -1.893  11.612  22.847  0.00  0.00    +0.000 A 
ATOM     11  C   UNL     1      -0.720  12.062  22.217  0.00  0.00    +0.000 A 
BRANCH   8  12
ATOM     12  N   UNL     1      -3.136  14.674  24.622  0.00  0.00    +0.000 N 
ATOM     13  O   UNL     1      -2.689  15.003  25.732  0.00  0.00    +0.000 OA
ATOM     14  O   UNL     1      -4.223  15.049  24.167  0.00  0.00    +0.000 OA
ENDBRANCH   8  12
ENDBRANCH   1  11
BRANCH   2  15
ATOM     15  C   UNL     1       0.818   9.740  19.596  0.00  0.00    +0.000 A 
ATOM     16  C   UNL     1       1.237   8.665  20.403  0.00  0.00    +0.000 A 
ATOM     17  C   UNL     1       2.010   7.627  19.874  0.00  0.00    +0.000 A 
ATOM     18  C   UNL     1       2.369   7.612  18.513  0.00  0.00    +0.000 A 
ATOM     19  C   UNL     1       1.967   8.711  17.737  0.00  0.00    +0.000 A 
ATOM     20  C   UNL     1       1.225   9.774  18.263  0.00  0.00    +0.000 A 
BRANCH  18  21
ATOM     21  C   UNL     1       3.158   6.504  17.929  0.00  0.00    +0.000 A 
ATOM     22  C   UNL     1       2.715   5.171  17.965  0.00  0.00    +0.000 A 
ATOM     23  C   UNL     1       3.489   4.136  17.432  0.00  0.00    +0.000 A 
ATOM     24  C   UNL     1       4.713   4.416  16.833  0.00  0.00    +0.000 A 
ATOM     25  C   UNL     1       5.165   5.725  16.761  0.00  0.00    +0.000 A 
ATOM     26  C   UNL     1       4.395   6.756  17.309  0.00  0.00    +0.000 A 
ENDBRANCH  18  21
ENDBRANCH   2  15
TORSDOF 4
ENDMDL
MODEL 3
REMARK VINA RESULT:      -7.8      3.327     10.106
REMARK  Name = 
REMARK  5 active torsions:
REMARK  status: ('A' for Active; 'I' for Inactive)
REMARK    1  A    between atoms: C_1  and  C_2
REMARK    2  A    between atoms: C_4  and  N_5
REMARK    3  A    between atoms: C_10  and  N_11
REMARK    4  A    between atoms: C_12  and  C_14
REMARK    5  A    between atoms: C_17  and  C_18
REMARK                            x       y       z     vdW  Elec       q    Type
REMARK                         _______ _______ _______ _____ _____    ______ ____
ROOT
ATOM      1  N   UNL     1       2.327   7.963  18.738  0.00  0.00    +0.000 N 
ATOM      2  C   UNL     1       2.854   6.672  18.878  0.00  0.00    +0.000 C 
ATOM      3  O   UNL     1       2.680   5.918  19.827  0.00  0.00    +0.000 OA
ATOM      4  H   UNL     1       2.682   8.530  17.982  0.00  0.00    +0.000 HD
ENDROOT
BRANCH   1  11
ATOM      5  C   UNL     1       0.143   9.892  17.869  0.00  0.00    +0.000 C 
ATOM      6  C   UNL     1       0.502   9.555  19.293  0.00  0.00    +0.000 A 
ATOM      7  C   UNL     1      -0.211  10.266  20.289  0.00  0.00    +0.000 A 
ATOM      8  C   UNL     1      -0.047   9.963  21.644  0.00  0.00    +0.000 A 
ATOM      9  C   UNL     1       0.839   8.964  22.028  0.00  0.00    +0.000 A 
ATOM     10  C   UNL     1       1.605   8.317  21.055  0.00  0.00    +0.000 A 
ATOM     11  C   UNL     1       1.484   8.614  19.687  0.00  0.00    +0.000 A 
BRANCH   8  12
ATOM     12  N   UNL     1      -0.836  10.671  22.658  0.00  0.00    +0.000 N 
ATOM     13  O   UNL     1      -0.693  10.328  23.841  0.00  0.00    +0.000 OA
ATOM     14  O   UNL     1      -1.597  11.570  22.278  0.00  0.00    +0.000 OA
ENDBRANCH   8  12
ENDBRANCH   1  11
BRANCH   2  15
ATOM     15  C   UNL     1       3.739   6.178  17.788  0.00  0.00    +0.000 A 
ATOM     16  C   UNL     1       3.665   4.819  17.429  0.00  0.00    +0.000 A 
ATOM     17  C   UNL     1       4.358   4.327  16.319  0.00  0.00    +0.000 A 
ATOM     18  C   UNL     1       5.129   5.183  15.510  0.00  0.00    +0.000 A 
ATOM     19  C   UNL     1       5.215   6.527  15.907  0.00  0.00    +0.000 A 
ATOM     20  C   UNL     1       4.555   7.023  17.037  0.00  0.00    +0.000 A 
BRANCH  18  21
ATOM     21  C   UNL     1       5.841   4.687  14.311  0.00  0.00    +0.000 A 
ATOM     22  C   UNL     1       7.118   5.153  13.955  0.00  0.00    +0.000 A 
ATOM     23  C   UNL     1       7.762   4.692  12.802  0.00  0.00    +0.000 A 
ATOM     24  C   UNL     1       7.150   3.740  11.993  0.00  0.00    +0.000 A 
ATOM     25  C   UNL     1       5.901   3.243  12.333  0.00  0.00    +0.000 A 
ATOM     26  C   UNL     1       5.253   3.718  13.478  0.00  0.00    +0.000 A 
ENDBRANCH  18  21
ENDBRANCH   2  15
TORSDOF 4
ENDMDL
MODEL 4
REMARK VINA RESULT:      -7.8      3.427     10.185
REMARK  Name = 
REMARK  5 active torsions:
REMARK  status: ('A' for Active; 'I' for Inactive)
REMARK    1  A    between atoms: C_1  and  C_2
REMARK    2  A    between atoms: C_4  and  N_5
REMARK    3  A    between atoms: C_10  and  N_11
REMARK    4  A    between atoms: C_12  and  C_14
REMARK    5  A    between atoms: C_17  and  C_18
REMARK                            x       y       z     vdW  Elec       q    Type
REMARK                         _______ _______ _______ _____ _____    ______ ____
ROOT
ATOM      1  N   UNL     1       2.569   7.652  18.582  0.00  0.00    +0.000 N 
ATOM      2  C   UNL     1       3.331   6.493  18.778  0.00  0.00    +0.000 C 
ATOM      3  O   UNL     1       3.450   5.873  19.828  0.00  0.00    +0.000 OA
ATOM      4  H   UNL     1       2.690   8.145  17.709  0.00  0.00    +0.000 HD
ENDROOT
BRANCH   1  11
ATOM      5  C   UNL     1       1.081  10.241  18.009  0.00  0.00    +0.000 C 
ATOM      6  C   UNL     1       1.138   9.537  19.340  0.00  0.00    +0.000 A 
ATOM      7  C   UNL     1       0.492  10.199  20.411  0.00  0.00    +0.000 A 
ATOM      8  C   UNL     1       0.382   9.595  21.667  0.00  0.00    +0.000 A 
ATOM      9  C   UNL     1       0.927   8.335  21.880  0.00  0.00    +0.000 A 
ATOM     10  C   UNL     1       1.637   7.713  20.849  0.00  0.00    +0.000 A 
ATOM     11  C   UNL     1       1.789   8.303  19.583  0.00  0.00    +0.000 A 
BRANCH   8  12
ATOM     12  N   UNL     1      -0.342  10.271  22.749  0.00  0.00    +0.000 N 
ATOM     13  O   UNL     1      -0.092   9.923  23.913  0.00  0.00    +0.000 OA
ATOM     14  O   UNL     1      -1.157  11.150  22.442  0.00  0.00    +0.000 OA
ENDBRANCH   8  12
ENDBRANCH   1  11
BRANCH   2  15
ATOM     15  C   UNL     1       4.101   5.980  17.611  0.00  0.00    +0.000 A 
ATOM     16  C   UNL     1       4.040   4.604  17.322  0.00  0.00    +0.000 A 
ATOM     17  C   UNL     1       4.616   4.086  16.157  0.00  0.00    +0.000 A 
ATOM     18  C   UNL     1       5.251   4.930  15.228  0.00  0.00    +0.000 A 
ATOM     19  C   UNL     1       5.329   6.294  15.555  0.00  0.00    +0.000 A 
ATOM     20  C   UNL     1       4.788   6.817  16.733  0.00  0.00    +0.000 A 
BRANCH  18  21
ATOM     21  C   UNL     1       5.837   4.405  13.974  0.00  0.00    +0.000 A 
ATOM     22  C   UNL     1       5.171   3.458  13.177  0.00  0.00    +0.000 A 
ATOM     23  C   UNL     1       5.756   2.954  12.010  0.00  0.00    +0.000 A 
ATOM     24  C   UNL     1       7.009   3.401  11.607  0.00  0.00    +0.000 A 
ATOM     25  C   UNL     1       7.680   4.354  12.360  0.00  0.00    +0.000 A 
ATOM     26  C   UNL     1       7.100   4.845  13.534  0.00  0.00    +0.000 A 
ENDBRANCH  18  21
ENDBRANCH   2  15
TORSDOF 4
ENDMDL
MODEL 5
REMARK VINA RESULT:      -7.7      4.160     10.136
REMARK  Name = 
REMARK  5 active torsions:
REMARK  status: ('A' for Active; 'I' for Inactive)
REMARK    1  A    between atoms: C_1  and  C_2
REMARK    2  A    between atoms: C_4  and  N_5
REMARK    3  A    between atoms: C_10  and  N_11
REMARK    4  A    between atoms: C_12  and  C_14
REMARK    5  A    between atoms: C_17  and  C_18
REMARK                            x       y       z     vdW  Elec       q    Type
REMARK                         _______ _______ _______ _____ _____    ______ ____
ROOT
ATOM      1  N   UNL     1       0.478  11.030  21.239  0.00  0.00    +0.000 N 
ATOM      2  C   UNL     1       0.103  10.379  20.056  0.00  0.00    +0.000 C 
ATOM      3  O   UNL     1      -0.963  10.507  19.466  0.00  0.00    +0.000 OA
ATOM      4  H   UNL     1       1.317  10.709  21.699  0.00  0.00    +0.000 HD
ENDROOT
BRANCH   1  11
ATOM      5  C   UNL     1       1.046  14.016  21.149  0.00  0.00    +0.000 C 
ATOM      6  C   UNL     1      -0.036  13.351  21.961  0.00  0.00    +0.000 A 
ATOM      7  C   UNL     1      -0.791  14.210  22.795  0.00  0.00    +0.000 A 
ATOM      8  C   UNL     1      -1.892  13.731  23.511  0.00  0.00    +0.000 A 
ATOM      9  C   UNL     1      -2.246  12.391  23.421  0.00  0.00    +0.000 A 
ATOM     10  C   UNL     1      -1.456  11.523  22.664  0.00  0.00    +0.000 A 
ATOM     11  C   UNL     1      -0.327  11.965  21.953  0.00  0.00    +0.000 A 
BRANCH   8  12
ATOM     12  N   UNL     1      -2.697  14.648  24.325  0.00  0.00    +0.000 N 
ATOM     13  O   UNL     1      -3.758  14.215  24.801  0.00  0.00    +0.000 OA
ATOM     14  O   UNL     1      -2.274  15.799  24.494  0.00  0.00    +0.000 OA
ENDBRANCH   8  12
ENDBRANCH   1  11
BRANCH   2  15
ATOM     15  C   UNL     1       1.075   9.412  19.475  0.00  0.00    +0.000 A 
ATOM     16  C   UNL     1       1.436   8.285  20.239  0.00  0.00    +0.000 A 
ATOM     17  C   UNL     1       2.225   7.268  19.693  0.00  0.00    +0.000 A 
ATOM     18  C   UNL     1       2.659   7.327  18.356  0.00  0.00    +0.000 A 
ATOM     19  C   UNL     1       2.315   8.476  17.625  0.00  0.00    +0.000 A 
ATOM     20  C   UNL     1       1.557   9.517  18.171  0.00  0.00    +0.000 A 
BRANCH  18  21
ATOM     21  C   UNL     1       3.466   6.244  17.751  0.00  0.00    +0.000 A 
ATOM     22  C   UNL     1       4.657   6.501  17.052  0.00  0.00    +0.000 A 
ATOM     23  C   UNL     1       5.390   5.464  16.464  0.00  0.00    +0.000 A 
ATOM     24  C   UNL     1       4.956   4.148  16.581  0.00  0.00    +0.000 A 
ATOM     25  C   UNL     1       3.796   3.861  17.285  0.00  0.00    +0.000 A 
ATOM     26  C   UNL     1       3.058   4.901  17.859  0.00  0.00    +0.000 A 
ENDBRANCH  18  21
ENDBRANCH   2  15
TORSDOF 4
ENDMDL
MODEL 6
REMARK VINA RESULT:      -7.7      4.001      9.970
REMARK  Name = 
REMARK  5 active torsions:
REMARK  status: ('A' for Active; 'I' for Inactive)
REMARK    1  A    between atoms: C_1  and  C_2
REMARK    2  A    between atoms: C_4  and  N_5
REMARK    3  A    between atoms: C_10  and  N_11
REMARK    4  A    between atoms: C_12  and  C_14
REMARK    5  A    between atoms: C_17  and  C_18
REMARK                            x       y       z     vdW  Elec       q    Type
REMARK                         _______ _______ _______ _____ _____    ______ ____
ROOT
ATOM      1  N   UNL     1       0.803  11.123  20.926  0.00  0.00    +0.000 N 
ATOM      2  C   UNL     1       0.309  10.272  19.929  0.00  0.00    +0.000 C 
ATOM      3  O   UNL     1      -0.841  10.240  19.508  0.00  0.00    +0.000 OA
ATOM      4  H   UNL     1       1.727  10.931  21.284  0.00  0.00    +0.000 HD
ENDROOT
BRANCH   1  11
ATOM      5  C   UNL     1      -1.047  10.382  23.222  0.00  0.00    +0.000 C 
ATOM      6  C   UNL     1      -0.864  11.765  22.652  0.00  0.00    +0.000 A 
ATOM      7  C   UNL     1      -1.691  12.771  23.209  0.00  0.00    +0.000 A 
ATOM      8  C   UNL     1      -1.537  14.111  22.841  0.00  0.00    +0.000 A 
ATOM      9  C   UNL     1      -0.576  14.467  21.904  0.00  0.00    +0.000 A 
ATOM     10  C   UNL     1       0.186  13.468  21.292  0.00  0.00    +0.000 A 
ATOM     11  C   UNL     1       0.040  12.109  21.618  0.00  0.00    +0.000 A 
BRANCH   8  12
ATOM     12  N   UNL     1      -2.364  15.147  23.472  0.00  0.00    +0.000 N 
ATOM     13  O   UNL     1      -3.405  14.785  24.041  0.00  0.00    +0.000 OA
ATOM     14  O   UNL     1      -1.976  16.320  23.404  0.00  0.00    +0.000 OA
ENDBRANCH   8  12
ENDBRANCH   1  11
BRANCH   2  15
ATOM     15  C   UNL     1       1.260   9.287  19.344  0.00  0.00    +0.000 A 
ATOM     16  C   UNL     1       1.597   8.150  20.104  0.00  0.00    +0.000 A 
ATOM     17  C   UNL     1       2.364   7.118  19.555  0.00  0.00    +0.000 A 
ATOM     18  C   UNL     1       2.798   7.172  18.218  0.00  0.00    +0.000 A 
ATOM     19  C   UNL     1       2.478   8.330  17.490  0.00  0.00    +0.000 A 
ATOM     20  C   UNL     1       1.743   9.385  18.040  0.00  0.00    +0.000 A 
BRANCH  18  21
ATOM     21  C   UNL     1       3.581   6.073  17.609  0.00  0.00    +0.000 A 
ATOM     22  C   UNL     1       3.213   4.724  17.752  0.00  0.00    +0.000 A 
ATOM     23  C   UNL     1       3.983   3.699  17.193  0.00  0.00    +0.000 A 
ATOM     24  C   UNL     1       5.126   4.004  16.462  0.00  0.00    +0.000 A 
ATOM     25  C   UNL     1       5.502   5.328  16.283  0.00  0.00    +0.000 A 
ATOM     26  C   UNL     1       4.738   6.349  16.856  0.00  0.00    +0.000 A 
ENDBRANCH  18  21
ENDBRANCH   2  15
TORSDOF 4
ENDMDL
MODEL 7
REMARK VINA RESULT:      -7.7      0.408      1.496
REMARK  Name = 
REMARK  5 active torsions:
REMARK  status: ('A' for Active; 'I' for Inactive)
REMARK    1  A    between atoms: C_1  and  C_2
REMARK    2  A    between atoms: C_4  and  N_5
REMARK    3  A    between atoms: C_10  and  N_11
REMARK    4  A    between atoms: C_12  and  C_14
REMARK    5  A    between atoms: C_17  and  C_18
REMARK                            x       y       z     vdW  Elec       q    Type
REMARK                         _______ _______ _______ _____ _____    ______ ____
ROOT
ATOM      1  N   UNL     1       2.617   7.645  18.728  0.00  0.00    +0.000 N 
ATOM      2  C   UNL     1       2.040   8.821  18.232  0.00  0.00    +0.000 C 
ATOM      3  O   UNL     1       2.203   9.291  17.112  0.00  0.00    +0.000 OA
ATOM      4  H   UNL     1       2.523   7.464  19.717  0.00  0.00    +0.000 HD
ENDROOT
BRANCH   1  11
ATOM      5  C   UNL     1       1.944   4.719  18.243  0.00  0.00    +0.000 C 
ATOM      6  C   UNL     1       3.213   5.412  17.816  0.00  0.00    +0.000 A 
ATOM      7  C   UNL     1       4.183   4.585  17.200  0.00  0.00    +0.000 A 
ATOM      8  C   UNL     1       5.353   5.131  16.663  0.00  0.00    +0.000 A 
ATOM      9  C   UNL     1       5.582   6.498  16.746  0.00  0.00    +0.000 A 
ATOM     10  C   UNL     1       4.666   7.306  17.425  0.00  0.00    +0.000 A 
ATOM     11  C   UNL     1       3.493   6.788  17.999  0.00  0.00    +0.000 A 
BRANCH   8  12
ATOM     12  N   UNL     1       6.321   4.267  15.977  0.00  0.00    +0.000 N 
ATOM     13  O   UNL     1       7.501   4.310  16.358  0.00  0.00    +0.000 OA
ATOM     14  O   UNL     1       5.908   3.544  15.063  0.00  0.00    +0.000 OA
ENDBRANCH   8  12
ENDBRANCH   1  11
BRANCH   2  15
ATOM     15  C   UNL     1       1.172   9.597  19.160  0.00  0.00    +0.000 A 
ATOM     16  C   UNL     1       0.663  10.834  18.724  0.00  0.00    +0.000 A 
ATOM     17  C   UNL     1      -0.275  11.538  19.487  0.00  0.00    +0.000 A 
ATOM     18  C   UNL     1      -0.757  11.015  20.701  0.00  0.00    +0.000 A 
ATOM     19  C   UNL     1      -0.209   9.796  21.132  0.00  0.00    +0.000 A 
ATOM     20  C   UNL     1       0.755   9.102  20.395  0.00  0.00    +0.000 A 
BRANCH  18  21
ATOM     21  C   UNL     1      -1.774  11.729  21.506  0.00  0.00    +0.000 A 
ATOM     22  C   UNL     1      -2.725  12.583  20.921  0.00  0.00    +0.000 A 
ATOM     23  C   UNL     1      -3.660  13.270  21.702  0.00  0.00    +0.000 A 
ATOM     24  C   UNL     1      -3.675  13.101  23.083  0.00  0.00    +0.000 A 
ATOM     25  C   UNL     1      -2.765  12.245  23.686  0.00  0.00    +0.000 A 
ATOM     26  C   UNL     1      -1.822  11.571  22.903  0.00  0.00    +0.000 A 
ENDBRANCH  18  21
ENDBRANCH   2  15
TORSDOF 4
ENDMDL
MODEL 8
REMARK VINA RESULT:      -7.7      3.903     10.067
REMARK  Name = 
REMARK  5 active torsions:
REMARK  status: ('A' for Active; 'I' for Inactive)
REMARK    1  A    between atoms: C_1  and  C_2
REMARK    2  A    between atoms: C_4  and  N_5
REMARK    3  A    between atoms: C_10  and  N_11
REMARK    4  A    between atoms: C_12  and  C_14
REMARK    5  A    between atoms: C_17  and  C_18
REMARK                            x       y       z     vdW  Elec       q    Type
REMARK                         _______ _______ _______ _____ _____    ______ ____
ROOT
ATOM      1  N   UNL     1       0.064  10.598  20.338  0.00  0.00    +0.000 N 
ATOM      2  C   UNL     1       0.299   9.256  20.667  0.00  0.00    +0.000 C 
ATOM      3  O   UNL     1      -0.240   8.627  21.569  0.00  0.00    +0.000 OA
ATOM      4  H   UNL     1       0.694  11.030  19.678  0.00  0.00    +0.000 HD
ENDROOT
BRANCH   1  11
ATOM      5  C   UNL     1      -2.273  11.871  18.867  0.00  0.00    +0.000 C 
ATOM      6  C   UNL     1      -1.917  12.097  20.313  0.00  0.00    +0.000 A 
ATOM      7  C   UNL     1      -2.717  13.043  21.000  0.00  0.00    +0.000 A 
ATOM      8  C   UNL     1      -2.556  13.258  22.371  0.00  0.00    +0.000 A 
ATOM      9  C   UNL     1      -1.588  12.552  23.075  0.00  0.00    +0.000 A 
ATOM     10  C   UNL     1      -0.742  11.679  22.387  0.00  0.00    +0.000 A 
ATOM     11  C   UNL     1      -0.858  11.458  21.004  0.00  0.00    +0.000 A 
BRANCH   8  12
ATOM     12  N   UNL     1      -3.433  14.200  23.077  0.00  0.00    +0.000 N 
ATOM     13  O   UNL     1      -3.920  13.832  24.157  0.00  0.00    +0.000 OA
ATOM     14  O   UNL     1      -3.634  15.305  22.559  0.00  0.00    +0.000 OA
ENDBRANCH   8  12
ENDBRANCH   1  11
BRANCH   2  15
ATOM     15  C   UNL     1       1.326   8.531  19.869  0.00  0.00    +0.000 A 
ATOM     16  C   UNL     1       1.818   7.308  20.365  0.00  0.00    +0.000 A 
ATOM     17  C   UNL     1       2.669   6.509  19.596  0.00  0.00    +0.000 A 
ATOM     18  C   UNL     1       3.036   6.890  18.292  0.00  0.00    +0.000 A 
ATOM     19  C   UNL     1       2.560   8.128  17.833  0.00  0.00    +0.000 A 
ATOM     20  C   UNL     1       1.739   8.954  18.607  0.00  0.00    +0.000 A 
BRANCH  18  21
ATOM     21  C   UNL     1       3.908   6.040  17.450  0.00  0.00    +0.000 A 
ATOM     22  C   UNL     1       4.834   6.585  16.544  0.00  0.00    +0.000 A 
ATOM     23  C   UNL     1       5.628   5.764  15.737  0.00  0.00    +0.000 A 
ATOM     24  C   UNL     1       5.527   4.380  15.835  0.00  0.00    +0.000 A 
ATOM     25  C   UNL     1       4.640   3.813  16.738  0.00  0.00    +0.000 A 
ATOM     26  C   UNL     1       3.836   4.637  17.532  0.00  0.00    +0.000 A 
ENDBRANCH  18  21
ENDBRANCH   2  15
TORSDOF 4
ENDMDL
MODEL 9
REMARK VINA RESULT:      -7.7      3.919     10.027
REMARK  Name = 
REMARK  5 active torsions:
REMARK  status: ('A' for Active; 'I' for Inactive)
REMARK    1  A    between atoms: C_1  and  C_2
REMARK    2  A    between atoms: C_4  and  N_5
REMARK    3  A    between atoms: C_10  and  N_11
REMARK    4  A    between atoms: C_12  and  C_14
REMARK    5  A    between atoms: C_17  and  C_18
REMARK                            x       y       z     vdW  Elec       q    Type
REMARK                         _______ _______ _______ _____ _____    ______ ____
ROOT
ATOM      1  N   UNL     1       0.087  10.657  20.352  0.00  0.00    +0.000 N 
ATOM      2  C   UNL     1       0.332   9.323  20.704  0.00  0.00    +0.000 C 
ATOM      3  O   UNL     1      -0.180   8.714  21.635  0.00  0.00    +0.000 OA
ATOM      4  H   UNL     1       0.697  11.075  19.664  0.00  0.00    +0.000 HD
ENDROOT
BRANCH   1  11
ATOM      5  C   UNL     1      -2.307  11.876  18.927  0.00  0.00    +0.000 C 
ATOM      6  C   UNL     1      -1.901  12.147  20.354  0.00  0.00    +0.000 A 
ATOM      7  C   UNL     1      -2.682  13.108  21.040  0.00  0.00    +0.000 A 
ATOM      8  C   UNL     1      -2.473  13.364  22.398  0.00  0.00    +0.000 A 
ATOM      9  C   UNL     1      -1.478  12.683  23.087  0.00  0.00    +0.000 A 
ATOM     10  C   UNL     1      -0.652  11.794  22.395  0.00  0.00    +0.000 A 
ATOM     11  C   UNL     1      -0.816  11.533  21.024  0.00  0.00    +0.000 A 
BRANCH   8  12
ATOM     12  N   UNL     1      -3.330  14.322  23.107  0.00  0.00    +0.000 N 
ATOM     13  O   UNL     1      -4.309  14.779  22.497  0.00  0.00    +0.000 OA
ATOM     14  O   UNL     1      -3.031  14.618  24.271  0.00  0.00    +0.000 OA
ENDBRANCH   8  12
ENDBRANCH   1  11
BRANCH   2  15
ATOM     15  C   UNL     1       1.336   8.580  19.893  0.00  0.00    +0.000 A 
ATOM     16  C   UNL     1       1.797   7.339  20.373  0.00  0.00    +0.000 A 
ATOM     17  C   UNL     1       2.622   6.526  19.590  0.00  0.00    +0.000 A 
ATOM     18  C   UNL     1       2.994   6.912  18.289  0.00  0.00    +0.000 A 
ATOM     19  C   UNL     1       2.550   8.168  17.846  0.00  0.00    +0.000 A 
ATOM     20  C   UNL     1       1.754   9.006  18.634  0.00  0.00    +0.000 A 
BRANCH  18  21
ATOM     21  C   UNL     1       3.839   6.049  17.433  0.00  0.00    +0.000 A 
ATOM     22  C   UNL     1       3.752   4.647  17.469  0.00  0.00    +0.000 A 
ATOM     23  C   UNL     1       4.580   3.849  16.672  0.00  0.00    +0.000 A 
ATOM     24  C   UNL     1       5.498   4.438  15.809  0.00  0.00    +0.000 A 
ATOM     25  C   UNL     1       5.590   5.820  15.734  0.00  0.00    +0.000 A 
ATOM     26  C   UNL     1       4.771   6.615  16.543  0.00  0.00    +0.000 A 
ENDBRANCH  18  21
ENDBRANCH   2  15
TORSDOF 4
ENDMDL
