MODEL 1
REMARK VINA RESULT:      -4.4      0.000      0.000
REMARK  Name = 
REMARK  10 active torsions:
REMARK  status: ('A' for Active; 'I' for Inactive)
REMARK    1  A    between atoms: C_2  and  C_3
REMARK    2  A    between atoms: C_3  and  O_4
REMARK    3  A    between atoms: C_3  and  O_7
REMARK    4  A    between atoms: C_3  and  O_10
REMARK    5  A    between atoms: O_4  and  C_5
REMARK    6  A    between atoms: C_5  and  C_6
REMARK    7  A    between atoms: O_7  and  C_8
REMARK    8  A    between atoms: C_8  and  C_9
REMARK    9  A    between atoms: O_10  and  C_11
REMARK   10  A    between atoms: C_11  and  C_12
REMARK                            x       y       z     vdW  Elec       q    Type
REMARK                         _______ _______ _______ _____ _____    ______ ____
ROOT
ATOM      1  C   UNL     1       5.663   4.537  16.541  0.00  0.00    +0.000 C 
ENDROOT
BRANCH   1   3
ATOM      2  C   UNL     1       4.608   6.831  17.030  0.00  0.00    +0.000 C 
ATOM      3  C   UNL     1       5.211   5.953  16.207  0.00  0.00    +0.000 C 
ENDBRANCH   1   3
BRANCH   1   4
ATOM      4  O   UNL     1       6.678   4.089  15.628  0.00  0.00    +0.000 OA
BRANCH   4   5
ATOM      5  C   UNL     1       6.663   4.740  14.357  0.00  0.00    +0.000 C 
ATOM      6  C   UNL     1       6.175   3.752  13.313  0.00  0.00    +0.000 C 
ENDBRANCH   4   5
ENDBRANCH   1   4
BRANCH   1   7
ATOM      7  O   UNL     1       6.194   4.505  17.879  0.00  0.00    +0.000 OA
BRANCH   7   8
ATOM      8  C   UNL     1       7.587   4.787  17.988  0.00  0.00    +0.000 C 
ATOM      9  C   UNL     1       7.799   5.842  19.060  0.00  0.00    +0.000 C 
ENDBRANCH   7   8
ENDBRANCH   1   7
BRANCH   1  10
ATOM     10  O   UNL     1       4.533   3.651  16.460  0.00  0.00    +0.000 OA
BRANCH  10  11
ATOM     11  C   UNL     1       4.019   3.231  17.722  0.00  0.00    +0.000 C 
ATOM     12  C   UNL     1       2.545   2.890  17.567  0.00  0.00    +0.000 C 
ENDBRANCH  10  11
ENDBRANCH   1  10
TORSDOF 7
ENDMDL
MODEL 2
REMARK VINA RESULT:      -4.3      1.505      1.981
REMARK  Name = 
REMARK  10 active torsions:
REMARK  status: ('A' for Active; 'I' for Inactive)
REMARK    1  A    between atoms: C_2  and  C_3
REMARK    2  A    between atoms: C_3  and  O_4
REMARK    3  A    between atoms: C_3  and  O_7
REMARK    4  A    between atoms: C_3  and  O_10
REMARK    5  A    between atoms: O_4  and  C_5
REMARK    6  A    between atoms: C_5  and  C_6
REMARK    7  A    between atoms: O_7  and  C_8
REMARK    8  A    between atoms: C_8  and  C_9
REMARK    9  A    between atoms: O_10  and  C_11
REMARK   10  A    between atoms: C_11  and  C_12
REMARK                            x       y       z     vdW  Elec       q    Type
REMARK                         _______ _______ _______ _____ _____    ______ ____
ROOT
ATOM      1  C   UNL     1       4.734   4.078  18.259  0.00  0.00    +0.000 C 
ENDROOT
BRANCH   1   3
ATOM      2  C   UNL     1       2.971   5.938  18.054  0.00  0.00    +0.000 C 
ATOM      3  C   UNL     1       3.969   5.316  18.708  0.00  0.00    +0.000 C 
ENDBRANCH   1   3
BRANCH   1   4
ATOM      4  O   UNL     1       4.594   3.870  16.844  0.00  0.00    +0.000 OA
BRANCH   4   5
ATOM      5  C   UNL     1       5.806   4.006  16.100  0.00  0.00    +0.000 C 
ATOM      6  C   UNL     1       5.619   5.103  15.068  0.00  0.00    +0.000 C 
ENDBRANCH   4   5
ENDBRANCH   1   4
BRANCH   1   7
ATOM      7  O   UNL     1       6.131   4.236  18.570  0.00  0.00    +0.000 OA
BRANCH   7   8
ATOM      8  C   UNL     1       6.462   5.413  19.301  0.00  0.00    +0.000 C 
ATOM      9  C   UNL     1       7.733   6.015  18.726  0.00  0.00    +0.000 C 
ENDBRANCH   7   8
ENDBRANCH   1   7
BRANCH   1  10
ATOM     10  O   UNL     1       4.221   2.928  18.955  0.00  0.00    +0.000 OA
BRANCH  10  11
ATOM     11  C   UNL     1       3.391   2.080  18.165  0.00  0.00    +0.000 C 
ATOM     12  C   UNL     1       1.962   2.169  18.679  0.00  0.00    +0.000 C 
ENDBRANCH  10  11
ENDBRANCH   1  10
TORSDOF 7
ENDMDL
MODEL 3
REMARK VINA RESULT:      -4.3      2.269      3.987
REMARK  Name = 
REMARK  10 active torsions:
REMARK  status: ('A' for Active; 'I' for Inactive)
REMARK    1  A    between atoms: C_2  and  C_3
REMARK    2  A    between atoms: C_3  and  O_4
REMARK    3  A    between atoms: C_3  and  O_7
REMARK    4  A    between atoms: C_3  and  O_10
REMARK    5  A    between atoms: O_4  and  C_5
REMARK    6  A    between atoms: C_5  and  C_6
REMARK    7  A    between atoms: O_7  and  C_8
REMARK    8  A    between atoms: C_8  and  C_9
REMARK    9  A    between atoms: O_10  and  C_11
REMARK   10  A    between atoms: C_11  and  C_12
REMARK                            x       y       z     vdW  Elec       q    Type
REMARK                         _______ _______ _______ _____ _____    ______ ____
ROOT
ATOM      1  C   UNL     1       7.016   6.535  16.999  0.00  0.00    +0.000 C 
ENDROOT
BRANCH   1   3
ATOM      2  C   UNL     1       7.865   5.710  19.281  0.00  0.00    +0.000 C 
ATOM      3  C   UNL     1       7.081   5.593  18.194  0.00  0.00    +0.000 C 
ENDBRANCH   1   3
BRANCH   1   4
ATOM      4  O   UNL     1       5.715   7.133  16.882  0.00  0.00    +0.000 OA
BRANCH   4   5
ATOM      5  C   UNL     1       4.670   6.416  17.541  0.00  0.00    +0.000 C 
ATOM      6  C   UNL     1       3.478   7.341  17.705  0.00  0.00    +0.000 C 
ENDBRANCH   4   5
ENDBRANCH   1   4
BRANCH   1   7
ATOM      7  O   UNL     1       7.995   7.580  17.157  0.00  0.00    +0.000 OA
BRANCH   7   8
ATOM      8  C   UNL     1       7.490   8.818  17.650  0.00  0.00    +0.000 C 
ATOM      9  C   UNL     1       8.611   9.571  18.345  0.00  0.00    +0.000 C 
ENDBRANCH   7   8
ENDBRANCH   1   7
BRANCH   1  10
ATOM     10  O   UNL     1       7.303   5.796  15.799  0.00  0.00    +0.000 OA
BRANCH  10  11
ATOM     11  C   UNL     1       7.019   4.401  15.882  0.00  0.00    +0.000 C 
ATOM     12  C   UNL     1       6.005   4.039  14.807  0.00  0.00    +0.000 C 
ENDBRANCH  10  11
ENDBRANCH   1  10
TORSDOF 7
ENDMDL
MODEL 4
REMARK VINA RESULT:      -4.3      1.487      4.223
REMARK  Name = 
REMARK  10 active torsions:
REMARK  status: ('A' for Active; 'I' for Inactive)
REMARK    1  A    between atoms: C_2  and  C_3
REMARK    2  A    between atoms: C_3  and  O_4
REMARK    3  A    between atoms: C_3  and  O_7
REMARK    4  A    between atoms: C_3  and  O_10
REMARK    5  A    between atoms: O_4  and  C_5
REMARK    6  A    between atoms: C_5  and  C_6
REMARK    7  A    between atoms: O_7  and  C_8
REMARK    8  A    between atoms: C_8  and  C_9
REMARK    9  A    between atoms: O_10  and  C_11
REMARK   10  A    between atoms: C_11  and  C_12
REMARK                            x       y       z     vdW  Elec       q    Type
REMARK                         _______ _______ _______ _____ _____    ______ ____
ROOT
ATOM      1  C   UNL     1       4.975   4.095  18.302  0.00  0.00    +0.000 C 
ENDROOT
BRANCH   1   3
ATOM      2  C   UNL     1       3.367   6.054  17.868  0.00  0.00    +0.000 C 
ATOM      3  C   UNL     1       4.204   5.359  18.660  0.00  0.00    +0.000 C 
ENDBRANCH   1   3
BRANCH   1   4
ATOM      4  O   UNL     1       4.539   2.981  19.099  0.00  0.00    +0.000 OA
BRANCH   4   5
ATOM      5  C   UNL     1       3.562   2.149  18.474  0.00  0.00    +0.000 C 
ATOM      6  C   UNL     1       2.273   2.234  19.270  0.00  0.00    +0.000 C 
ENDBRANCH   4   5
ENDBRANCH   1   4
BRANCH   1   7
ATOM      7  O   UNL     1       4.765   3.782  16.912  0.00  0.00    +0.000 OA
BRANCH   7   8
ATOM      8  C   UNL     1       5.920   3.887  16.083  0.00  0.00    +0.000 C 
ATOM      9  C   UNL     1       5.618   4.823  14.926  0.00  0.00    +0.000 C 
ENDBRANCH   7   8
ENDBRANCH   1   7
BRANCH   1  10
ATOM     10  O   UNL     1       6.377   4.317  18.530  0.00  0.00    +0.000 OA
BRANCH  10  11
ATOM     11  C   UNL     1       6.673   5.466  19.320  0.00  0.00    +0.000 C 
ATOM     12  C   UNL     1       7.722   6.302  18.603  0.00  0.00    +0.000 C 
ENDBRANCH  10  11
ENDBRANCH   1  10
TORSDOF 7
ENDMDL
MODEL 5
REMARK VINA RESULT:      -4.2      1.960      4.226
REMARK  Name = 
REMARK  10 active torsions:
REMARK  status: ('A' for Active; 'I' for Inactive)
REMARK    1  A    between atoms: C_2  and  C_3
REMARK    2  A    between atoms: C_3  and  O_4
REMARK    3  A    between atoms: C_3  and  O_7
REMARK    4  A    between atoms: C_3  and  O_10
REMARK    5  A    between atoms: O_4  and  C_5
REMARK    6  A    between atoms: C_5  and  C_6
REMARK    7  A    between atoms: O_7  and  C_8
REMARK    8  A    between atoms: C_8  and  C_9
REMARK    9  A    between atoms: O_10  and  C_11
REMARK   10  A    between atoms: C_11  and  C_12
REMARK                            x       y       z     vdW  Elec       q    Type
REMARK                         _______ _______ _______ _____ _____    ______ ____
ROOT
ATOM      1  C   UNL     1       4.561   4.065  18.762  0.00  0.00    +0.000 C 
ENDROOT
BRANCH   1   3
ATOM      2  C   UNL     1       3.346   1.806  18.581  0.00  0.00    +0.000 C 
ATOM      3  C   UNL     1       4.176   2.660  19.209  0.00  0.00    +0.000 C 
ENDBRANCH   1   3
BRANCH   1   4
ATOM      4  O   UNL     1       4.091   4.330  17.430  0.00  0.00    +0.000 OA
BRANCH   4   5
ATOM      5  C   UNL     1       5.069   4.142  16.406  0.00  0.00    +0.000 C 
ATOM      6  C   UNL     1       5.242   5.450  15.656  0.00  0.00    +0.000 C 
ENDBRANCH   4   5
ENDBRANCH   1   4
BRANCH   1   7
ATOM      7  O   UNL     1       3.983   5.031  19.660  0.00  0.00    +0.000 OA
BRANCH   7   8
ATOM      8  C   UNL     1       2.667   5.463  19.325  0.00  0.00    +0.000 C 
ATOM      9  C   UNL     1       1.756   5.259  20.523  0.00  0.00    +0.000 C 
ENDBRANCH   7   8
ENDBRANCH   1   7
BRANCH   1  10
ATOM     10  O   UNL     1       5.994   4.192  18.789  0.00  0.00    +0.000 OA
BRANCH  10  11
ATOM     11  C   UNL     1       6.468   5.406  19.367  0.00  0.00    +0.000 C 
ATOM     12  C   UNL     1       7.682   5.885  18.584  0.00  0.00    +0.000 C 
ENDBRANCH  10  11
ENDBRANCH   1  10
TORSDOF 7
ENDMDL
MODEL 6
REMARK VINA RESULT:      -4.2      3.319      5.280
REMARK  Name = 
REMARK  10 active torsions:
REMARK  status: ('A' for Active; 'I' for Inactive)
REMARK    1  A    between atoms: C_2  and  C_3
REMARK    2  A    between atoms: C_3  and  O_4
REMARK    3  A    between atoms: C_3  and  O_7
REMARK    4  A    between atoms: C_3  and  O_10
REMARK    5  A    between atoms: O_4  and  C_5
REMARK    6  A    between atoms: C_5  and  C_6
REMARK    7  A    between atoms: O_7  and  C_8
REMARK    8  A    between atoms: C_8  and  C_9
REMARK    9  A    between atoms: O_10  and  C_11
REMARK   10  A    between atoms: C_11  and  C_12
REMARK                            x       y       z     vdW  Elec       q    Type
REMARK                         _______ _______ _______ _____ _____    ______ ____
ROOT
ATOM      1  C   UNL     1       2.663   4.619  18.902  0.00  0.00    +0.000 C 
ENDROOT
BRANCH   1   3
ATOM      2  C   UNL     1       2.304   2.318  17.812  0.00  0.00    +0.000 C 
ATOM      3  C   UNL     1       2.938   3.502  17.904  0.00  0.00    +0.000 C 
ENDBRANCH   1   3
BRANCH   1   4
ATOM      4  O   UNL     1       1.625   4.245  19.823  0.00  0.00    +0.000 OA
BRANCH   4   5
ATOM      5  C   UNL     1       2.065   4.048  21.167  0.00  0.00    +0.000 C 
ATOM      6  C   UNL     1       1.630   2.666  21.620  0.00  0.00    +0.000 C 
ENDBRANCH   4   5
ENDBRANCH   1   4
BRANCH   1   7
ATOM      7  O   UNL     1       3.863   4.907  19.645  0.00  0.00    +0.000 OA
BRANCH   7   8
ATOM      8  C   UNL     1       5.056   4.328  19.123  0.00  0.00    +0.000 C 
ATOM      9  C   UNL     1       6.173   5.355  19.178  0.00  0.00    +0.000 C 
ENDBRANCH   7   8
ENDBRANCH   1   7
BRANCH   1  10
ATOM     10  O   UNL     1       2.255   5.800  18.188  0.00  0.00    +0.000 OA
BRANCH  10  11
ATOM     11  C   UNL     1       2.532   7.024  18.864  0.00  0.00    +0.000 C 
ATOM     12  C   UNL     1       2.796   8.109  17.831  0.00  0.00    +0.000 C 
ENDBRANCH  10  11
ENDBRANCH   1  10
TORSDOF 7
ENDMDL
MODEL 7
REMARK VINA RESULT:      -4.2      1.917      3.573
REMARK  Name = 
REMARK  10 active torsions:
REMARK  status: ('A' for Active; 'I' for Inactive)
REMARK    1  A    between atoms: C_2  and  C_3
REMARK    2  A    between atoms: C_3  and  O_4
REMARK    3  A    between atoms: C_3  and  O_7
REMARK    4  A    between atoms: C_3  and  O_10
REMARK    5  A    between atoms: O_4  and  C_5
REMARK    6  A    between atoms: C_5  and  C_6
REMARK    7  A    between atoms: O_7  and  C_8
REMARK    8  A    between atoms: C_8  and  C_9
REMARK    9  A    between atoms: O_10  and  C_11
REMARK   10  A    between atoms: C_11  and  C_12
REMARK                            x       y       z     vdW  Elec       q    Type
REMARK                         _______ _______ _______ _____ _____    ______ ____
ROOT
ATOM      1  C   UNL     1       4.597   4.743  18.116  0.00  0.00    +0.000 C 
ENDROOT
BRANCH   1   3
ATOM      2  C   UNL     1       5.335   5.474  15.764  0.00  0.00    +0.000 C 
ATOM      3  C   UNL     1       4.739   4.609  16.606  0.00  0.00    +0.000 C 
ENDBRANCH   1   3
BRANCH   1   4
ATOM      4  O   UNL     1       3.545   3.900  18.613  0.00  0.00    +0.000 OA
BRANCH   4   5
ATOM      5  C   UNL     1       3.993   2.701  19.246  0.00  0.00    +0.000 C 
ATOM      6  C   UNL     1       3.523   1.515  18.422  0.00  0.00    +0.000 C 
ENDBRANCH   4   5
ENDBRANCH   1   4
BRANCH   1   7
ATOM      7  O   UNL     1       5.834   4.367  18.751  0.00  0.00    +0.000 OA
BRANCH   7   8
ATOM      8  C   UNL     1       6.530   5.426  19.404  0.00  0.00    +0.000 C 
ATOM      9  C   UNL     1       7.789   5.751  18.620  0.00  0.00    +0.000 C 
ENDBRANCH   7   8
ENDBRANCH   1   7
BRANCH   1  10
ATOM     10  O   UNL     1       4.296   6.112  18.442  0.00  0.00    +0.000 OA
BRANCH  10  11
ATOM     11  C   UNL     1       2.905   6.423  18.455  0.00  0.00    +0.000 C 
ATOM     12  C   UNL     1       2.710   7.834  17.922  0.00  0.00    +0.000 C 
ENDBRANCH  10  11
ENDBRANCH   1  10
TORSDOF 7
ENDMDL
MODEL 8
REMARK VINA RESULT:      -4.2      1.582      3.755
REMARK  Name = 
REMARK  10 active torsions:
REMARK  status: ('A' for Active; 'I' for Inactive)
REMARK    1  A    between atoms: C_2  and  C_3
REMARK    2  A    between atoms: C_3  and  O_4
REMARK    3  A    between atoms: C_3  and  O_7
REMARK    4  A    between atoms: C_3  and  O_10
REMARK    5  A    between atoms: O_4  and  C_5
REMARK    6  A    between atoms: C_5  and  C_6
REMARK    7  A    between atoms: O_7  and  C_8
REMARK    8  A    between atoms: C_8  and  C_9
REMARK    9  A    between atoms: O_10  and  C_11
REMARK   10  A    between atoms: C_11  and  C_12
REMARK                            x       y       z     vdW  Elec       q    Type
REMARK                         _______ _______ _______ _____ _____    ______ ____
ROOT
ATOM      1  C   UNL     1       4.883   4.198  18.479  0.00  0.00    +0.000 C 
ENDROOT
BRANCH   1   3
ATOM      2  C   UNL     1       3.662   1.962  18.825  0.00  0.00    +0.000 C 
ATOM      3  C   UNL     1       4.413   2.986  19.272  0.00  0.00    +0.000 C 
ENDBRANCH   1   3
BRANCH   1   4
ATOM      4  O   UNL     1       4.262   5.402  18.960  0.00  0.00    +0.000 OA
BRANCH   4   5
ATOM      5  C   UNL     1       3.131   5.831  18.201  0.00  0.00    +0.000 C 
ATOM      6  C   UNL     1       3.330   7.287  17.819  0.00  0.00    +0.000 C 
ENDBRANCH   4   5
ENDBRANCH   1   4
BRANCH   1   7
ATOM      7  O   UNL     1       6.312   4.330  18.604  0.00  0.00    +0.000 OA
BRANCH   7   8
ATOM      8  C   UNL     1       6.756   5.456  19.356  0.00  0.00    +0.000 C 
ATOM      9  C   UNL     1       7.689   6.292  18.496  0.00  0.00    +0.000 C 
ENDBRANCH   7   8
ENDBRANCH   1   7
BRANCH   1  10
ATOM     10  O   UNL     1       4.544   4.015  17.093  0.00  0.00    +0.000 OA
BRANCH  10  11
ATOM     11  C   UNL     1       5.660   4.026  16.206  0.00  0.00    +0.000 C 
ATOM     12  C   UNL     1       5.558   5.244  15.299  0.00  0.00    +0.000 C 
ENDBRANCH  10  11
ENDBRANCH   1  10
TORSDOF 7
ENDMDL
MODEL 9
REMARK VINA RESULT:      -4.2      2.684      5.149
REMARK  Name = 
REMARK  10 active torsions:
REMARK  status: ('A' for Active; 'I' for Inactive)
REMARK    1  A    between atoms: C_2  and  C_3
REMARK    2  A    between atoms: C_3  and  O_4
REMARK    3  A    between atoms: C_3  and  O_7
REMARK    4  A    between atoms: C_3  and  O_10
REMARK    5  A    between atoms: O_4  and  C_5
REMARK    6  A    between atoms: C_5  and  C_6
REMARK    7  A    between atoms: O_7  and  C_8
REMARK    8  A    between atoms: C_8  and  C_9
REMARK    9  A    between atoms: O_10  and  C_11
REMARK   10  A    between atoms: C_11  and  C_12
REMARK                            x       y       z     vdW  Elec       q    Type
REMARK                         _______ _______ _______ _____ _____    ______ ____
ROOT
ATOM      1  C   UNL     1       4.112   5.087  19.135  0.00  0.00    +0.000 C 
ENDROOT
BRANCH   1   3
ATOM      2  C   UNL     1       3.365   7.159  17.807  0.00  0.00    +0.000 C 
ATOM      3  C   UNL     1       3.860   5.909  17.878  0.00  0.00    +0.000 C 
ENDBRANCH   1   3
BRANCH   1   4
ATOM      4  O   UNL     1       3.145   5.392  20.154  0.00  0.00    +0.000 OA
BRANCH   4   5
ATOM      5  C   UNL     1       2.556   4.250  20.775  0.00  0.00    +0.000 C 
ATOM      6  C   UNL     1       1.067   4.253  20.480  0.00  0.00    +0.000 C 
ENDBRANCH   4   5
ENDBRANCH   1   4
BRANCH   1   7
ATOM      7  O   UNL     1       4.027   3.685  18.819  0.00  0.00    +0.000 OA
BRANCH   7   8
ATOM      8  C   UNL     1       3.527   3.384  17.518  0.00  0.00    +0.000 C 
ATOM      9  C   UNL     1       2.496   2.274  17.627  0.00  0.00    +0.000 C 
ENDBRANCH   7   8
ENDBRANCH   1   7
BRANCH   1  10
ATOM     10  O   UNL     1       5.429   5.381  19.634  0.00  0.00    +0.000 OA
BRANCH  10  11
ATOM     11  C   UNL     1       6.469   5.251  18.668  0.00  0.00    +0.000 C 
ATOM     12  C   UNL     1       7.758   5.808  19.253  0.00  0.00    +0.000 C 
ENDBRANCH  10  11
ENDBRANCH   1  10
TORSDOF 7
ENDMDL
