MODEL 1
REMARK VINA RESULT:      -8.0      0.000      0.000
REMARK  Name = 
REMARK  7 active torsions:
REMARK  status: ('A' for Active; 'I' for Inactive)
REMARK    1  A    between atoms: N_2  and  C_4
REMARK    2  A    between atoms: C_7  and  C_8
REMARK    3  A    between atoms: C_11  and  C_12
REMARK    4  A    between atoms: C_12  and  S_13
REMARK    5  A    between atoms: S_13  and  C_14
REMARK    6  A    between atoms: C_17  and  O_18
REMARK    7  A    between atoms: N_19  and  C_20
REMARK                            x       y       z     vdW  Elec       q    Type
REMARK                         _______ _______ _______ _____ _____    ______ ____
ROOT
ATOM      1  C   UNL     1       2.515   8.524  17.875  0.00  0.00    +0.000 C 
ENDROOT
BRANCH   1   5
ATOM      2  C   UNL     1      -0.422  10.317  18.707  0.00  0.00    +0.000 A 
ATOM      3  N   UNL     1       0.299  10.675  19.752  0.00  0.00    +0.000 NA
ATOM      4  N   UNL     1       1.512  10.031  19.636  0.00  0.00    +0.000 NA
ATOM      5  C   UNL     1       1.454   9.326  18.523  0.00  0.00    +0.000 A 
ATOM      6  O   UNL     1       0.251   9.461  17.873  0.00  0.00    +0.000 OA
BRANCH   2  10
ATOM      7  C   UNL     1      -4.451  11.428  17.823  0.00  0.00    +0.000 A 
ATOM      8  C   UNL     1      -3.777  12.011  18.895  0.00  0.00    +0.000 A 
ATOM      9  C   UNL     1      -2.451  11.650  19.153  0.00  0.00    +0.000 A 
ATOM     10  C   UNL     1      -1.784  10.702  18.354  0.00  0.00    +0.000 A 
ATOM     11  C   UNL     1      -2.472  10.143  17.264  0.00  0.00    +0.000 A 
ATOM     12  C   UNL     1      -3.805  10.498  16.997  0.00  0.00    +0.000 A 
BRANCH   7  14
ATOM     13  O   UNL     1      -6.085  12.818  16.932  0.00  0.00    +0.000 OA
ATOM     14  N   UNL     1      -5.856  11.778  17.571  0.00  0.00    +0.000 N 
ATOM     15  O   UNL     1      -6.730  11.026  18.020  0.00  0.00    +0.000 OA
ENDBRANCH   7  14
ENDBRANCH   2  10
ENDBRANCH   1   5
BRANCH   1  16
ATOM     16  S   UNL     1       2.667   6.852  18.550  0.00  0.00    +0.000 S 
BRANCH  16  17
ATOM     17  C   UNL     1       3.919   6.146  17.604  0.00  0.00    +0.000 A 
ATOM     18  N   UNL     1       4.679   6.841  16.781  0.00  0.00    +0.000 NA
ATOM     19  N   UNL     1       5.681   6.024  16.331  0.00  0.00    +0.000 NA
ATOM     20  C   UNL     1       5.492   4.856  16.883  0.00  0.00    +0.000 A 
ATOM     21  N   UNL     1       4.356   4.841  17.661  0.00  0.00    +0.000 N 
BRANCH  21  22
ATOM     22  C   UNL     1       3.806   3.613  18.225  0.00  0.00    +0.000 C 
ATOM     23  C   UNL     1       3.719   3.499  19.752  0.00  0.00    +0.000 C 
ATOM     24  C   UNL     1       2.440   4.036  20.379  0.00  0.00    +0.000 C 
ATOM     25  C   UNL     1       1.159   3.711  19.608  0.00  0.00    +0.000 C 
ATOM     26  C   UNL     1       1.253   3.749  18.084  0.00  0.00    +0.000 C 
ATOM     27  C   UNL     1       2.525   3.119  17.541  0.00  0.00    +0.000 C 
ENDBRANCH  21  22
BRANCH  20  28
ATOM     28  O   UNL     1       6.305   3.834  16.699  0.00  0.00    +0.000 OA
ATOM     29  H   UNL     1       6.030   3.219  17.405  0.00  0.00    +0.000 HD
ENDBRANCH  20  28
ENDBRANCH  16  17
ENDBRANCH   1  16
TORSDOF 7
ENDMDL
MODEL 2
REMARK VINA RESULT:      -8.0      2.994      3.325
REMARK  Name = 
REMARK  7 active torsions:
REMARK  status: ('A' for Active; 'I' for Inactive)
REMARK    1  A    between atoms: N_2  and  C_4
REMARK    2  A    between atoms: C_7  and  C_8
REMARK    3  A    between atoms: C_11  and  C_12
REMARK    4  A    between atoms: C_12  and  S_13
REMARK    5  A    between atoms: S_13  and  C_14
REMARK    6  A    between atoms: C_17  and  O_18
REMARK    7  A    between atoms: N_19  and  C_20
REMARK                            x       y       z     vdW  Elec       q    Type
REMARK                         _______ _______ _______ _____ _____    ______ ____
ROOT
ATOM      1  C   UNL     1       2.449   7.001  19.659  0.00  0.00    +0.000 C 
ENDROOT
BRANCH   1   5
ATOM      2  C   UNL     1       0.450   9.884  20.131  0.00  0.00    +0.000 A 
ATOM      3  N   UNL     1       0.829  10.139  18.894  0.00  0.00    +0.000 NA
ATOM      4  N   UNL     1       1.676   9.118  18.520  0.00  0.00    +0.000 NA
ATOM      5  C   UNL     1       1.752   8.302  19.553  0.00  0.00    +0.000 A 
ATOM      6  O   UNL     1       0.994   8.723  20.618  0.00  0.00    +0.000 OA
BRANCH   2  10
ATOM      7  C   UNL     1      -2.188  12.003  22.738  0.00  0.00    +0.000 A 
ATOM      8  C   UNL     1      -1.370  10.989  23.234  0.00  0.00    +0.000 A 
ATOM      9  C   UNL     1      -0.497  10.324  22.368  0.00  0.00    +0.000 A 
ATOM     10  C   UNL     1      -0.433  10.654  21.001  0.00  0.00    +0.000 A 
ATOM     11  C   UNL     1      -1.248  11.694  20.524  0.00  0.00    +0.000 A 
ATOM     12  C   UNL     1      -2.129  12.369  21.386  0.00  0.00    +0.000 A 
BRANCH   7  14
ATOM     13  O   UNL     1      -2.945  13.886  23.868  0.00  0.00    +0.000 OA
ATOM     14  N   UNL     1      -3.133  12.681  23.639  0.00  0.00    +0.000 N 
ATOM     15  O   UNL     1      -4.050  12.010  24.126  0.00  0.00    +0.000 OA
ENDBRANCH   7  14
ENDBRANCH   2  10
ENDBRANCH   1   5
BRANCH   1  16
ATOM     16  S   UNL     1       2.340   6.002  18.154  0.00  0.00    +0.000 S 
BRANCH  16  17
ATOM     17  C   UNL     1       3.978   5.591  17.822  0.00  0.00    +0.000 A 
ATOM     18  N   UNL     1       4.789   6.368  17.133  0.00  0.00    +0.000 NA
ATOM     19  N   UNL     1       6.052   5.842  17.209  0.00  0.00    +0.000 NA
ATOM     20  C   UNL     1       5.965   4.757  17.931  0.00  0.00    +0.000 A 
ATOM     21  N   UNL     1       4.666   4.501  18.307  0.00  0.00    +0.000 N 
BRANCH  21  22
ATOM     22  C   UNL     1       4.264   3.251  18.943  0.00  0.00    +0.000 C 
ATOM     23  C   UNL     1       3.431   3.334  20.229  0.00  0.00    +0.000 C 
ATOM     24  C   UNL     1       1.923   3.399  20.031  0.00  0.00    +0.000 C 
ATOM     25  C   UNL     1       1.376   2.483  18.935  0.00  0.00    +0.000 C 
ATOM     26  C   UNL     1       2.234   2.334  17.680  0.00  0.00    +0.000 C 
ATOM     27  C   UNL     1       3.719   2.194  17.975  0.00  0.00    +0.000 C 
ENDBRANCH  21  22
BRANCH  20  28
ATOM     28  O   UNL     1       7.011   4.016  18.242  0.00  0.00    +0.000 OA
ATOM     29  H   UNL     1       7.188   4.283  19.164  0.00  0.00    +0.000 HD
ENDBRANCH  20  28
ENDBRANCH  16  17
ENDBRANCH   1  16
TORSDOF 7
ENDMDL
MODEL 3
REMARK VINA RESULT:      -7.9      2.926      3.302
REMARK  Name = 
REMARK  7 active torsions:
REMARK  status: ('A' for Active; 'I' for Inactive)
REMARK    1  A    between atoms: N_2  and  C_4
REMARK    2  A    between atoms: C_7  and  C_8
REMARK    3  A    between atoms: C_11  and  C_12
REMARK    4  A    between atoms: C_12  and  S_13
REMARK    5  A    between atoms: S_13  and  C_14
REMARK    6  A    between atoms: C_17  and  O_18
REMARK    7  A    between atoms: N_19  and  C_20
REMARK                            x       y       z     vdW  Elec       q    Type
REMARK                         _______ _______ _______ _____ _____    ______ ____
ROOT
ATOM      1  C   UNL     1       2.085   8.258  17.849  0.00  0.00    +0.000 C 
ENDROOT
BRANCH   1   5
ATOM      2  C   UNL     1       0.501  10.837  19.685  0.00  0.00    +0.000 A 
ATOM      3  N   UNL     1       1.216  11.608  18.888  0.00  0.00    +0.000 NA
ATOM      4  N   UNL     1       1.962  10.769  18.089  0.00  0.00    +0.000 NA
ATOM      5  C   UNL     1       1.648   9.540  18.446  0.00  0.00    +0.000 A 
ATOM      6  O   UNL     1       0.719   9.502  19.457  0.00  0.00    +0.000 OA
BRANCH   2  10
ATOM      7  C   UNL     1      -2.250  12.102  22.698  0.00  0.00    +0.000 A 
ATOM      8  C   UNL     1      -2.388  12.548  21.384  0.00  0.00    +0.000 A 
ATOM      9  C   UNL     1      -1.490  12.103  20.409  0.00  0.00    +0.000 A 
ATOM     10  C   UNL     1      -0.443  11.218  20.729  0.00  0.00    +0.000 A 
ATOM     11  C   UNL     1      -0.334  10.762  22.053  0.00  0.00    +0.000 A 
ATOM     12  C   UNL     1      -1.230  11.203  23.041  0.00  0.00    +0.000 A 
BRANCH   7  14
ATOM     13  O   UNL     1      -2.956  13.725  24.203  0.00  0.00    +0.000 OA
ATOM     14  N   UNL     1      -3.170  12.596  23.733  0.00  0.00    +0.000 N 
ATOM     15  O   UNL     1      -4.094  11.854  24.087  0.00  0.00    +0.000 OA
ENDBRANCH   7  14
ENDBRANCH   2  10
ENDBRANCH   1   5
BRANCH   1  16
ATOM     16  S   UNL     1       2.329   6.942  19.066  0.00  0.00    +0.000 S 
BRANCH  16  17
ATOM     17  C   UNL     1       3.729   6.119  18.498  0.00  0.00    +0.000 A 
ATOM     18  N   UNL     1       4.570   6.644  17.630  0.00  0.00    +0.000 NA
ATOM     19  N   UNL     1       5.658   5.817  17.533  0.00  0.00    +0.000 NA
ATOM     20  C   UNL     1       5.437   4.811  18.335  0.00  0.00    +0.000 A 
ATOM     21  N   UNL     1       4.203   4.904  18.940  0.00  0.00    +0.000 N 
BRANCH  21  22
ATOM     22  C   UNL     1       3.628   3.815  19.722  0.00  0.00    +0.000 C 
ATOM     23  C   UNL     1       2.655   4.178  20.850  0.00  0.00    +0.000 C 
ATOM     24  C   UNL     1       1.192   4.294  20.444  0.00  0.00    +0.000 C 
ATOM     25  C   UNL     1       0.709   3.228  19.459  0.00  0.00    +0.000 C 
ATOM     26  C   UNL     1       1.698   2.805  18.375  0.00  0.00    +0.000 C 
ATOM     27  C   UNL     1       3.120   2.634  18.886  0.00  0.00    +0.000 C 
ENDBRANCH  21  22
BRANCH  20  28
ATOM     28  O   UNL     1       6.307   3.837  18.521  0.00  0.00    +0.000 OA
ATOM     29  H   UNL     1       6.016   3.457  19.371  0.00  0.00    +0.000 HD
ENDBRANCH  20  28
ENDBRANCH  16  17
ENDBRANCH   1  16
TORSDOF 7
ENDMDL
MODEL 4
REMARK VINA RESULT:      -7.8      3.282      4.297
REMARK  Name = 
REMARK  7 active torsions:
REMARK  status: ('A' for Active; 'I' for Inactive)
REMARK    1  A    between atoms: N_2  and  C_4
REMARK    2  A    between atoms: C_7  and  C_8
REMARK    3  A    between atoms: C_11  and  C_12
REMARK    4  A    between atoms: C_12  and  S_13
REMARK    5  A    between atoms: S_13  and  C_14
REMARK    6  A    between atoms: C_17  and  O_18
REMARK    7  A    between atoms: N_19  and  C_20
REMARK                            x       y       z     vdW  Elec       q    Type
REMARK                         _______ _______ _______ _____ _____    ______ ____
ROOT
ATOM      1  C   UNL     1       2.375   6.995  19.649  0.00  0.00    +0.000 C 
ENDROOT
BRANCH   1   5
ATOM      2  C   UNL     1       0.425   9.909  20.139  0.00  0.00    +0.000 A 
ATOM      3  N   UNL     1       0.830  10.178  18.913  0.00  0.00    +0.000 NA
ATOM      4  N   UNL     1       1.662   9.146  18.535  0.00  0.00    +0.000 NA
ATOM      5  C   UNL     1       1.706   8.312  19.555  0.00  0.00    +0.000 A 
ATOM      6  O   UNL     1       0.939   8.729  20.615  0.00  0.00    +0.000 OA
BRANCH   2  10
ATOM      7  C   UNL     1      -2.212  12.036  22.741  0.00  0.00    +0.000 A 
ATOM      8  C   UNL     1      -1.410  11.008  23.235  0.00  0.00    +0.000 A 
ATOM      9  C   UNL     1      -0.537  10.341  22.371  0.00  0.00    +0.000 A 
ATOM     10  C   UNL     1      -0.456  10.682  21.007  0.00  0.00    +0.000 A 
ATOM     11  C   UNL     1      -1.255  11.736  20.533  0.00  0.00    +0.000 A 
ATOM     12  C   UNL     1      -2.137  12.412  21.393  0.00  0.00    +0.000 A 
BRANCH   7  14
ATOM     13  O   UNL     1      -3.025  13.942  23.791  0.00  0.00    +0.000 OA
ATOM     14  N   UNL     1      -3.156  12.717  23.639  0.00  0.00    +0.000 N 
ATOM     15  O   UNL     1      -4.017  12.030  24.201  0.00  0.00    +0.000 OA
ENDBRANCH   7  14
ENDBRANCH   2  10
ENDBRANCH   1   5
BRANCH   1  16
ATOM     16  S   UNL     1       2.802   6.287  18.040  0.00  0.00    +0.000 S 
BRANCH  16  17
ATOM     17  C   UNL     1       2.974   4.607  18.370  0.00  0.00    +0.000 A 
ATOM     18  N   UNL     1       2.108   3.923  19.090  0.00  0.00    +0.000 NA
ATOM     19  N   UNL     1       2.436   2.595  19.006  0.00  0.00    +0.000 NA
ATOM     20  C   UNL     1       3.496   2.517  18.248  0.00  0.00    +0.000 A 
ATOM     21  N   UNL     1       3.931   3.762  17.853  0.00  0.00    +0.000 N 
BRANCH  21  22
ATOM     22  C   UNL     1       5.205   3.970  17.172  0.00  0.00    +0.000 C 
ATOM     23  C   UNL     1       5.184   4.665  15.805  0.00  0.00    +0.000 C 
ATOM     24  C   UNL     1       5.266   6.185  15.840  0.00  0.00    +0.000 C 
ATOM     25  C   UNL     1       6.247   6.754  16.866  0.00  0.00    +0.000 C 
ATOM     26  C   UNL     1       6.331   6.025  18.206  0.00  0.00    +0.000 C 
ATOM     27  C   UNL     1       6.323   4.511  18.071  0.00  0.00    +0.000 C 
ENDBRANCH  21  22
BRANCH  20  28
ATOM     28  O   UNL     1       4.061   1.371  17.919  0.00  0.00    +0.000 OA
ATOM     29  H   UNL     1       4.985   1.506  18.201  0.00  0.00    +0.000 HD
ENDBRANCH  20  28
ENDBRANCH  16  17
ENDBRANCH   1  16
TORSDOF 7
ENDMDL
MODEL 5
REMARK VINA RESULT:      -7.7      3.572      4.564
REMARK  Name = 
REMARK  7 active torsions:
REMARK  status: ('A' for Active; 'I' for Inactive)
REMARK    1  A    between atoms: N_2  and  C_4
REMARK    2  A    between atoms: C_7  and  C_8
REMARK    3  A    between atoms: C_11  and  C_12
REMARK    4  A    between atoms: C_12  and  S_13
REMARK    5  A    between atoms: S_13  and  C_14
REMARK    6  A    between atoms: C_17  and  O_18
REMARK    7  A    between atoms: N_19  and  C_20
REMARK                            x       y       z     vdW  Elec       q    Type
REMARK                         _______ _______ _______ _____ _____    ______ ____
ROOT
ATOM      1  C   UNL     1       2.133   8.181  17.575  0.00  0.00    +0.000 C 
ENDROOT
BRANCH   1   5
ATOM      2  C   UNL     1       1.617  11.452  18.828  0.00  0.00    +0.000 A 
ATOM      3  N   UNL     1       0.916  10.806  19.739  0.00  0.00    +0.000 NA
ATOM      4  N   UNL     1       0.959   9.471  19.401  0.00  0.00    +0.000 NA
ATOM      5  C   UNL     1       1.690   9.388  18.307  0.00  0.00    +0.000 A 
ATOM      6  O   UNL     1       2.149  10.611  17.883  0.00  0.00    +0.000 OA
BRANCH   2  10
ATOM      7  C   UNL     1       2.240  15.658  18.416  0.00  0.00    +0.000 A 
ATOM      8  C   UNL     1       1.050  15.170  18.955  0.00  0.00    +0.000 A 
ATOM      9  C   UNL     1       0.877  13.790  19.103  0.00  0.00    +0.000 A 
ATOM     10  C   UNL     1       1.878  12.882  18.710  0.00  0.00    +0.000 A 
ATOM     11  C   UNL     1       3.079  13.394  18.190  0.00  0.00    +0.000 A 
ATOM     12  C   UNL     1       3.263  14.778  18.037  0.00  0.00    +0.000 A 
BRANCH   7  14
ATOM     13  O   UNL     1       2.298  17.834  19.225  0.00  0.00    +0.000 OA
ATOM     14  N   UNL     1       2.412  17.105  18.226  0.00  0.00    +0.000 N 
ATOM     15  O   UNL     1       2.646  17.516  17.084  0.00  0.00    +0.000 OA
ENDBRANCH   7  14
ENDBRANCH   2  10
ENDBRANCH   1   5
BRANCH   1  16
ATOM     16  S   UNL     1       2.982   6.975  18.623  0.00  0.00    +0.000 S 
BRANCH  16  17
ATOM     17  C   UNL     1       4.120   6.244  17.558  0.00  0.00    +0.000 A 
ATOM     18  N   UNL     1       4.859   6.932  16.711  0.00  0.00    +0.000 NA
ATOM     19  N   UNL     1       5.776   6.080  16.154  0.00  0.00    +0.000 NA
ATOM     20  C   UNL     1       5.557   4.902  16.670  0.00  0.00    +0.000 A 
ATOM     21  N   UNL     1       4.480   4.914  17.528  0.00  0.00    +0.000 N 
BRANCH  21  22
ATOM     22  C   UNL     1       3.900   3.695  18.079  0.00  0.00    +0.000 C 
ATOM     23  C   UNL     1       3.857   3.545  19.605  0.00  0.00    +0.000 C 
ATOM     24  C   UNL     1       2.621   4.115  20.287  0.00  0.00    +0.000 C 
ATOM     25  C   UNL     1       1.304   3.862  19.551  0.00  0.00    +0.000 C 
ATOM     26  C   UNL     1       1.351   3.935  18.026  0.00  0.00    +0.000 C 
ATOM     27  C   UNL     1       2.579   3.270  17.426  0.00  0.00    +0.000 C 
ENDBRANCH  21  22
BRANCH  20  28
ATOM     28  O   UNL     1       6.292   3.845  16.384  0.00  0.00    +0.000 OA
ATOM     29  H   UNL     1       7.199   4.204  16.423  0.00  0.00    +0.000 HD
ENDBRANCH  20  28
ENDBRANCH  16  17
ENDBRANCH   1  16
TORSDOF 7
ENDMDL
MODEL 6
REMARK VINA RESULT:      -7.7      3.603      4.633
REMARK  Name = 
REMARK  7 active torsions:
REMARK  status: ('A' for Active; 'I' for Inactive)
REMARK    1  A    between atoms: N_2  and  C_4
REMARK    2  A    between atoms: C_7  and  C_8
REMARK    3  A    between atoms: C_11  and  C_12
REMARK    4  A    between atoms: C_12  and  S_13
REMARK    5  A    between atoms: S_13  and  C_14
REMARK    6  A    between atoms: C_17  and  O_18
REMARK    7  A    between atoms: N_19  and  C_20
REMARK                            x       y       z     vdW  Elec       q    Type
REMARK                         _______ _______ _______ _____ _____    ______ ____
ROOT
ATOM      1  C   UNL     1       2.333   8.323  17.707  0.00  0.00    +0.000 C 
ENDROOT
BRANCH   1   5
ATOM      2  C   UNL     1       1.464  11.573  18.812  0.00  0.00    +0.000 A 
ATOM      3  N   UNL     1       0.726  10.897  19.671  0.00  0.00    +0.000 NA
ATOM      4  N   UNL     1       0.898   9.561  19.376  0.00  0.00    +0.000 NA
ATOM      5  C   UNL     1       1.735   9.510  18.360  0.00  0.00    +0.000 A 
ATOM      6  O   UNL     1       2.144  10.754  17.946  0.00  0.00    +0.000 OA
BRANCH   2  10
ATOM      7  C   UNL     1       2.094  15.786  18.496  0.00  0.00    +0.000 A 
ATOM      8  C   UNL     1       3.104  14.892  18.142  0.00  0.00    +0.000 A 
ATOM      9  C   UNL     1       2.869  13.518  18.231  0.00  0.00    +0.000 A 
ATOM     10  C   UNL     1       1.632  13.015  18.679  0.00  0.00    +0.000 A 
ATOM     11  C   UNL     1       0.618  13.931  19.009  0.00  0.00    +0.000 A 
ATOM     12  C   UNL     1       0.845  15.315  18.924  0.00  0.00    +0.000 A 
BRANCH   7  14
ATOM     13  O   UNL     1       2.823  17.775  19.449  0.00  0.00    +0.000 OA
ATOM     14  N   UNL     1       2.349  17.232  18.438  0.00  0.00    +0.000 N 
ATOM     15  O   UNL     1       2.066  17.828  17.392  0.00  0.00    +0.000 OA
ENDBRANCH   7  14
ENDBRANCH   2  10
ENDBRANCH   1   5
BRANCH   1  16
ATOM     16  S   UNL     1       2.449   6.885  18.798  0.00  0.00    +0.000 S 
BRANCH  16  17
ATOM     17  C   UNL     1       3.908   6.118  18.302  0.00  0.00    +0.000 A 
ATOM     18  N   UNL     1       4.808   6.707  17.541  0.00  0.00    +0.000 NA
ATOM     19  N   UNL     1       5.916   5.903  17.487  0.00  0.00    +0.000 NA
ATOM     20  C   UNL     1       5.649   4.847  18.206  0.00  0.00    +0.000 A 
ATOM     21  N   UNL     1       4.368   4.885  18.709  0.00  0.00    +0.000 N 
BRANCH  21  22
ATOM     22  C   UNL     1       3.750   3.742  19.374  0.00  0.00    +0.000 C 
ATOM     23  C   UNL     1       3.097   3.974  20.742  0.00  0.00    +0.000 C 
ATOM     24  C   UNL     1       1.635   4.397  20.708  0.00  0.00    +0.000 C 
ATOM     25  C   UNL     1       0.777   3.671  19.670  0.00  0.00    +0.000 C 
ATOM     26  C   UNL     1       1.443   3.369  18.329  0.00  0.00    +0.000 C 
ATOM     27  C   UNL     1       2.874   2.876  18.461  0.00  0.00    +0.000 C 
ENDBRANCH  21  22
BRANCH  20  28
ATOM     28  O   UNL     1       6.519   3.876  18.407  0.00  0.00    +0.000 OA
ATOM     29  H   UNL     1       7.005   3.853  17.561  0.00  0.00    +0.000 HD
ENDBRANCH  20  28
ENDBRANCH  16  17
ENDBRANCH   1  16
TORSDOF 7
ENDMDL
MODEL 7
REMARK VINA RESULT:      -7.7      2.999      3.426
REMARK  Name = 
REMARK  7 active torsions:
REMARK  status: ('A' for Active; 'I' for Inactive)
REMARK    1  A    between atoms: N_2  and  C_4
REMARK    2  A    between atoms: C_7  and  C_8
REMARK    3  A    between atoms: C_11  and  C_12
REMARK    4  A    between atoms: C_12  and  S_13
REMARK    5  A    between atoms: S_13  and  C_14
REMARK    6  A    between atoms: C_17  and  O_18
REMARK    7  A    between atoms: N_19  and  C_20
REMARK                            x       y       z     vdW  Elec       q    Type
REMARK                         _______ _______ _______ _____ _____    ______ ____
ROOT
ATOM      1  C   UNL     1       2.368   6.659  19.929  0.00  0.00    +0.000 C 
ENDROOT
BRANCH   1   5
ATOM      2  C   UNL     1       0.517   9.655  20.284  0.00  0.00    +0.000 A 
ATOM      3  N   UNL     1       1.018   9.904  19.090  0.00  0.00    +0.000 NA
ATOM      4  N   UNL     1       1.830   8.837  18.770  0.00  0.00    +0.000 NA
ATOM      5  C   UNL     1       1.766   8.003  19.789  0.00  0.00    +0.000 A 
ATOM      6  O   UNL     1       0.944   8.455  20.793  0.00  0.00    +0.000 OA
BRANCH   2  10
ATOM      7  C   UNL     1      -2.075  12.161  22.576  0.00  0.00    +0.000 A 
ATOM      8  C   UNL     1      -1.936  12.357  21.202  0.00  0.00    +0.000 A 
ATOM      9  C   UNL     1      -1.100  11.511  20.468  0.00  0.00    +0.000 A 
ATOM     10  C   UNL     1      -0.389  10.467  21.089  0.00  0.00    +0.000 A 
ATOM     11  C   UNL     1      -0.560  10.270  22.469  0.00  0.00    +0.000 A 
ATOM     12  C   UNL     1      -1.397  11.115  23.217  0.00  0.00    +0.000 A 
BRANCH   7  14
ATOM     13  O   UNL     1      -4.000  12.625  23.790  0.00  0.00    +0.000 OA
ATOM     14  N   UNL     1      -2.925  13.070  23.357  0.00  0.00    +0.000 N 
ATOM     15  O   UNL     1      -2.529  14.229  23.528  0.00  0.00    +0.000 OA
ENDBRANCH   7  14
ENDBRANCH   2  10
ENDBRANCH   1   5
BRANCH   1  16
ATOM     16  S   UNL     1       2.324   5.688  18.403  0.00  0.00    +0.000 S 
BRANCH  16  17
ATOM     17  C   UNL     1       3.987   5.445  18.030  0.00  0.00    +0.000 A 
ATOM     18  N   UNL     1       4.740   6.367  17.466  0.00  0.00    +0.000 NA
ATOM     19  N   UNL     1       6.037   5.925  17.477  0.00  0.00    +0.000 NA
ATOM     20  C   UNL     1       6.028   4.745  18.035  0.00  0.00    +0.000 A 
ATOM     21  N   UNL     1       4.750   4.347  18.360  0.00  0.00    +0.000 N 
BRANCH  21  22
ATOM     22  C   UNL     1       4.439   2.994  18.807  0.00  0.00    +0.000 C 
ATOM     23  C   UNL     1       3.968   2.806  20.255  0.00  0.00    +0.000 C 
ATOM     24  C   UNL     1       2.468   2.931  20.479  0.00  0.00    +0.000 C 
ATOM     25  C   UNL     1       1.598   2.281  19.402  0.00  0.00    +0.000 C 
ATOM     26  C   UNL     1       2.096   2.398  17.962  0.00  0.00    +0.000 C 
ATOM     27  C   UNL     1       3.594   2.179  17.821  0.00  0.00    +0.000 C 
ENDBRANCH  21  22
BRANCH  20  28
ATOM     28  O   UNL     1       7.124   4.042  18.247  0.00  0.00    +0.000 OA
ATOM     29  H   UNL     1       6.790   3.288  18.769  0.00  0.00    +0.000 HD
ENDBRANCH  20  28
ENDBRANCH  16  17
ENDBRANCH   1  16
TORSDOF 7
ENDMDL
MODEL 8
REMARK VINA RESULT:      -7.6      3.219      9.622
REMARK  Name = 
REMARK  7 active torsions:
REMARK  status: ('A' for Active; 'I' for Inactive)
REMARK    1  A    between atoms: N_2  and  C_4
REMARK    2  A    between atoms: C_7  and  C_8
REMARK    3  A    between atoms: C_11  and  C_12
REMARK    4  A    between atoms: C_12  and  S_13
REMARK    5  A    between atoms: S_13  and  C_14
REMARK    6  A    between atoms: C_17  and  O_18
REMARK    7  A    between atoms: N_19  and  C_20
REMARK                            x       y       z     vdW  Elec       q    Type
REMARK                         _______ _______ _______ _____ _____    ______ ____
ROOT
ATOM      1  C   UNL     1       1.307   7.325  21.198  0.00  0.00    +0.000 C 
ENDROOT
BRANCH   1   5
ATOM      2  C   UNL     1       2.965   5.323  18.795  0.00  0.00    +0.000 A 
ATOM      3  N   UNL     1       2.293   4.356  19.389  0.00  0.00    +0.000 NA
ATOM      4  N   UNL     1       1.585   4.939  20.418  0.00  0.00    +0.000 NA
ATOM      5  C   UNL     1       1.868   6.226  20.380  0.00  0.00    +0.000 A 
ATOM      6  O   UNL     1       2.739   6.548  19.368  0.00  0.00    +0.000 OA
BRANCH   2  10
ATOM      7  C   UNL     1       5.717   4.986  15.545  0.00  0.00    +0.000 A 
ATOM      8  C   UNL     1       5.147   3.845  16.109  0.00  0.00    +0.000 A 
ATOM      9  C   UNL     1       4.231   3.980  17.156  0.00  0.00    +0.000 A 
ATOM     10  C   UNL     1       3.877   5.246  17.659  0.00  0.00    +0.000 A 
ATOM     11  C   UNL     1       4.443   6.385  17.062  0.00  0.00    +0.000 A 
ATOM     12  C   UNL     1       5.366   6.261  16.010  0.00  0.00    +0.000 A 
BRANCH   7  14
ATOM     13  O   UNL     1       6.453   4.049  13.551  0.00  0.00    +0.000 OA
ATOM     14  N   UNL     1       6.707   4.848  14.467  0.00  0.00    +0.000 N 
ATOM     15  O   UNL     1       7.740   5.523  14.540  0.00  0.00    +0.000 OA
ENDBRANCH   7  14
ENDBRANCH   2  10
ENDBRANCH   1   5
BRANCH   1  16
ATOM     16  S   UNL     1       1.084   8.866  20.277  0.00  0.00    +0.000 S 
BRANCH  16  17
ATOM     17  C   UNL     1       0.247   9.882  21.387  0.00  0.00    +0.000 A 
ATOM     18  N   UNL     1       0.032   9.551  22.644  0.00  0.00    +0.000 NA
ATOM     19  N   UNL     1      -0.487  10.642  23.290  0.00  0.00    +0.000 NA
ATOM     20  C   UNL     1      -0.582  11.595  22.404  0.00  0.00    +0.000 A 
ATOM     21  N   UNL     1      -0.188  11.168  21.155  0.00  0.00    +0.000 N 
BRANCH  21  22
ATOM     22  C   UNL     1      -0.385  11.970  19.952  0.00  0.00    +0.000 C 
ATOM     23  C   UNL     1      -0.151  11.297  18.594  0.00  0.00    +0.000 C 
ATOM     24  C   UNL     1      -1.360  10.593  17.993  0.00  0.00    +0.000 C 
ATOM     25  C   UNL     1      -2.686  11.339  18.152  0.00  0.00    +0.000 C 
ATOM     26  C   UNL     1      -2.898  12.075  19.473  0.00  0.00    +0.000 C 
ATOM     27  C   UNL     1      -1.664  12.817  19.958  0.00  0.00    +0.000 C 
ENDBRANCH  21  22
BRANCH  20  28
ATOM     28  O   UNL     1      -1.008  12.809  22.696  0.00  0.00    +0.000 OA
ATOM     29  H   UNL     1      -0.174  13.302  22.805  0.00  0.00    +0.000 HD
ENDBRANCH  20  28
ENDBRANCH  16  17
ENDBRANCH   1  16
TORSDOF 7
ENDMDL
MODEL 9
REMARK VINA RESULT:      -7.6      2.481      2.936
REMARK  Name = 
REMARK  7 active torsions:
REMARK  status: ('A' for Active; 'I' for Inactive)
REMARK    1  A    between atoms: N_2  and  C_4
REMARK    2  A    between atoms: C_7  and  C_8
REMARK    3  A    between atoms: C_11  and  C_12
REMARK    4  A    between atoms: C_12  and  S_13
REMARK    5  A    between atoms: S_13  and  C_14
REMARK    6  A    between atoms: C_17  and  O_18
REMARK    7  A    between atoms: N_19  and  C_20
REMARK                            x       y       z     vdW  Elec       q    Type
REMARK                         _______ _______ _______ _____ _____    ______ ____
ROOT
ATOM      1  C   UNL     1       2.049   8.030  17.564  0.00  0.00    +0.000 C 
ENDROOT
BRANCH   1   5
ATOM      2  C   UNL     1       0.700  10.829  19.260  0.00  0.00    +0.000 A 
ATOM      3  N   UNL     1       1.612  11.476  18.559  0.00  0.00    +0.000 NA
ATOM      4  N   UNL     1       2.299  10.528  17.832  0.00  0.00    +0.000 NA
ATOM      5  C   UNL     1       1.757   9.365  18.132  0.00  0.00    +0.000 A 
ATOM      6  O   UNL     1       0.728   9.476  19.034  0.00  0.00    +0.000 OA
BRANCH   2  10
ATOM      7  C   UNL     1      -2.175  12.232  22.091  0.00  0.00    +0.000 A 
ATOM      8  C   UNL     1      -1.030  11.562  22.520  0.00  0.00    +0.000 A 
ATOM      9  C   UNL     1      -0.090  11.132  21.579  0.00  0.00    +0.000 A 
ATOM     10  C   UNL     1      -0.281  11.356  20.202  0.00  0.00    +0.000 A 
ATOM     11  C   UNL     1      -1.429  12.053  19.790  0.00  0.00    +0.000 A 
ATOM     12  C   UNL     1      -2.380  12.488  20.728  0.00  0.00    +0.000 A 
BRANCH   7  14
ATOM     13  O   UNL     1      -4.355  12.294  22.888  0.00  0.00    +0.000 OA
ATOM     14  N   UNL     1      -3.182  12.654  23.075  0.00  0.00    +0.000 N 
ATOM     15  O   UNL     1      -2.807  13.353  24.023  0.00  0.00    +0.000 OA
ENDBRANCH   7  14
ENDBRANCH   2  10
ENDBRANCH   1   5
BRANCH   1  16
ATOM     16  S   UNL     1       2.815   6.896  18.747  0.00  0.00    +0.000 S 
BRANCH  16  17
ATOM     17  C   UNL     1       4.153   6.248  17.879  0.00  0.00    +0.000 A 
ATOM     18  N   UNL     1       5.022   6.997  17.232  0.00  0.00    +0.000 NA
ATOM     19  N   UNL     1       6.050   6.195  16.812  0.00  0.00    +0.000 NA
ATOM     20  C   UNL     1       5.766   4.983  17.206  0.00  0.00    +0.000 A 
ATOM     21  N   UNL     1       4.546   4.928  17.841  0.00  0.00    +0.000 N 
BRANCH  21  22
ATOM     22  C   UNL     1       3.902   3.669  18.198  0.00  0.00    +0.000 C 
ATOM     23  C   UNL     1       3.717   3.354  19.688  0.00  0.00    +0.000 C 
ATOM     24  C   UNL     1       2.430   3.873  20.314  0.00  0.00    +0.000 C 
ATOM     25  C   UNL     1       1.184   3.732  19.439  0.00  0.00    +0.000 C 
ATOM     26  C   UNL     1       1.372   3.970  17.942  0.00  0.00    +0.000 C 
ATOM     27  C   UNL     1       2.642   3.348  17.385  0.00  0.00    +0.000 C 
ENDBRANCH  21  22
BRANCH  20  28
ATOM     28  O   UNL     1       6.569   3.956  17.004  0.00  0.00    +0.000 OA
ATOM     29  H   UNL     1       7.151   3.990  17.787  0.00  0.00    +0.000 HD
ENDBRANCH  20  28
ENDBRANCH  16  17
ENDBRANCH   1  16
TORSDOF 7
ENDMDL
