MODEL 1
REMARK VINA RESULT:      -6.7      0.000      0.000
REMARK  Name = 
REMARK  6 active torsions:
REMARK  status: ('A' for Active; 'I' for Inactive)
REMARK    1  A    between atoms: C_1  and  C_2
REMARK    2  A    between atoms: C_2  and  C_3
REMARK    3  A    between atoms: C_3  and  C_4
REMARK    4  A    between atoms: C_4  and  C_5
REMARK    5  A    between atoms: N_15  and  C_16
REMARK    6  A    between atoms: N_19  and  C_20
REMARK                            x       y       z     vdW  Elec       q    Type
REMARK                         _______ _______ _______ _____ _____    ______ ____
ROOT
ATOM      1  C   UNL     1      -5.560  12.102  18.985  0.00  0.00    +0.000 C 
ATOM      2  C   UNL     1      -6.396  11.329  20.005  0.00  0.00    +0.000 C 
ATOM      3  O   UNL     1      -6.878  10.216  19.784  0.00  0.00    +0.000 OA
ATOM      4  N   UNL     1      -6.692  11.908  21.200  0.00  0.00    +0.000 N 
ATOM      5  C   UNL     1      -6.409  13.225  21.578  0.00  0.00    +0.000 A 
ATOM      6  C   UNL     1      -7.489  13.884  22.198  0.00  0.00    +0.000 A 
ATOM      7  C   UNL     1      -7.409  15.244  22.489  0.00  0.00    +0.000 A 
ATOM      8  C   UNL     1      -6.233  15.928  22.231  0.00  0.00    +0.000 A 
ATOM      9  C   UNL     1      -5.129  15.260  21.680  0.00  0.00    +0.000 A 
ATOM     10  C   UNL     1      -5.189  13.900  21.326  0.00  0.00    +0.000 A 
ATOM     11  N   UNL     1      -4.051  13.280  20.684  0.00  0.00    +0.000 N 
ATOM     12  C   UNL     1      -4.194  12.335  19.664  0.00  0.00    +0.000 C 
ATOM     13  O   UNL     1      -3.246  11.661  19.276  0.00  0.00    +0.000 OA
ATOM     14  H   UNL     1      -7.430  11.407  21.682  0.00  0.00    +0.000 HD
ENDROOT
BRANCH  11  15
ATOM     15  C   UNL     1      -2.676  13.642  21.206  0.00  0.00    +0.000 C 
ATOM     16  C   UNL     1      -1.655  14.079  20.152  0.00  0.00    +0.000 C 
ATOM     17  C   UNL     1      -0.877  12.942  19.480  0.00  0.00    +0.000 C 
ATOM     18  N   UNL     1      -0.352  11.852  20.335  0.00  0.00    +0.000 NA
ATOM     19  C   UNL     1      -1.256  11.506  21.455  0.00  0.00    +0.000 C 
ATOM     20  C   UNL     1      -2.000  12.643  22.147  0.00  0.00    +0.000 C 
BRANCH  18  21
ATOM     21  C   UNL     1      -0.087  10.619  19.486  0.00  0.00    +0.000 C 
ATOM     22  C   UNL     1       1.330  10.631  18.842  0.00  0.00    +0.000 C 
ATOM     23  C   UNL     1       1.637   9.517  17.827  0.00  0.00    +0.000 C 
ATOM     24  C   UNL     1       1.742   8.048  18.262  0.00  0.00    +0.000 C 
ATOM     25  C   UNL     1       2.418   7.757  19.602  0.00  0.00    +0.000 C 
ATOM     26  C   UNL     1       1.476   7.611  20.803  0.00  0.00    +0.000 C 
ATOM     27  C   UNL     1       0.743   8.883  21.220  0.00  0.00    +0.000 C 
ATOM     28  C   UNL     1      -0.343   9.283  20.223  0.00  0.00    +0.000 C 
ENDBRANCH  18  21
ENDBRANCH  11  15
BRANCH   1  30
ATOM     29  C   UNL     1      -7.682  13.258  18.023  0.00  0.00    +0.000 C 
ATOM     30  C   UNL     1      -6.230  13.408  18.468  0.00  0.00    +0.000 C 
ENDBRANCH   1  30
BRANCH   1  31
ATOM     31  C   UNL     1      -5.346  11.134  17.757  0.00  0.00    +0.000 C 
ATOM     32  C   UNL     1      -4.620  11.731  16.552  0.00  0.00    +0.000 C 
ENDBRANCH   1  31
TORSDOF 4
ENDMDL
MODEL 2
REMARK VINA RESULT:      -6.7      8.117     11.483
REMARK  Name = 
REMARK  6 active torsions:
REMARK  status: ('A' for Active; 'I' for Inactive)
REMARK    1  A    between atoms: C_1  and  C_2
REMARK    2  A    between atoms: C_2  and  C_3
REMARK    3  A    between atoms: C_3  and  C_4
REMARK    4  A    between atoms: C_4  and  C_5
REMARK    5  A    between atoms: N_15  and  C_16
REMARK    6  A    between atoms: N_19  and  C_20
REMARK                            x       y       z     vdW  Elec       q    Type
REMARK                         _______ _______ _______ _____ _____    ______ ____
ROOT
ATOM      1  C   UNL     1       2.770   3.653  19.227  0.00  0.00    +0.000 C 
ATOM      2  C   UNL     1       2.120   4.431  20.371  0.00  0.00    +0.000 C 
ATOM      3  O   UNL     1       1.444   3.902  21.255  0.00  0.00    +0.000 OA
ATOM      4  N   UNL     1       2.226   5.789  20.398  0.00  0.00    +0.000 N 
ATOM      5  C   UNL     1       2.781   6.599  19.403  0.00  0.00    +0.000 A 
ATOM      6  C   UNL     1       2.002   7.728  19.087  0.00  0.00    +0.000 A 
ATOM      7  C   UNL     1       2.347   8.543  18.011  0.00  0.00    +0.000 A 
ATOM      8  C   UNL     1       3.504   8.275  17.297  0.00  0.00    +0.000 A 
ATOM      9  C   UNL     1       4.323   7.193  17.653  0.00  0.00    +0.000 A 
ATOM     10  C   UNL     1       3.980   6.318  18.700  0.00  0.00    +0.000 A 
ATOM     11  N   UNL     1       4.816   5.170  18.971  0.00  0.00    +0.000 N 
ATOM     12  C   UNL     1       4.282   3.933  19.345  0.00  0.00    +0.000 C 
ATOM     13  O   UNL     1       4.993   3.032  19.778  0.00  0.00    +0.000 OA
ATOM     14  H   UNL     1       1.572   6.198  21.056  0.00  0.00    +0.000 HD
ENDROOT
BRANCH  11  15
ATOM     15  C   UNL     1       6.316   5.369  18.902  0.00  0.00    +0.000 C 
ATOM     16  C   UNL     1       6.785   6.737  18.403  0.00  0.00    +0.000 C 
ATOM     17  C   UNL     1       6.901   6.877  16.881  0.00  0.00    +0.000 C 
ATOM     18  N   UNL     1       7.529   5.769  16.122  0.00  0.00    +0.000 NA
ATOM     19  C   UNL     1       7.209   4.434  16.674  0.00  0.00    +0.000 C 
ATOM     20  C   UNL     1       7.131   4.289  18.189  0.00  0.00    +0.000 C 
BRANCH  18  21
ATOM     21  C   UNL     1       7.102   5.842  14.665  0.00  0.00    +0.000 C 
ATOM     22  C   UNL     1       8.218   5.364  13.691  0.00  0.00    +0.000 C 
ATOM     23  C   UNL     1       7.953   5.558  12.188  0.00  0.00    +0.000 C 
ATOM     24  C   UNL     1       6.851   4.771  11.464  0.00  0.00    +0.000 C 
ATOM     25  C   UNL     1       6.653   3.308  11.861  0.00  0.00    +0.000 C 
ATOM     26  C   UNL     1       5.570   3.046  12.914  0.00  0.00    +0.000 C 
ATOM     27  C   UNL     1       5.863   3.595  14.308  0.00  0.00    +0.000 C 
ATOM     28  C   UNL     1       5.767   5.118  14.366  0.00  0.00    +0.000 C 
ENDBRANCH  18  21
ENDBRANCH  11  15
BRANCH   1  30
ATOM     29  C   UNL     1       3.023   3.489  16.643  0.00  0.00    +0.000 C 
ATOM     30  C   UNL     1       2.183   3.975  17.821  0.00  0.00    +0.000 C 
ENDBRANCH   1  30
BRANCH   1  31
ATOM     31  C   UNL     1       2.521   2.125  19.530  0.00  0.00    +0.000 C 
ATOM     32  C   UNL     1       1.209   1.543  19.004  0.00  0.00    +0.000 C 
ENDBRANCH   1  31
TORSDOF 4
ENDMDL
MODEL 3
REMARK VINA RESULT:      -6.6      2.456      7.168
REMARK  Name = 
REMARK  6 active torsions:
REMARK  status: ('A' for Active; 'I' for Inactive)
REMARK    1  A    between atoms: C_1  and  C_2
REMARK    2  A    between atoms: C_2  and  C_3
REMARK    3  A    between atoms: C_3  and  C_4
REMARK    4  A    between atoms: C_4  and  C_5
REMARK    5  A    between atoms: N_15  and  C_16
REMARK    6  A    between atoms: N_19  and  C_20
REMARK                            x       y       z     vdW  Elec       q    Type
REMARK                         _______ _______ _______ _____ _____    ______ ____
ROOT
ATOM      1  C   UNL     1       0.185  12.282  19.514  0.00  0.00    +0.000 C 
ATOM      2  C   UNL     1      -0.601  13.086  18.478  0.00  0.00    +0.000 C 
ATOM      3  O   UNL     1      -1.181  12.573  17.519  0.00  0.00    +0.000 OA
ATOM      4  N   UNL     1      -0.619  14.444  18.562  0.00  0.00    +0.000 N 
ATOM      5  C   UNL     1       0.120  15.232  19.450  0.00  0.00    +0.000 A 
ATOM      6  C   UNL     1       0.746  16.339  18.845  0.00  0.00    +0.000 A 
ATOM      7  C   UNL     1       1.639  17.125  19.569  0.00  0.00    +0.000 A 
ATOM      8  C   UNL     1       1.853  16.854  20.910  0.00  0.00    +0.000 A 
ATOM      9  C   UNL     1       1.177  15.796  21.537  0.00  0.00    +0.000 A 
ATOM     10  C   UNL     1       0.307  14.949  20.826  0.00  0.00    +0.000 A 
ATOM     11  N   UNL     1      -0.299  13.823  21.500  0.00  0.00    +0.000 N 
ATOM     12  C   UNL     1      -0.486  12.590  20.868  0.00  0.00    +0.000 C 
ATOM     13  O   UNL     1      -1.187  11.714  21.366  0.00  0.00    +0.000 OA
ATOM     14  H   UNL     1      -0.966  14.864  17.706  0.00  0.00    +0.000 HD
ENDROOT
BRANCH  11  15
ATOM     15  C   UNL     1      -0.796  14.044  22.914  0.00  0.00    +0.000 C 
ATOM     16  C   UNL     1      -1.618  12.904  23.518  0.00  0.00    +0.000 C 
ATOM     17  C   UNL     1      -3.118  12.936  23.204  0.00  0.00    +0.000 C 
ATOM     18  N   UNL     1      -3.825  14.235  23.300  0.00  0.00    +0.000 NA
ATOM     19  C   UNL     1      -2.998  15.380  22.858  0.00  0.00    +0.000 C 
ATOM     20  C   UNL     1      -1.514  15.363  23.204  0.00  0.00    +0.000 C 
BRANCH  18  21
ATOM     21  C   UNL     1      -5.108  14.179  22.486  0.00  0.00    +0.000 C 
ATOM     22  C   UNL     1      -5.078  13.065  21.400  0.00  0.00    +0.000 C 
ATOM     23  C   UNL     1      -6.254  13.034  20.410  0.00  0.00    +0.000 C 
ATOM     24  C   UNL     1      -7.676  12.679  20.869  0.00  0.00    +0.000 C 
ATOM     25  C   UNL     1      -7.822  11.573  21.914  0.00  0.00    +0.000 C 
ATOM     26  C   UNL     1      -7.916  12.043  23.370  0.00  0.00    +0.000 C 
ATOM     27  C   UNL     1      -6.653  12.688  23.936  0.00  0.00    +0.000 C 
ATOM     28  C   UNL     1      -6.391  14.072  23.345  0.00  0.00    +0.000 C 
ENDBRANCH  18  21
ENDBRANCH  11  15
BRANCH   1  30
ATOM     29  C   UNL     1       2.341  12.682  18.115  0.00  0.00    +0.000 C 
ATOM     30  C   UNL     1       1.718  12.552  19.502  0.00  0.00    +0.000 C 
ENDBRANCH   1  30
BRANCH   1  31
ATOM     31  C   UNL     1      -0.054  10.761  19.174  0.00  0.00    +0.000 C 
ATOM     32  C   UNL     1       0.981   9.780  19.725  0.00  0.00    +0.000 C 
ENDBRANCH   1  31
TORSDOF 4
ENDMDL
MODEL 4
REMARK VINA RESULT:      -6.6      8.628     13.284
REMARK  Name = 
REMARK  6 active torsions:
REMARK  status: ('A' for Active; 'I' for Inactive)
REMARK    1  A    between atoms: C_1  and  C_2
REMARK    2  A    between atoms: C_2  and  C_3
REMARK    3  A    between atoms: C_3  and  C_4
REMARK    4  A    between atoms: C_4  and  C_5
REMARK    5  A    between atoms: N_15  and  C_16
REMARK    6  A    between atoms: N_19  and  C_20
REMARK                            x       y       z     vdW  Elec       q    Type
REMARK                         _______ _______ _______ _____ _____    ______ ____
ROOT
ATOM      1  C   UNL     1       9.535  12.804  19.843  0.00  0.00    +0.000 C 
ATOM      2  C   UNL     1       9.371  12.498  18.354  0.00  0.00    +0.000 C 
ATOM      3  O   UNL     1       9.000  11.405  17.922  0.00  0.00    +0.000 OA
ATOM      4  N   UNL     1       9.712  13.446  17.438  0.00  0.00    +0.000 N 
ATOM      5  C   UNL     1      10.327  14.674  17.702  0.00  0.00    +0.000 A 
ATOM      6  C   UNL     1      11.396  14.974  16.836  0.00  0.00    +0.000 A 
ATOM      7  C   UNL     1      12.201  16.086  17.070  0.00  0.00    +0.000 A 
ATOM      8  C   UNL     1      11.899  16.936  18.122  0.00  0.00    +0.000 A 
ATOM      9  C   UNL     1      10.792  16.681  18.945  0.00  0.00    +0.000 A 
ATOM     10  C   UNL     1       9.987  15.541  18.770  0.00  0.00    +0.000 A 
ATOM     11  N   UNL     1       8.909  15.282  19.698  0.00  0.00    +0.000 N 
ATOM     12  C   UNL     1       8.589  13.989  20.125  0.00  0.00    +0.000 C 
ATOM     13  O   UNL     1       7.552  13.754  20.736  0.00  0.00    +0.000 OA
ATOM     14  H   UNL     1       9.783  13.053  16.506  0.00  0.00    +0.000 HD
ENDROOT
BRANCH  11  15
ATOM     15  C   UNL     1       8.079  16.466  20.149  0.00  0.00    +0.000 C 
ATOM     16  C   UNL     1       7.021  16.172  21.215  0.00  0.00    +0.000 C 
ATOM     17  C   UNL     1       5.668  15.686  20.683  0.00  0.00    +0.000 C 
ATOM     18  N   UNL     1       5.088  16.380  19.509  0.00  0.00    +0.000 NA
ATOM     19  C   UNL     1       6.108  16.807  18.525  0.00  0.00    +0.000 C 
ATOM     20  C   UNL     1       7.438  17.326  19.058  0.00  0.00    +0.000 C 
BRANCH  18  21
ATOM     21  C   UNL     1       4.067  15.477  18.835  0.00  0.00    +0.000 C 
ATOM     22  C   UNL     1       3.348  14.532  19.844  0.00  0.00    +0.000 C 
ATOM     23  C   UNL     1       2.423  13.460  19.245  0.00  0.00    +0.000 C 
ATOM     24  C   UNL     1       1.120  13.841  18.527  0.00  0.00    +0.000 C 
ATOM     25  C   UNL     1       0.303  14.992  19.114  0.00  0.00    +0.000 C 
ATOM     26  C   UNL     1       0.558  16.371  18.496  0.00  0.00    +0.000 C 
ATOM     27  C   UNL     1       1.944  16.958  18.750  0.00  0.00    +0.000 C 
ATOM     28  C   UNL     1       3.036  16.234  17.965  0.00  0.00    +0.000 C 
ENDBRANCH  18  21
ENDBRANCH  11  15
BRANCH   1  30
ATOM     29  C   UNL     1      12.023  12.052  19.758  0.00  0.00    +0.000 C 
ATOM     30  C   UNL     1      11.005  13.059  20.285  0.00  0.00    +0.000 C 
ENDBRANCH   1  30
BRANCH   1  31
ATOM     31  C   UNL     1       8.995  11.541  20.619  0.00  0.00    +0.000 C 
ATOM     32  C   UNL     1       9.051  11.617  22.145  0.00  0.00    +0.000 C 
ENDBRANCH   1  31
TORSDOF 4
ENDMDL
MODEL 5
REMARK VINA RESULT:      -6.5      8.280     13.026
REMARK  Name = 
REMARK  6 active torsions:
REMARK  status: ('A' for Active; 'I' for Inactive)
REMARK    1  A    between atoms: C_1  and  C_2
REMARK    2  A    between atoms: C_2  and  C_3
REMARK    3  A    between atoms: C_3  and  C_4
REMARK    4  A    between atoms: C_4  and  C_5
REMARK    5  A    between atoms: N_15  and  C_16
REMARK    6  A    between atoms: N_19  and  C_20
REMARK                            x       y       z     vdW  Elec       q    Type
REMARK                         _______ _______ _______ _____ _____    ______ ____
ROOT
ATOM      1  C   UNL     1       8.060  14.247  22.388  0.00  0.00    +0.000 C 
ATOM      2  C   UNL     1       7.921  12.725  22.334  0.00  0.00    +0.000 C 
ATOM      3  O   UNL     1       7.219  12.079  23.114  0.00  0.00    +0.000 OA
ATOM      4  N   UNL     1       8.654  12.022  21.428  0.00  0.00    +0.000 N 
ATOM      5  C   UNL     1       9.645  12.532  20.584  0.00  0.00    +0.000 A 
ATOM      6  C   UNL     1      10.818  11.754  20.546  0.00  0.00    +0.000 A 
ATOM      7  C   UNL     1      11.947  12.215  19.873  0.00  0.00    +0.000 A 
ATOM      8  C   UNL     1      11.885  13.412  19.179  0.00  0.00    +0.000 A 
ATOM      9  C   UNL     1      10.697  14.157  19.154  0.00  0.00    +0.000 A 
ATOM     10  C   UNL     1       9.553  13.750  19.864  0.00  0.00    +0.000 A 
ATOM     11  N   UNL     1       8.381  14.596  19.873  0.00  0.00    +0.000 N 
ATOM     12  C   UNL     1       7.584  14.752  21.011  0.00  0.00    +0.000 C 
ATOM     13  O   UNL     1       6.484  15.293  20.955  0.00  0.00    +0.000 OA
ATOM     14  H   UNL     1       8.656  11.030  21.642  0.00  0.00    +0.000 HD
ENDROOT
BRANCH  11  15
ATOM     15  C   UNL     1       7.998  15.268  18.570  0.00  0.00    +0.000 C 
ATOM     16  C   UNL     1       7.552  16.728  18.677  0.00  0.00    +0.000 C 
ATOM     17  C   UNL     1       6.067  16.942  18.988  0.00  0.00    +0.000 C 
ATOM     18  N   UNL     1       5.074  16.116  18.261  0.00  0.00    +0.000 NA
ATOM     19  C   UNL     1       5.539  14.733  18.013  0.00  0.00    +0.000 C 
ATOM     20  C   UNL     1       7.009  14.527  17.667  0.00  0.00    +0.000 C 
BRANCH  18  21
ATOM     21  C   UNL     1       3.766  16.090  19.036  0.00  0.00    +0.000 C 
ATOM     22  C   UNL     1       3.649  17.265  20.050  0.00  0.00    +0.000 C 
ATOM     23  C   UNL     1       2.445  17.236  21.005  0.00  0.00    +0.000 C 
ATOM     24  C   UNL     1       1.010  17.415  20.487  0.00  0.00    +0.000 C 
ATOM     25  C   UNL     1       0.788  18.435  19.370  0.00  0.00    +0.000 C 
ATOM     26  C   UNL     1       0.788  17.871  17.945  0.00  0.00    +0.000 C 
ATOM     27  C   UNL     1       2.127  17.326  17.455  0.00  0.00    +0.000 C 
ATOM     28  C   UNL     1       2.507  16.014  18.139  0.00  0.00    +0.000 C 
ENDBRANCH  18  21
ENDBRANCH  11  15
BRANCH   1  30
ATOM     29  C   UNL     1       9.732  16.233  22.547  0.00  0.00    +0.000 C 
ATOM     30  C   UNL     1       9.482  14.745  22.778  0.00  0.00    +0.000 C 
ENDBRANCH   1  30
BRANCH   1  31
ATOM     31  C   UNL     1       7.040  14.748  23.482  0.00  0.00    +0.000 C 
ATOM     32  C   UNL     1       7.579  14.837  24.910  0.00  0.00    +0.000 C 
ENDBRANCH   1  31
TORSDOF 4
ENDMDL
MODEL 6
REMARK VINA RESULT:      -6.5      4.862      8.013
REMARK  Name = 
REMARK  6 active torsions:
REMARK  status: ('A' for Active; 'I' for Inactive)
REMARK    1  A    between atoms: C_1  and  C_2
REMARK    2  A    between atoms: C_2  and  C_3
REMARK    3  A    between atoms: C_3  and  C_4
REMARK    4  A    between atoms: C_4  and  C_5
REMARK    5  A    between atoms: N_15  and  C_16
REMARK    6  A    between atoms: N_19  and  C_20
REMARK                            x       y       z     vdW  Elec       q    Type
REMARK                         _______ _______ _______ _____ _____    ______ ____
ROOT
ATOM      1  C   UNL     1       4.651  15.607  19.606  0.00  0.00    +0.000 C 
ATOM      2  C   UNL     1       4.688  15.039  18.186  0.00  0.00    +0.000 C 
ATOM      3  O   UNL     1       5.600  14.326  17.764  0.00  0.00    +0.000 OA
ATOM      4  N   UNL     1       3.708  15.382  17.306  0.00  0.00    +0.000 N 
ATOM      5  C   UNL     1       2.692  16.320  17.516  0.00  0.00    +0.000 A 
ATOM      6  C   UNL     1       2.500  17.203  16.437  0.00  0.00    +0.000 A 
ATOM      7  C   UNL     1       1.632  18.286  16.559  0.00  0.00    +0.000 A 
ATOM      8  C   UNL     1       0.905  18.447  17.728  0.00  0.00    +0.000 A 
ATOM      9  C   UNL     1       1.039  17.529  18.780  0.00  0.00    +0.000 A 
ATOM     10  C   UNL     1       1.943  16.453  18.712  0.00  0.00    +0.000 A 
ATOM     11  N   UNL     1       2.103  15.584  19.857  0.00  0.00    +0.000 N 
ATOM     12  C   UNL     1       3.347  15.067  20.230  0.00  0.00    +0.000 C 
ATOM     13  O   UNL     1       3.446  14.170  21.061  0.00  0.00    +0.000 OA
ATOM     14  H   UNL     1       3.964  15.141  16.355  0.00  0.00    +0.000 HD
ENDROOT
BRANCH  11  15
ATOM     15  C   UNL     1       0.851  15.192  20.613  0.00  0.00    +0.000 C 
ATOM     16  C   UNL     1       1.005  14.037  21.606  0.00  0.00    +0.000 C 
ATOM     17  C   UNL     1       0.842  12.633  21.013  0.00  0.00    +0.000 C 
ATOM     18  N   UNL     1      -0.274  12.399  20.066  0.00  0.00    +0.000 NA
ATOM     19  C   UNL     1      -0.543  13.559  19.187  0.00  0.00    +0.000 C 
ATOM     20  C   UNL     1      -0.416  14.954  19.790  0.00  0.00    +0.000 C 
BRANCH  18  21
ATOM     21  C   UNL     1       0.022  11.170  19.222  0.00  0.00    +0.000 C 
ATOM     22  C   UNL     1       1.534  11.034  18.875  0.00  0.00    +0.000 C 
ATOM     23  C   UNL     1       1.917   9.922  17.884  0.00  0.00    +0.000 C 
ATOM     24  C   UNL     1       1.771   8.438  18.252  0.00  0.00    +0.000 C 
ATOM     25  C   UNL     1       2.124   8.031  19.683  0.00  0.00    +0.000 C 
ATOM     26  C   UNL     1       0.947   7.961  20.663  0.00  0.00    +0.000 C 
ATOM     27  C   UNL     1       0.287   9.297  20.993  0.00  0.00    +0.000 C 
ATOM     28  C   UNL     1      -0.522   9.851  19.822  0.00  0.00    +0.000 C 
ENDBRANCH  18  21
ENDBRANCH  11  15
BRANCH   1  30
ATOM     29  C   UNL     1       4.473  17.768  21.042  0.00  0.00    +0.000 C 
ATOM     30  C   UNL     1       4.782  17.156  19.678  0.00  0.00    +0.000 C 
ENDBRANCH   1  30
BRANCH   1  31
ATOM     31  C   UNL     1       5.872  14.968  20.373  0.00  0.00    +0.000 C 
ATOM     32  C   UNL     1       7.212  15.688  20.217  0.00  0.00    +0.000 C 
ENDBRANCH   1  31
TORSDOF 4
ENDMDL
MODEL 7
REMARK VINA RESULT:      -6.4      2.059      6.888
REMARK  Name = 
REMARK  6 active torsions:
REMARK  status: ('A' for Active; 'I' for Inactive)
REMARK    1  A    between atoms: C_1  and  C_2
REMARK    2  A    between atoms: C_2  and  C_3
REMARK    3  A    between atoms: C_3  and  C_4
REMARK    4  A    between atoms: C_4  and  C_5
REMARK    5  A    between atoms: N_15  and  C_16
REMARK    6  A    between atoms: N_19  and  C_20
REMARK                            x       y       z     vdW  Elec       q    Type
REMARK                         _______ _______ _______ _____ _____    ______ ____
ROOT
ATOM      1  C   UNL     1      -0.143  11.662  19.918  0.00  0.00    +0.000 C 
ATOM      2  C   UNL     1      -0.984  12.189  18.755  0.00  0.00    +0.000 C 
ATOM      3  O   UNL     1      -1.463  11.464  17.881  0.00  0.00    +0.000 OA
ATOM      4  N   UNL     1      -1.170  13.531  18.622  0.00  0.00    +0.000 N 
ATOM      5  C   UNL     1      -0.565  14.534  19.385  0.00  0.00    +0.000 A 
ATOM      6  C   UNL     1      -0.058  15.603  18.621  0.00  0.00    +0.000 A 
ATOM      7  C   UNL     1       0.706  16.599  19.225  0.00  0.00    +0.000 A 
ATOM      8  C   UNL     1       0.904  16.569  20.596  0.00  0.00    +0.000 A 
ATOM      9  C   UNL     1       0.340  15.545  21.372  0.00  0.00    +0.000 A 
ATOM     10  C   UNL     1      -0.394  14.495  20.791  0.00  0.00    +0.000 A 
ATOM     11  N   UNL     1      -0.882  13.420  21.626  0.00  0.00    +0.000 N 
ATOM     12  C   UNL     1      -0.894  12.090  21.195  0.00  0.00    +0.000 C 
ATOM     13  O   UNL     1      -1.500  11.221  21.814  0.00  0.00    +0.000 OA
ATOM     14  H   UNL     1      -1.535  13.765  17.705  0.00  0.00    +0.000 HD
ENDROOT
BRANCH  11  15
ATOM     15  C   UNL     1      -1.451  13.794  22.979  0.00  0.00    +0.000 C 
ATOM     16  C   UNL     1      -2.260  12.704  23.687  0.00  0.00    +0.000 C 
ATOM     17  C   UNL     1      -3.744  12.635  23.309  0.00  0.00    +0.000 C 
ATOM     18  N   UNL     1      -4.501  13.906  23.211  0.00  0.00    +0.000 NA
ATOM     19  C   UNL     1      -3.696  15.020  22.662  0.00  0.00    +0.000 C 
ATOM     20  C   UNL     1      -2.229  15.108  23.070  0.00  0.00    +0.000 C 
BRANCH  18  21
ATOM     21  C   UNL     1      -5.741  13.696  22.357  0.00  0.00    +0.000 C 
ATOM     22  C   UNL     1      -6.154  14.979  21.579  0.00  0.00    +0.000 C 
ATOM     23  C   UNL     1      -7.491  14.927  20.821  0.00  0.00    +0.000 C 
ATOM     24  C   UNL     1      -7.684  14.011  19.603  0.00  0.00    +0.000 C 
ATOM     25  C   UNL     1      -6.509  13.874  18.634  0.00  0.00    +0.000 C 
ATOM     26  C   UNL     1      -5.590  12.670  18.871  0.00  0.00    +0.000 C 
ATOM     27  C   UNL     1      -4.779  12.707  20.164  0.00  0.00    +0.000 C 
ATOM     28  C   UNL     1      -5.647  12.483  21.401  0.00  0.00    +0.000 C 
ENDBRANCH  18  21
ENDBRANCH  11  15
BRANCH   1  30
ATOM     29  C   UNL     1       1.995  12.113  18.507  0.00  0.00    +0.000 C 
ATOM     30  C   UNL     1       1.345  12.118  19.888  0.00  0.00    +0.000 C 
ENDBRANCH   1  30
BRANCH   1  31
ATOM     31  C   UNL     1      -0.183  10.088  19.820  0.00  0.00    +0.000 C 
ATOM     32  C   UNL     1       0.912   9.342  20.583  0.00  0.00    +0.000 C 
ENDBRANCH   1  31
TORSDOF 4
ENDMDL
MODEL 8
REMARK VINA RESULT:      -6.3      4.026      6.051
REMARK  Name = 
REMARK  6 active torsions:
REMARK  status: ('A' for Active; 'I' for Inactive)
REMARK    1  A    between atoms: C_1  and  C_2
REMARK    2  A    between atoms: C_2  and  C_3
REMARK    3  A    between atoms: C_3  and  C_4
REMARK    4  A    between atoms: C_4  and  C_5
REMARK    5  A    between atoms: N_15  and  C_16
REMARK    6  A    between atoms: N_19  and  C_20
REMARK                            x       y       z     vdW  Elec       q    Type
REMARK                         _______ _______ _______ _____ _____    ______ ____
ROOT
ATOM      1  C   UNL     1      -1.408  11.122  18.244  0.00  0.00    +0.000 C 
ATOM      2  C   UNL     1      -0.209  10.211  18.515  0.00  0.00    +0.000 C 
ATOM      3  O   UNL     1       0.300   9.487  17.658  0.00  0.00    +0.000 OA
ATOM      4  N   UNL     1       0.295  10.130  19.777  0.00  0.00    +0.000 N 
ATOM      5  C   UNL     1      -0.246  10.715  20.927  0.00  0.00    +0.000 A 
ATOM      6  C   UNL     1      -0.300   9.848  22.035  0.00  0.00    +0.000 A 
ATOM      7  C   UNL     1      -0.951  10.238  23.202  0.00  0.00    +0.000 A 
ATOM      8  C   UNL     1      -1.485  11.513  23.291  0.00  0.00    +0.000 A 
ATOM      9  C   UNL     1      -1.371  12.407  22.216  0.00  0.00    +0.000 A 
ATOM     10  C   UNL     1      -0.764  12.031  21.003  0.00  0.00    +0.000 A 
ATOM     11  N   UNL     1      -0.747  12.963  19.897  0.00  0.00    +0.000 N 
ATOM     12  C   UNL     1      -0.921  12.549  18.573  0.00  0.00    +0.000 C 
ATOM     13  O   UNL     1      -0.695  13.301  17.631  0.00  0.00    +0.000 OA
ATOM     14  H   UNL     1       0.918   9.337  19.877  0.00  0.00    +0.000 HD
ENDROOT
BRANCH  11  15
ATOM     15  C   UNL     1      -0.464  14.416  20.216  0.00  0.00    +0.000 C 
ATOM     16  C   UNL     1       0.051  15.266  19.052  0.00  0.00    +0.000 C 
ATOM     17  C   UNL     1       1.568  15.230  18.832  0.00  0.00    +0.000 C 
ATOM     18  N   UNL     1       2.450  15.330  20.019  0.00  0.00    +0.000 NA
ATOM     19  C   UNL     1       1.905  14.636  21.207  0.00  0.00    +0.000 C 
ATOM     20  C   UNL     1       0.401  14.705  21.444  0.00  0.00    +0.000 C 
BRANCH  18  21
ATOM     21  C   UNL     1       3.824  14.773  19.681  0.00  0.00    +0.000 C 
ATOM     22  C   UNL     1       4.320  15.220  18.275  0.00  0.00    +0.000 C 
ATOM     23  C   UNL     1       5.620  14.575  17.764  0.00  0.00    +0.000 C 
ATOM     24  C   UNL     1       6.971  14.862  18.436  0.00  0.00    +0.000 C 
ATOM     25  C   UNL     1       7.229  16.290  18.915  0.00  0.00    +0.000 C 
ATOM     26  C   UNL     1       6.909  16.565  20.389  0.00  0.00    +0.000 C 
ATOM     27  C   UNL     1       5.431  16.492  20.765  0.00  0.00    +0.000 C 
ATOM     28  C   UNL     1       4.899  15.061  20.757  0.00  0.00    +0.000 C 
ENDBRANCH  18  21
ENDBRANCH  11  15
BRANCH   1  30
ATOM     29  C   UNL     1      -3.840  11.732  18.936  0.00  0.00    +0.000 C 
ATOM     30  C   UNL     1      -2.704  10.715  19.004  0.00  0.00    +0.000 C 
ENDBRANCH   1  30
BRANCH   1  31
ATOM     31  C   UNL     1      -1.691  11.037  16.695  0.00  0.00    +0.000 C 
ATOM     32  C   UNL     1      -2.626   9.913  16.246  0.00  0.00    +0.000 C 
ENDBRANCH   1  31
TORSDOF 4
ENDMDL
MODEL 9
REMARK VINA RESULT:      -6.3      7.663     11.426
REMARK  Name = 
REMARK  6 active torsions:
REMARK  status: ('A' for Active; 'I' for Inactive)
REMARK    1  A    between atoms: C_1  and  C_2
REMARK    2  A    between atoms: C_2  and  C_3
REMARK    3  A    between atoms: C_3  and  C_4
REMARK    4  A    between atoms: C_4  and  C_5
REMARK    5  A    between atoms: N_15  and  C_16
REMARK    6  A    between atoms: N_19  and  C_20
REMARK                            x       y       z     vdW  Elec       q    Type
REMARK                         _______ _______ _______ _____ _____    ______ ____
ROOT
ATOM      1  C   UNL     1       3.193   3.764  19.400  0.00  0.00    +0.000 C 
ATOM      2  C   UNL     1       2.683   4.305  20.737  0.00  0.00    +0.000 C 
ATOM      3  O   UNL     1       2.408   3.586  21.699  0.00  0.00    +0.000 OA
ATOM      4  N   UNL     1       2.451   5.639  20.870  0.00  0.00    +0.000 N 
ATOM      5  C   UNL     1       2.515   6.600  19.856  0.00  0.00    +0.000 A 
ATOM      6  C   UNL     1       1.425   7.491  19.846  0.00  0.00    +0.000 A 
ATOM      7  C   UNL     1       1.271   8.403  18.804  0.00  0.00    +0.000 A 
ATOM      8  C   UNL     1       2.237   8.475  17.814  0.00  0.00    +0.000 A 
ATOM      9  C   UNL     1       3.362   7.638  17.858  0.00  0.00    +0.000 A 
ATOM     10  C   UNL     1       3.526   6.671  18.866  0.00  0.00    +0.000 A 
ATOM     11  N   UNL     1       4.662   5.778  18.817  0.00  0.00    +0.000 N 
ATOM     12  C   UNL     1       4.566   4.432  19.184  0.00  0.00    +0.000 C 
ATOM     13  O   UNL     1       5.565   3.739  19.346  0.00  0.00    +0.000 OA
ATOM     14  H   UNL     1       1.905   5.839  21.701  0.00  0.00    +0.000 HD
ENDROOT
BRANCH  11  15
ATOM     15  C   UNL     1       5.997   6.370  18.415  0.00  0.00    +0.000 C 
ATOM     16  C   UNL     1       6.010   7.154  17.101  0.00  0.00    +0.000 C 
ATOM     17  C   UNL     1       6.231   6.316  15.837  0.00  0.00    +0.000 C 
ATOM     18  N   UNL     1       7.283   5.272  15.865  0.00  0.00    +0.000 NA
ATOM     19  C   UNL     1       7.392   4.593  17.176  0.00  0.00    +0.000 C 
ATOM     20  C   UNL     1       7.209   5.437  18.432  0.00  0.00    +0.000 C 
BRANCH  18  21
ATOM     21  C   UNL     1       7.015   4.247  14.774  0.00  0.00    +0.000 C 
ATOM     22  C   UNL     1       5.536   4.268  14.287  0.00  0.00    +0.000 C 
ATOM     23  C   UNL     1       5.117   3.157  13.309  0.00  0.00    +0.000 C 
ATOM     24  C   UNL     1       5.685   3.091  11.884  0.00  0.00    +0.000 C 
ATOM     25  C   UNL     1       5.885   4.414  11.144  0.00  0.00    +0.000 C 
ATOM     26  C   UNL     1       7.291   5.017  11.230  0.00  0.00    +0.000 C 
ATOM     27  C   UNL     1       7.716   5.497  12.616  0.00  0.00    +0.000 C 
ATOM     28  C   UNL     1       7.987   4.339  13.574  0.00  0.00    +0.000 C 
ENDBRANCH  18  21
ENDBRANCH  11  15
BRANCH   1  30
ATOM     29  C   UNL     1       0.776   3.503  18.474  0.00  0.00    +0.000 C 
ATOM     30  C   UNL     1       2.207   3.965  18.212  0.00  0.00    +0.000 C 
ENDBRANCH   1  30
BRANCH   1  31
ATOM     31  C   UNL     1       3.418   2.216  19.603  0.00  0.00    +0.000 C 
ATOM     32  C   UNL     1       3.588   1.391  18.326  0.00  0.00    +0.000 C 
ENDBRANCH   1  31
TORSDOF 4
ENDMDL
