MODEL 1
REMARK VINA RESULT:      -9.5      0.000      0.000
REMARK  Name = 
REMARK  9 active torsions:
REMARK  status: ('A' for Active; 'I' for Inactive)
REMARK    1  A    between atoms: C_2  and  C_3
REMARK    2  A    between atoms: N_5  and  C_6
REMARK    3  A    between atoms: C_6  and  C_7
REMARK    4  A    between atoms: C_9  and  C_10
REMARK    5  A    between atoms: C_15  and  N_16
REMARK    6  A    between atoms: N_16  and  C_17
REMARK    7  A    between atoms: C_20  and  O_21
REMARK    8  A    between atoms: O_21  and  C_22
REMARK    9  A    between atoms: C_22  and  C_23
REMARK                            x       y       z     vdW  Elec       q    Type
REMARK                         _______ _______ _______ _____ _____    ______ ____
ROOT
ATOM      1  C   UNL     1       3.491   3.777  19.248  0.00  0.00    +0.000 A 
ATOM      2  C   UNL     1       2.959   2.488  19.262  0.00  0.00    +0.000 A 
ATOM      3  N   UNL     1       1.783   2.145  19.830  0.00  0.00    +0.000 NA
ATOM      4  C   UNL     1       1.117   3.153  20.400  0.00  0.00    +0.000 A 
ATOM      5  N   UNL     1       1.519   4.426  20.451  0.00  0.00    +0.000 NA
ATOM      6  C   UNL     1       2.707   4.740  19.882  0.00  0.00    +0.000 A 
ENDROOT
BRANCH   1   9
ATOM      7  C   UNL     1       6.533   4.487  17.353  0.00  0.00    +0.000 A 
ATOM      8  C   UNL     1       5.182   4.078  17.273  0.00  0.00    +0.000 A 
ATOM      9  C   UNL     1       4.753   4.027  18.575  0.00  0.00    +0.000 A 
ATOM     10  O   UNL     1       5.815   4.312  19.390  0.00  0.00    +0.000 OA
ATOM     11  N   UNL     1       6.930   4.605  18.626  0.00  0.00    +0.000 NA
BRANCH   7  12
ATOM     12  C   UNL     1       7.445   4.831  16.232  0.00  0.00    +0.000 C 
BRANCH  12  15
ATOM     13  C   UNL     1       7.266   4.910  13.782  0.00  0.00    +0.000 C 
ATOM     14  O   UNL     1       8.177   5.717  13.659  0.00  0.00    +0.000 OA
ATOM     15  N   UNL     1       6.818   4.434  14.987  0.00  0.00    +0.000 N 
ATOM     16  H   UNL     1       6.205   3.631  15.018  0.00  0.00    +0.000 HD
BRANCH  13  18
ATOM     17  C   UNL     1       5.981   3.113  12.717  0.00  0.00    +0.000 C 
ATOM     18  C   UNL     1       6.544   4.325  12.624  0.00  0.00    +0.000 C 
ENDBRANCH  13  18
ENDBRANCH  12  15
ENDBRANCH   7  12
ENDBRANCH   1   9
BRANCH   6  19
ATOM     19  N   UNL     1       3.089   6.098  19.910  0.00  0.00    +0.000 N 
ATOM     20  H   UNL     1       4.043   6.275  20.205  0.00  0.00    +0.000 HD
BRANCH  19  21
ATOM     21  C   UNL     1       2.308   7.239  19.666  0.00  0.00    +0.000 A 
ATOM     22  C   UNL     1       2.204   7.796  18.391  0.00  0.00    +0.000 A 
ATOM     23  C   UNL     1       1.543   9.011  18.188  0.00  0.00    +0.000 A 
ATOM     24  C   UNL     1       0.918   9.683  19.244  0.00  0.00    +0.000 A 
ATOM     25  C   UNL     1       0.929   9.085  20.508  0.00  0.00    +0.000 A 
ATOM     26 CL   UNL     1       0.227   9.782  21.927  0.00  0.00    +0.000 Cl
ATOM     27  C   UNL     1       1.611   7.864  20.706  0.00  0.00    +0.000 A 
BRANCH  24  28
ATOM     28  O   UNL     1       0.443  10.906  18.853  0.00  0.00    +0.000 OA
BRANCH  28  29
ATOM     29  C   UNL     1      -0.831  11.339  19.315  0.00  0.00    +0.000 C 
BRANCH  29  30
ATOM     30  C   UNL     1      -1.884  11.031  18.267  0.00  0.00    +0.000 A 
ATOM     31  C   UNL     1      -1.632  10.124  17.242  0.00  0.00    +0.000 A 
ATOM     32  C   UNL     1      -2.613   9.897  16.272  0.00  0.00    +0.000 A 
ATOM     33  C   UNL     1      -3.820  10.584  16.362  0.00  0.00    +0.000 A 
ATOM     34  C   UNL     1      -3.995  11.464  17.411  0.00  0.00    +0.000 A 
ATOM     35  N   UNL     1      -3.067  11.702  18.346  0.00  0.00    +0.000 NA
ENDBRANCH  29  30
ENDBRANCH  28  29
ENDBRANCH  24  28
ENDBRANCH  19  21
ENDBRANCH   6  19
TORSDOF 9
ENDMDL
MODEL 2
REMARK VINA RESULT:      -9.3      1.140      1.378
REMARK  Name = 
REMARK  9 active torsions:
REMARK  status: ('A' for Active; 'I' for Inactive)
REMARK    1  A    between atoms: C_2  and  C_3
REMARK    2  A    between atoms: N_5  and  C_6
REMARK    3  A    between atoms: C_6  and  C_7
REMARK    4  A    between atoms: C_9  and  C_10
REMARK    5  A    between atoms: C_15  and  N_16
REMARK    6  A    between atoms: N_16  and  C_17
REMARK    7  A    between atoms: C_20  and  O_21
REMARK    8  A    between atoms: O_21  and  C_22
REMARK    9  A    between atoms: C_22  and  C_23
REMARK                            x       y       z     vdW  Elec       q    Type
REMARK                         _______ _______ _______ _____ _____    ______ ____
ROOT
ATOM      1  C   UNL     1       3.134   4.143  19.060  0.00  0.00    +0.000 A 
ATOM      2  C   UNL     1       2.654   2.844  19.221  0.00  0.00    +0.000 A 
ATOM      3  N   UNL     1       1.724   2.472  20.128  0.00  0.00    +0.000 NA
ATOM      4  C   UNL     1       1.259   3.460  20.896  0.00  0.00    +0.000 A 
ATOM      5  N   UNL     1       1.635   4.740  20.837  0.00  0.00    +0.000 NA
ATOM      6  C   UNL     1       2.577   5.084  19.925  0.00  0.00    +0.000 A 
ENDROOT
BRANCH   1   9
ATOM      7  C   UNL     1       5.635   4.602  16.437  0.00  0.00    +0.000 A 
ATOM      8  C   UNL     1       5.228   3.800  17.528  0.00  0.00    +0.000 A 
ATOM      9  C   UNL     1       4.113   4.426  18.026  0.00  0.00    +0.000 A 
ATOM     10  O   UNL     1       3.915   5.580  17.319  0.00  0.00    +0.000 OA
ATOM     11  N   UNL     1       4.865   5.690  16.320  0.00  0.00    +0.000 NA
BRANCH   7  12
ATOM     12  C   UNL     1       6.714   4.318  15.455  0.00  0.00    +0.000 C 
BRANCH  12  15
ATOM     13  C   UNL     1       6.502   3.916  13.040  0.00  0.00    +0.000 C 
ATOM     14  O   UNL     1       7.287   4.806  12.740  0.00  0.00    +0.000 OA
ATOM     15  N   UNL     1       6.139   3.613  14.327  0.00  0.00    +0.000 N 
ATOM     16  H   UNL     1       5.648   2.752  14.526  0.00  0.00    +0.000 HD
BRANCH  13  18
ATOM     17  C   UNL     1       4.600   3.252  11.641  0.00  0.00    +0.000 C 
ATOM     18  C   UNL     1       5.862   3.031  12.035  0.00  0.00    +0.000 C 
ENDBRANCH  13  18
ENDBRANCH  12  15
ENDBRANCH   7  12
ENDBRANCH   1   9
BRANCH   6  19
ATOM     19  N   UNL     1       2.927   6.448  19.853  0.00  0.00    +0.000 N 
ATOM     20  H   UNL     1       3.899   6.660  20.051  0.00  0.00    +0.000 HD
BRANCH  19  21
ATOM     21  C   UNL     1       2.100   7.561  19.626  0.00  0.00    +0.000 A 
ATOM     22  C   UNL     1       1.906   8.079  18.344  0.00  0.00    +0.000 A 
ATOM     23  C   UNL     1       1.199   9.269  18.149  0.00  0.00    +0.000 A 
ATOM     24  C   UNL     1       0.616   9.952  19.221  0.00  0.00    +0.000 A 
ATOM     25  C   UNL     1       0.717   9.389  20.498  0.00  0.00    +0.000 A 
ATOM     26 CL   UNL     1       0.077  10.106  21.936  0.00  0.00    +0.000 Cl
ATOM     27  C   UNL     1       1.445   8.194  20.688  0.00  0.00    +0.000 A 
BRANCH  24  28
ATOM     28  O   UNL     1       0.084  11.150  18.827  0.00  0.00    +0.000 OA
BRANCH  28  29
ATOM     29  C   UNL     1      -1.202  11.531  19.301  0.00  0.00    +0.000 C 
BRANCH  29  30
ATOM     30  C   UNL     1      -2.221  11.378  18.188  0.00  0.00    +0.000 A 
ATOM     31  C   UNL     1      -3.564  11.674  18.402  0.00  0.00    +0.000 A 
ATOM     32  C   UNL     1      -4.481  11.482  17.363  0.00  0.00    +0.000 A 
ATOM     33  C   UNL     1      -4.021  11.005  16.139  0.00  0.00    +0.000 A 
ATOM     34  C   UNL     1      -2.672  10.741  16.005  0.00  0.00    +0.000 A 
ATOM     35  N   UNL     1      -1.779  10.910  16.989  0.00  0.00    +0.000 NA
ENDBRANCH  29  30
ENDBRANCH  28  29
ENDBRANCH  24  28
ENDBRANCH  19  21
ENDBRANCH   6  19
TORSDOF 9
ENDMDL
MODEL 3
REMARK VINA RESULT:      -9.2      1.746      2.615
REMARK  Name = 
REMARK  9 active torsions:
REMARK  status: ('A' for Active; 'I' for Inactive)
REMARK    1  A    between atoms: C_2  and  C_3
REMARK    2  A    between atoms: N_5  and  C_6
REMARK    3  A    between atoms: C_6  and  C_7
REMARK    4  A    between atoms: C_9  and  C_10
REMARK    5  A    between atoms: C_15  and  N_16
REMARK    6  A    between atoms: N_16  and  C_17
REMARK    7  A    between atoms: C_20  and  O_21
REMARK    8  A    between atoms: O_21  and  C_22
REMARK    9  A    between atoms: C_22  and  C_23
REMARK                            x       y       z     vdW  Elec       q    Type
REMARK                         _______ _______ _______ _____ _____    ______ ____
ROOT
ATOM      1  C   UNL     1       3.225   4.123  19.327  0.00  0.00    +0.000 A 
ATOM      2  C   UNL     1       2.694   2.834  19.321  0.00  0.00    +0.000 A 
ATOM      3  N   UNL     1       1.519   2.481  19.885  0.00  0.00    +0.000 NA
ATOM      4  C   UNL     1       0.855   3.479  20.474  0.00  0.00    +0.000 A 
ATOM      5  N   UNL     1       1.256   4.750  20.546  0.00  0.00    +0.000 NA
ATOM      6  C   UNL     1       2.443   5.075  19.979  0.00  0.00    +0.000 A 
ENDROOT
BRANCH   1   9
ATOM      7  C   UNL     1       6.284   4.980  17.522  0.00  0.00    +0.000 A 
ATOM      8  C   UNL     1       4.871   4.979  17.480  0.00  0.00    +0.000 A 
ATOM      9  C   UNL     1       4.486   4.386  18.656  0.00  0.00    +0.000 A 
ATOM     10  O   UNL     1       5.610   3.984  19.324  0.00  0.00    +0.000 OA
ATOM     11  N   UNL     1       6.738   4.359  18.618  0.00  0.00    +0.000 NA
BRANCH   7  12
ATOM     12  C   UNL     1       7.220   5.622  16.563  0.00  0.00    +0.000 C 
BRANCH  12  15
ATOM     13  C   UNL     1       7.809   7.645  17.828  0.00  0.00    +0.000 C 
ATOM     14  O   UNL     1       8.411   7.026  18.695  0.00  0.00    +0.000 OA
ATOM     15  N   UNL     1       7.177   7.057  16.764  0.00  0.00    +0.000 N 
ATOM     16  H   UNL     1       6.869   7.620  15.983  0.00  0.00    +0.000 HD
BRANCH  13  18
ATOM     17  C   UNL     1       8.719   9.878  18.279  0.00  0.00    +0.000 C 
ATOM     18  C   UNL     1       7.712   9.126  17.813  0.00  0.00    +0.000 C 
ENDBRANCH  13  18
ENDBRANCH  12  15
ENDBRANCH   7  12
ENDBRANCH   1   9
BRANCH   6  19
ATOM     19  N   UNL     1       2.825   6.432  20.030  0.00  0.00    +0.000 N 
ATOM     20  H   UNL     1       3.746   6.611  20.413  0.00  0.00    +0.000 HD
BRANCH  19  21
ATOM     21  C   UNL     1       2.074   7.573  19.700  0.00  0.00    +0.000 A 
ATOM     22  C   UNL     1       1.971   8.025  18.384  0.00  0.00    +0.000 A 
ATOM     23  C   UNL     1       1.343   9.239  18.088  0.00  0.00    +0.000 A 
ATOM     24  C   UNL     1       0.750  10.014  19.090  0.00  0.00    +0.000 A 
ATOM     25  C   UNL     1       0.759   9.522  20.399  0.00  0.00    +0.000 A 
ATOM     26 CL   UNL     1       0.094  10.355  21.762  0.00  0.00    +0.000 Cl
ATOM     27  C   UNL     1       1.407   8.301  20.691  0.00  0.00    +0.000 A 
BRANCH  24  28
ATOM     28  O   UNL     1       0.307  11.214  18.604  0.00  0.00    +0.000 OA
BRANCH  28  29
ATOM     29  C   UNL     1      -0.879  11.788  19.141  0.00  0.00    +0.000 C 
BRANCH  29  30
ATOM     30  C   UNL     1      -2.038  11.545  18.192  0.00  0.00    +0.000 A 
ATOM     31  C   UNL     1      -3.355  11.652  18.629  0.00  0.00    +0.000 A 
ATOM     32  C   UNL     1      -4.396  11.382  17.735  0.00  0.00    +0.000 A 
ATOM     33  C   UNL     1      -4.084  11.017  16.428  0.00  0.00    +0.000 A 
ATOM     34  C   UNL     1      -2.753  10.939  16.071  0.00  0.00    +0.000 A 
ATOM     35  N   UNL     1      -1.740  11.186  16.913  0.00  0.00    +0.000 NA
ENDBRANCH  29  30
ENDBRANCH  28  29
ENDBRANCH  24  28
ENDBRANCH  19  21
ENDBRANCH   6  19
TORSDOF 9
ENDMDL
MODEL 4
REMARK VINA RESULT:      -9.2      2.637      3.547
REMARK  Name = 
REMARK  9 active torsions:
REMARK  status: ('A' for Active; 'I' for Inactive)
REMARK    1  A    between atoms: C_2  and  C_3
REMARK    2  A    between atoms: N_5  and  C_6
REMARK    3  A    between atoms: C_6  and  C_7
REMARK    4  A    between atoms: C_9  and  C_10
REMARK    5  A    between atoms: C_15  and  N_16
REMARK    6  A    between atoms: N_16  and  C_17
REMARK    7  A    between atoms: C_20  and  O_21
REMARK    8  A    between atoms: O_21  and  C_22
REMARK    9  A    between atoms: C_22  and  C_23
REMARK                            x       y       z     vdW  Elec       q    Type
REMARK                         _______ _______ _______ _____ _____    ______ ____
ROOT
ATOM      1  C   UNL     1       3.128   3.841  19.112  0.00  0.00    +0.000 A 
ATOM      2  C   UNL     1       2.554   2.590  18.892  0.00  0.00    +0.000 A 
ATOM      3  N   UNL     1       1.345   2.204  19.355  0.00  0.00    +0.000 NA
ATOM      4  C   UNL     1       0.692   3.127  20.063  0.00  0.00    +0.000 A 
ATOM      5  N   UNL     1       1.133   4.357  20.341  0.00  0.00    +0.000 NA
ATOM      6  C   UNL     1       2.352   4.715  19.872  0.00  0.00    +0.000 A 
ENDROOT
BRANCH   1   9
ATOM      7  C   UNL     1       6.271   4.797  17.513  0.00  0.00    +0.000 A 
ATOM      8  C   UNL     1       4.873   4.679  17.348  0.00  0.00    +0.000 A 
ATOM      9  C   UNL     1       4.423   4.150  18.533  0.00  0.00    +0.000 A 
ATOM     10  O   UNL     1       5.507   3.893  19.327  0.00  0.00    +0.000 OA
ATOM     11  N   UNL     1       6.665   4.301  18.692  0.00  0.00    +0.000 NA
BRANCH   7  12
ATOM     12  C   UNL     1       7.243   5.435  16.587  0.00  0.00    +0.000 C 
BRANCH  12  15
ATOM     13  C   UNL     1       7.786   7.488  17.825  0.00  0.00    +0.000 C 
ATOM     14  O   UNL     1       8.389   6.894  18.708  0.00  0.00    +0.000 OA
ATOM     15  N   UNL     1       7.175   6.872  16.764  0.00  0.00    +0.000 N 
ATOM     16  H   UNL     1       6.866   7.417  15.970  0.00  0.00    +0.000 HD
BRANCH  13  18
ATOM     17  C   UNL     1       8.628   9.742  18.302  0.00  0.00    +0.000 C 
ATOM     18  C   UNL     1       7.666   8.967  17.783  0.00  0.00    +0.000 C 
ENDBRANCH  13  18
ENDBRANCH  12  15
ENDBRANCH   7  12
ENDBRANCH   1   9
BRANCH   6  19
ATOM     19  N   UNL     1       2.778   6.033  20.140  0.00  0.00    +0.000 N 
ATOM     20  H   UNL     1       3.537   6.118  20.807  0.00  0.00    +0.000 HD
BRANCH  19  21
ATOM     21  C   UNL     1       2.242   7.245  19.675  0.00  0.00    +0.000 A 
ATOM     22  C   UNL     1       2.412   7.660  18.353  0.00  0.00    +0.000 A 
ATOM     23  C   UNL     1       2.000   8.931  17.941  0.00  0.00    +0.000 A 
ATOM     24  C   UNL     1       1.356   9.808  18.820  0.00  0.00    +0.000 A 
ATOM     25  C   UNL     1       1.090   9.364  20.120  0.00  0.00    +0.000 A 
ATOM     26 CL   UNL     1       0.325  10.320  21.342  0.00  0.00    +0.000 Cl
ATOM     27  C   UNL     1       1.522   8.084  20.532  0.00  0.00    +0.000 A 
BRANCH  24  28
ATOM     28  O   UNL     1       1.153  11.036  18.251  0.00  0.00    +0.000 OA
BRANCH  28  29
ATOM     29  C   UNL     1       2.132  12.054  18.422  0.00  0.00    +0.000 C 
BRANCH  29  30
ATOM     30  C   UNL     1       1.446  13.379  18.695  0.00  0.00    +0.000 A 
ATOM     31  C   UNL     1       0.120  13.427  19.114  0.00  0.00    +0.000 A 
ATOM     32  C   UNL     1      -0.489  14.669  19.316  0.00  0.00    +0.000 A 
ATOM     33  C   UNL     1       0.253  15.827  19.097  0.00  0.00    +0.000 A 
ATOM     34  C   UNL     1       1.564  15.695  18.688  0.00  0.00    +0.000 A 
ATOM     35  N   UNL     1       2.165  14.516  18.481  0.00  0.00    +0.000 NA
ENDBRANCH  29  30
ENDBRANCH  28  29
ENDBRANCH  24  28
ENDBRANCH  19  21
ENDBRANCH   6  19
TORSDOF 9
ENDMDL
MODEL 5
REMARK VINA RESULT:      -9.1      1.463      2.200
REMARK  Name = 
REMARK  9 active torsions:
REMARK  status: ('A' for Active; 'I' for Inactive)
REMARK    1  A    between atoms: C_2  and  C_3
REMARK    2  A    between atoms: N_5  and  C_6
REMARK    3  A    between atoms: C_6  and  C_7
REMARK    4  A    between atoms: C_9  and  C_10
REMARK    5  A    between atoms: C_15  and  N_16
REMARK    6  A    between atoms: N_16  and  C_17
REMARK    7  A    between atoms: C_20  and  O_21
REMARK    8  A    between atoms: O_21  and  C_22
REMARK    9  A    between atoms: C_22  and  C_23
REMARK                            x       y       z     vdW  Elec       q    Type
REMARK                         _______ _______ _______ _____ _____    ______ ____
ROOT
ATOM      1  C   UNL     1       3.343   3.737  19.392  0.00  0.00    +0.000 A 
ATOM      2  C   UNL     1       2.787   2.460  19.452  0.00  0.00    +0.000 A 
ATOM      3  N   UNL     1       1.667   2.137  20.134  0.00  0.00    +0.000 NA
ATOM      4  C   UNL     1       1.084   3.154  20.773  0.00  0.00    +0.000 A 
ATOM      5  N   UNL     1       1.516   4.417  20.791  0.00  0.00    +0.000 NA
ATOM      6  C   UNL     1       2.648   4.712  20.107  0.00  0.00    +0.000 A 
ENDROOT
BRANCH   1   9
ATOM      7  C   UNL     1       6.193   4.375  17.197  0.00  0.00    +0.000 A 
ATOM      8  C   UNL     1       4.852   3.933  17.262  0.00  0.00    +0.000 A 
ATOM      9  C   UNL     1       4.536   3.966  18.597  0.00  0.00    +0.000 A 
ATOM     10  O   UNL     1       5.655   4.331  19.295  0.00  0.00    +0.000 OA
ATOM     11  N   UNL     1       6.693   4.592  18.420  0.00  0.00    +0.000 NA
BRANCH   7  12
ATOM     12  C   UNL     1       6.997   4.659  15.980  0.00  0.00    +0.000 C 
BRANCH  12  15
ATOM     13  C   UNL     1       6.699   4.248  13.575  0.00  0.00    +0.000 C 
ATOM     14  O   UNL     1       7.347   5.231  13.243  0.00  0.00    +0.000 OA
ATOM     15  N   UNL     1       6.451   3.894  14.876  0.00  0.00    +0.000 N 
ATOM     16  H   UNL     1       6.084   2.977  15.091  0.00  0.00    +0.000 HD
BRANCH  13  18
ATOM     17  C   UNL     1       4.988   3.599  11.941  0.00  0.00    +0.000 C 
ATOM     18  C   UNL     1       6.117   3.295  12.596  0.00  0.00    +0.000 C 
ENDBRANCH  13  18
ENDBRANCH  12  15
ENDBRANCH   7  12
ENDBRANCH   1   9
BRANCH   6  19
ATOM     19  N   UNL     1       3.060   6.060  20.104  0.00  0.00    +0.000 N 
ATOM     20  H   UNL     1       3.975   6.237  20.502  0.00  0.00    +0.000 HD
BRANCH  19  21
ATOM     21  C   UNL     1       2.345   7.200  19.701  0.00  0.00    +0.000 A 
ATOM     22  C   UNL     1       2.358   7.643  18.378  0.00  0.00    +0.000 A 
ATOM     23  C   UNL     1       1.763   8.857  18.019  0.00  0.00    +0.000 A 
ATOM     24  C   UNL     1       1.088   9.641  18.960  0.00  0.00    +0.000 A 
ATOM     25  C   UNL     1       0.981   9.158  20.269  0.00  0.00    +0.000 A 
ATOM     26 CL   UNL     1       0.202  10.003  21.562  0.00  0.00    +0.000 Cl
ATOM     27  C   UNL     1       1.597   7.938  20.625  0.00  0.00    +0.000 A 
BRANCH  24  28
ATOM     28  O   UNL     1       0.692  10.838  18.429  0.00  0.00    +0.000 OA
BRANCH  28  29
ATOM     29  C   UNL     1      -0.578  11.372  18.782  0.00  0.00    +0.000 C 
BRANCH  29  30
ATOM     30  C   UNL     1      -0.441  12.848  19.101  0.00  0.00    +0.000 A 
ATOM     31  C   UNL     1       0.663  13.575  18.666  0.00  0.00    +0.000 A 
ATOM     32  C   UNL     1       0.774  14.925  19.015  0.00  0.00    +0.000 A 
ATOM     33  C   UNL     1      -0.229  15.506  19.786  0.00  0.00    +0.000 A 
ATOM     34  C   UNL     1      -1.294  14.719  20.173  0.00  0.00    +0.000 A 
ATOM     35  N   UNL     1      -1.417  13.423  19.857  0.00  0.00    +0.000 NA
ENDBRANCH  29  30
ENDBRANCH  28  29
ENDBRANCH  24  28
ENDBRANCH  19  21
ENDBRANCH   6  19
TORSDOF 9
ENDMDL
MODEL 6
REMARK VINA RESULT:      -9.0      1.818      2.716
REMARK  Name = 
REMARK  9 active torsions:
REMARK  status: ('A' for Active; 'I' for Inactive)
REMARK    1  A    between atoms: C_2  and  C_3
REMARK    2  A    between atoms: N_5  and  C_6
REMARK    3  A    between atoms: C_6  and  C_7
REMARK    4  A    between atoms: C_9  and  C_10
REMARK    5  A    between atoms: C_15  and  N_16
REMARK    6  A    between atoms: N_16  and  C_17
REMARK    7  A    between atoms: C_20  and  O_21
REMARK    8  A    between atoms: O_21  and  C_22
REMARK    9  A    between atoms: C_22  and  C_23
REMARK                            x       y       z     vdW  Elec       q    Type
REMARK                         _______ _______ _______ _____ _____    ______ ____
ROOT
ATOM      1  C   UNL     1       3.259   3.903  19.086  0.00  0.00    +0.000 A 
ATOM      2  C   UNL     1       2.700   2.628  19.160  0.00  0.00    +0.000 A 
ATOM      3  N   UNL     1       1.566   2.320  19.824  0.00  0.00    +0.000 NA
ATOM      4  C   UNL     1       0.971   3.349  20.432  0.00  0.00    +0.000 A 
ATOM      5  N   UNL     1       1.405   4.613  20.434  0.00  0.00    +0.000 NA
ATOM      6  C   UNL     1       2.551   4.892  19.768  0.00  0.00    +0.000 A 
ENDROOT
BRANCH   1   9
ATOM      7  C   UNL     1       6.165   4.579  16.977  0.00  0.00    +0.000 A 
ATOM      8  C   UNL     1       4.763   4.398  17.001  0.00  0.00    +0.000 A 
ATOM      9  C   UNL     1       4.469   4.115  18.312  0.00  0.00    +0.000 A 
ATOM     10  O   UNL     1       5.642   4.052  19.012  0.00  0.00    +0.000 OA
ATOM     11  N   UNL     1       6.706   4.347  18.179  0.00  0.00    +0.000 NA
BRANCH   7  12
ATOM     12  C   UNL     1       7.001   5.033  15.836  0.00  0.00    +0.000 C 
BRANCH  12  15
ATOM     13  C   UNL     1       7.108   4.620  13.415  0.00  0.00    +0.000 C 
ATOM     14  O   UNL     1       7.888   5.541  13.209  0.00  0.00    +0.000 OA
ATOM     15  N   UNL     1       6.600   4.305  14.649  0.00  0.00    +0.000 N 
ATOM     16  H   UNL     1       6.122   3.425  14.790  0.00  0.00    +0.000 HD
BRANCH  13  18
ATOM     17  C   UNL     1       5.351   3.323  12.299  0.00  0.00    +0.000 C 
ATOM     18  C   UNL     1       6.633   3.710  12.343  0.00  0.00    +0.000 C 
ENDBRANCH  13  18
ENDBRANCH  12  15
ENDBRANCH   7  12
ENDBRANCH   1   9
BRANCH   6  19
ATOM     19  N   UNL     1       2.966   6.240  19.747  0.00  0.00    +0.000 N 
ATOM     20  H   UNL     1       3.969   6.388  19.765  0.00  0.00    +0.000 HD
BRANCH  19  21
ATOM     21  C   UNL     1       2.182   7.405  19.789  0.00  0.00    +0.000 A 
ATOM     22  C   UNL     1       1.986   8.196  18.656  0.00  0.00    +0.000 A 
ATOM     23  C   UNL     1       1.326   9.426  18.743  0.00  0.00    +0.000 A 
ATOM     24  C   UNL     1       0.792   9.880  19.954  0.00  0.00    +0.000 A 
ATOM     25  C   UNL     1       0.894   9.049  21.075  0.00  0.00    +0.000 A 
ATOM     26 CL   UNL     1       0.311   9.459  22.651  0.00  0.00    +0.000 Cl
ATOM     27  C   UNL     1       1.574   7.815  20.981  0.00  0.00    +0.000 A 
BRANCH  24  28
ATOM     28  O   UNL     1       0.304  11.154  19.844  0.00  0.00    +0.000 OA
BRANCH  28  29
ATOM     29  C   UNL     1      -1.070  11.399  20.117  0.00  0.00    +0.000 C 
BRANCH  29  30
ATOM     30  C   UNL     1      -1.197  12.298  21.332  0.00  0.00    +0.000 A 
ATOM     31  C   UNL     1      -2.264  12.163  22.214  0.00  0.00    +0.000 A 
ATOM     32  C   UNL     1      -2.368  13.037  23.301  0.00  0.00    +0.000 A 
ATOM     33  C   UNL     1      -1.394  14.017  23.473  0.00  0.00    +0.000 A 
ATOM     34  C   UNL     1      -0.363  14.081  22.557  0.00  0.00    +0.000 A 
ATOM     35  N   UNL     1      -0.249  13.260  21.506  0.00  0.00    +0.000 NA
ENDBRANCH  29  30
ENDBRANCH  28  29
ENDBRANCH  24  28
ENDBRANCH  19  21
ENDBRANCH   6  19
TORSDOF 9
ENDMDL
MODEL 7
REMARK VINA RESULT:      -9.0      0.802      1.075
REMARK  Name = 
REMARK  9 active torsions:
REMARK  status: ('A' for Active; 'I' for Inactive)
REMARK    1  A    between atoms: C_2  and  C_3
REMARK    2  A    between atoms: N_5  and  C_6
REMARK    3  A    between atoms: C_6  and  C_7
REMARK    4  A    between atoms: C_9  and  C_10
REMARK    5  A    between atoms: C_15  and  N_16
REMARK    6  A    between atoms: N_16  and  C_17
REMARK    7  A    between atoms: C_20  and  O_21
REMARK    8  A    between atoms: O_21  and  C_22
REMARK    9  A    between atoms: C_22  and  C_23
REMARK                            x       y       z     vdW  Elec       q    Type
REMARK                         _______ _______ _______ _____ _____    ______ ____
ROOT
ATOM      1  C   UNL     1       3.249   4.018  19.590  0.00  0.00    +0.000 A 
ATOM      2  C   UNL     1       2.730   2.728  19.485  0.00  0.00    +0.000 A 
ATOM      3  N   UNL     1       1.525   2.340  19.956  0.00  0.00    +0.000 NA
ATOM      4  C   UNL     1       0.817   3.302  20.551  0.00  0.00    +0.000 A 
ATOM      5  N   UNL     1       1.202   4.571  20.713  0.00  0.00    +0.000 NA
ATOM      6  C   UNL     1       2.419   4.931  20.240  0.00  0.00    +0.000 A 
ENDROOT
BRANCH   1   9
ATOM      7  C   UNL     1       6.414   4.732  17.911  0.00  0.00    +0.000 A 
ATOM      8  C   UNL     1       5.226   3.967  17.875  0.00  0.00    +0.000 A 
ATOM      9  C   UNL     1       4.547   4.321  19.014  0.00  0.00    +0.000 A 
ATOM     10  O   UNL     1       5.327   5.189  19.728  0.00  0.00    +0.000 OA
ATOM     11  N   UNL     1       6.495   5.452  19.036  0.00  0.00    +0.000 NA
BRANCH   7  12
ATOM     12  C   UNL     1       7.455   4.841  16.855  0.00  0.00    +0.000 C 
BRANCH  12  15
ATOM     13  C   UNL     1       6.499   4.666  14.598  0.00  0.00    +0.000 C 
ATOM     14  O   UNL     1       6.301   5.870  14.499  0.00  0.00    +0.000 OA
ATOM     15  N   UNL     1       7.033   4.064  15.707  0.00  0.00    +0.000 N 
ATOM     16  H   UNL     1       7.354   3.106  15.659  0.00  0.00    +0.000 HD
BRANCH  13  18
ATOM     17  C   UNL     1       6.686   3.913  12.271  0.00  0.00    +0.000 C 
ATOM     18  C   UNL     1       6.204   3.707  13.504  0.00  0.00    +0.000 C 
ENDBRANCH  13  18
ENDBRANCH  12  15
ENDBRANCH   7  12
ENDBRANCH   1   9
BRANCH   6  19
ATOM     19  N   UNL     1       2.786   6.285  20.383  0.00  0.00    +0.000 N 
ATOM     20  H   UNL     1       3.651   6.451  20.886  0.00  0.00    +0.000 HD
BRANCH  19  21
ATOM     21  C   UNL     1       2.078   7.436  19.999  0.00  0.00    +0.000 A 
ATOM     22  C   UNL     1       2.108   7.909  18.687  0.00  0.00    +0.000 A 
ATOM     23  C   UNL     1       1.519   9.132  18.350  0.00  0.00    +0.000 A 
ATOM     24  C   UNL     1       0.835   9.896  19.301  0.00  0.00    +0.000 A 
ATOM     25  C   UNL     1       0.711   9.383  20.597  0.00  0.00    +0.000 A 
ATOM     26 CL   UNL     1      -0.080  10.200  21.900  0.00  0.00    +0.000 Cl
ATOM     27  C   UNL     1       1.321   8.154  20.932  0.00  0.00    +0.000 A 
BRANCH  24  28
ATOM     28  O   UNL     1       0.448  11.106  18.793  0.00  0.00    +0.000 OA
BRANCH  28  29
ATOM     29  C   UNL     1      -0.757  11.703  19.256  0.00  0.00    +0.000 C 
BRANCH  29  30
ATOM     30  C   UNL     1      -1.892  11.362  18.309  0.00  0.00    +0.000 A 
ATOM     31  C   UNL     1      -3.206  11.707  18.611  0.00  0.00    +0.000 A 
ATOM     32  C   UNL     1      -4.229  11.340  17.732  0.00  0.00    +0.000 A 
ATOM     33  C   UNL     1      -3.903  10.641  16.573  0.00  0.00    +0.000 A 
ATOM     34  C   UNL     1      -2.576  10.341  16.342  0.00  0.00    +0.000 A 
ATOM     35  N   UNL     1      -1.581  10.677  17.174  0.00  0.00    +0.000 NA
ENDBRANCH  29  30
ENDBRANCH  28  29
ENDBRANCH  24  28
ENDBRANCH  19  21
ENDBRANCH   6  19
TORSDOF 9
ENDMDL
MODEL 8
REMARK VINA RESULT:      -9.0      1.227      1.767
REMARK  Name = 
REMARK  9 active torsions:
REMARK  status: ('A' for Active; 'I' for Inactive)
REMARK    1  A    between atoms: C_2  and  C_3
REMARK    2  A    between atoms: N_5  and  C_6
REMARK    3  A    between atoms: C_6  and  C_7
REMARK    4  A    between atoms: C_9  and  C_10
REMARK    5  A    between atoms: C_15  and  N_16
REMARK    6  A    between atoms: N_16  and  C_17
REMARK    7  A    between atoms: C_20  and  O_21
REMARK    8  A    between atoms: O_21  and  C_22
REMARK    9  A    between atoms: C_22  and  C_23
REMARK                            x       y       z     vdW  Elec       q    Type
REMARK                         _______ _______ _______ _____ _____    ______ ____
ROOT
ATOM      1  C   UNL     1       3.261   3.887  19.015  0.00  0.00    +0.000 A 
ATOM      2  C   UNL     1       2.740   2.595  19.062  0.00  0.00    +0.000 A 
ATOM      3  N   UNL     1       1.719   2.203  19.855  0.00  0.00    +0.000 NA
ATOM      4  C   UNL     1       1.203   3.164  20.625  0.00  0.00    +0.000 A 
ATOM      5  N   UNL     1       1.611   4.435  20.669  0.00  0.00    +0.000 NA
ATOM      6  C   UNL     1       2.643   4.798  19.871  0.00  0.00    +0.000 A 
ENDROOT
BRANCH   1   9
ATOM      7  C   UNL     1       5.816   4.617  16.508  0.00  0.00    +0.000 A 
ATOM      8  C   UNL     1       4.659   3.860  16.802  0.00  0.00    +0.000 A 
ATOM      9  C   UNL     1       4.341   4.194  18.095  0.00  0.00    +0.000 A 
ATOM     10  O   UNL     1       5.304   5.041  18.570  0.00  0.00    +0.000 OA
ATOM     11  N   UNL     1       6.227   5.312  17.576  0.00  0.00    +0.000 NA
BRANCH   7  12
ATOM     12  C   UNL     1       6.510   4.742  15.200  0.00  0.00    +0.000 C 
BRANCH  12  15
ATOM     13  C   UNL     1       6.201   3.890  12.916  0.00  0.00    +0.000 C 
ATOM     14  O   UNL     1       7.260   4.352  12.512  0.00  0.00    +0.000 OA
ATOM     15  N   UNL     1       5.735   4.042  14.196  0.00  0.00    +0.000 N 
ATOM     16  H   UNL     1       4.961   3.480  14.524  0.00  0.00    +0.000 HD
BRANCH  13  18
ATOM     17  C   UNL     1       5.749   1.976  11.450  0.00  0.00    +0.000 C 
ATOM     18  C   UNL     1       5.297   3.079  12.063  0.00  0.00    +0.000 C 
ENDBRANCH  13  18
ENDBRANCH  12  15
ENDBRANCH   7  12
ENDBRANCH   1   9
BRANCH   6  19
ATOM     19  N   UNL     1       3.028   6.155  19.902  0.00  0.00    +0.000 N 
ATOM     20  H   UNL     1       3.976   6.331  20.216  0.00  0.00    +0.000 HD
BRANCH  19  21
ATOM     21  C   UNL     1       2.255   7.297  19.640  0.00  0.00    +0.000 A 
ATOM     22  C   UNL     1       2.196   7.863  18.365  0.00  0.00    +0.000 A 
ATOM     23  C   UNL     1       1.541   9.080  18.148  0.00  0.00    +0.000 A 
ATOM     24  C   UNL     1       0.878   9.743  19.186  0.00  0.00    +0.000 A 
ATOM     25  C   UNL     1       0.845   9.135  20.445  0.00  0.00    +0.000 A 
ATOM     26 CL   UNL     1       0.091   9.822  21.843  0.00  0.00    +0.000 Cl
ATOM     27  C   UNL     1       1.520   7.914  20.659  0.00  0.00    +0.000 A 
BRANCH  24  28
ATOM     28  O   UNL     1       0.416  10.969  18.788  0.00  0.00    +0.000 OA
BRANCH  28  29
ATOM     29  C   UNL     1      -0.846  11.061  18.138  0.00  0.00    +0.000 C 
BRANCH  29  30
ATOM     30  C   UNL     1      -1.819  11.820  19.020  0.00  0.00    +0.000 A 
ATOM     31  C   UNL     1      -1.367  12.592  20.086  0.00  0.00    +0.000 A 
ATOM     32  C   UNL     1      -2.298  13.245  20.901  0.00  0.00    +0.000 A 
ATOM     33  C   UNL     1      -3.654  13.107  20.618  0.00  0.00    +0.000 A 
ATOM     34  C   UNL     1      -4.021  12.327  19.540  0.00  0.00    +0.000 A 
ATOM     35  N   UNL     1      -3.147  11.688  18.752  0.00  0.00    +0.000 NA
ENDBRANCH  29  30
ENDBRANCH  28  29
ENDBRANCH  24  28
ENDBRANCH  19  21
ENDBRANCH   6  19
TORSDOF 9
ENDMDL
MODEL 9
REMARK VINA RESULT:      -8.9      2.326      3.037
REMARK  Name = 
REMARK  9 active torsions:
REMARK  status: ('A' for Active; 'I' for Inactive)
REMARK    1  A    between atoms: C_2  and  C_3
REMARK    2  A    between atoms: N_5  and  C_6
REMARK    3  A    between atoms: C_6  and  C_7
REMARK    4  A    between atoms: C_9  and  C_10
REMARK    5  A    between atoms: C_15  and  N_16
REMARK    6  A    between atoms: N_16  and  C_17
REMARK    7  A    between atoms: C_20  and  O_21
REMARK    8  A    between atoms: O_21  and  C_22
REMARK    9  A    between atoms: C_22  and  C_23
REMARK                            x       y       z     vdW  Elec       q    Type
REMARK                         _______ _______ _______ _____ _____    ______ ____
ROOT
ATOM      1  C   UNL     1       3.220   3.742  19.352  0.00  0.00    +0.000 A 
ATOM      2  C   UNL     1       2.730   2.478  19.024  0.00  0.00    +0.000 A 
ATOM      3  N   UNL     1       1.509   2.012  19.363  0.00  0.00    +0.000 NA
ATOM      4  C   UNL     1       0.752   2.867  20.056  0.00  0.00    +0.000 A 
ATOM      5  N   UNL     1       1.105   4.100  20.428  0.00  0.00    +0.000 NA
ATOM      6  C   UNL     1       2.340   4.539  20.083  0.00  0.00    +0.000 A 
ENDROOT
BRANCH   1   9
ATOM      7  C   UNL     1       6.442   4.797  17.990  0.00  0.00    +0.000 A 
ATOM      8  C   UNL     1       5.195   4.200  17.696  0.00  0.00    +0.000 A 
ATOM      9  C   UNL     1       4.542   4.140  18.901  0.00  0.00    +0.000 A 
ATOM     10  O   UNL     1       5.386   4.604  19.872  0.00  0.00    +0.000 OA
ATOM     11  N   UNL     1       6.576   5.020  19.304  0.00  0.00    +0.000 NA
BRANCH   7  12
ATOM     12  C   UNL     1       7.494   5.222  17.030  0.00  0.00    +0.000 C 
BRANCH  12  15
ATOM     13  C   UNL     1       6.584   4.909  14.769  0.00  0.00    +0.000 C 
ATOM     14  O   UNL     1       5.950   5.956  14.791  0.00  0.00    +0.000 OA
ATOM     15  N   UNL     1       7.347   4.451  15.811  0.00  0.00    +0.000 N 
ATOM     16  H   UNL     1       7.998   3.692  15.668  0.00  0.00    +0.000 HD
BRANCH  13  18
ATOM     17  C   UNL     1       5.494   3.684  12.945  0.00  0.00    +0.000 C 
ATOM     18  C   UNL     1       6.624   4.014  13.585  0.00  0.00    +0.000 C 
ENDBRANCH  13  18
ENDBRANCH  12  15
ENDBRANCH   7  12
ENDBRANCH   1   9
BRANCH   6  19
ATOM     19  N   UNL     1       2.674   5.859  20.448  0.00  0.00    +0.000 N 
ATOM     20  H   UNL     1       3.326   5.946  21.220  0.00  0.00    +0.000 HD
BRANCH  19  21
ATOM     21  C   UNL     1       2.165   7.069  19.946  0.00  0.00    +0.000 A 
ATOM     22  C   UNL     1       2.422   7.484  18.639  0.00  0.00    +0.000 A 
ATOM     23  C   UNL     1       2.034   8.753  18.198  0.00  0.00    +0.000 A 
ATOM     24  C   UNL     1       1.329   9.627  19.031  0.00  0.00    +0.000 A 
ATOM     25  C   UNL     1       0.978   9.184  20.310  0.00  0.00    +0.000 A 
ATOM     26 CL   UNL     1       0.128  10.137  21.477  0.00  0.00    +0.000 Cl
ATOM     27  C   UNL     1       1.386   7.906  20.752  0.00  0.00    +0.000 A 
BRANCH  24  28
ATOM     28  O   UNL     1       1.160  10.854  18.448  0.00  0.00    +0.000 OA
BRANCH  28  29
ATOM     29  C   UNL     1       2.304  11.633  18.119  0.00  0.00    +0.000 C 
BRANCH  29  30
ATOM     30  C   UNL     1       2.239  12.964  18.843  0.00  0.00    +0.000 A 
ATOM     31  C   UNL     1       1.889  13.032  20.188  0.00  0.00    +0.000 A 
ATOM     32  C   UNL     1       1.801  14.281  20.811  0.00  0.00    +0.000 A 
ATOM     33  C   UNL     1       2.073  15.425  20.066  0.00  0.00    +0.000 A 
ATOM     34  C   UNL     1       2.419  15.274  18.738  0.00  0.00    +0.000 A 
ATOM     35  N   UNL     1       2.502  14.088  18.121  0.00  0.00    +0.000 NA
ENDBRANCH  29  30
ENDBRANCH  28  29
ENDBRANCH  24  28
ENDBRANCH  19  21
ENDBRANCH   6  19
TORSDOF 9
ENDMDL
