MODEL 1
REMARK VINA RESULT:      -6.7      0.000      0.000
REMARK  Name = 
REMARK  4 active torsions:
REMARK  status: ('A' for Active; 'I' for Inactive)
REMARK    1  A    between atoms: C_1  and  N_2
REMARK    2  A    between atoms: N_5  and  S_6
REMARK    3  A    between atoms: S_6  and  C_9
REMARK    4  A    between atoms: C_14  and  N_15
REMARK                            x       y       z     vdW  Elec       q    Type
REMARK                         _______ _______ _______ _____ _____    ______ ____
ROOT
ATOM      1  S   UNL     1       3.164   5.956  18.698  0.00  0.00    +0.000 S 
ATOM      2  O   UNL     1       4.072   5.773  19.811  0.00  0.00    +0.000 OA
ATOM      3  O   UNL     1       3.643   6.005  17.333  0.00  0.00    +0.000 OA
ENDROOT
BRANCH   1   8
ATOM      4  C   UNL     1       3.901   0.985  18.610  0.00  0.00    +0.000 C 
ATOM      5  N   UNL     1       2.827   1.971  18.734  0.00  0.00    +0.000 NA
ATOM      6  C   UNL     1       2.734   2.782  17.504  0.00  0.00    +0.000 C 
ATOM      7  C   UNL     1       1.701   3.926  17.609  0.00  0.00    +0.000 C 
ATOM      8  N   UNL     1       1.929   4.788  18.809  0.00  0.00    +0.000 NA
ATOM      9  C   UNL     1       1.980   3.929  20.036  0.00  0.00    +0.000 C 
ATOM     10  C   UNL     1       3.054   2.832  19.915  0.00  0.00    +0.000 C 
ENDBRANCH   1   8
BRANCH   1  11
ATOM     11  C   UNL     1       2.288   7.473  19.018  0.00  0.00    +0.000 A 
ATOM     12  C   UNL     1       2.107   8.410  17.994  0.00  0.00    +0.000 A 
ATOM     13  C   UNL     1       1.443   9.612  18.263  0.00  0.00    +0.000 A 
ATOM     14  C   UNL     1       0.949   9.879  19.546  0.00  0.00    +0.000 A 
ATOM     15 CL   UNL     1       0.110  11.370  19.778  0.00  0.00    +0.000 Cl
ATOM     16  C   UNL     1       1.129   8.923  20.549  0.00  0.00    +0.000 A 
ATOM     17  C   UNL     1       1.803   7.718  20.304  0.00  0.00    +0.000 A 
BRANCH  16  18
ATOM     18  N   UNL     1       0.576   9.124  21.872  0.00  0.00    +0.000 N 
ATOM     19  O   UNL     1       1.296   9.671  22.718  0.00  0.00    +0.000 OA
ATOM     20  O   UNL     1      -0.565   8.687  22.065  0.00  0.00    +0.000 OA
ENDBRANCH  16  18
ENDBRANCH   1  11
TORSDOF 3
ENDMDL
MODEL 2
REMARK VINA RESULT:      -6.5      1.221      1.599
REMARK  Name = 
REMARK  4 active torsions:
REMARK  status: ('A' for Active; 'I' for Inactive)
REMARK    1  A    between atoms: C_1  and  N_2
REMARK    2  A    between atoms: N_5  and  S_6
REMARK    3  A    between atoms: S_6  and  C_9
REMARK    4  A    between atoms: C_14  and  N_15
REMARK                            x       y       z     vdW  Elec       q    Type
REMARK                         _______ _______ _______ _____ _____    ______ ____
ROOT
ATOM      1  S   UNL     1       2.913   6.343  18.180  0.00  0.00    +0.000 S 
ATOM      2  O   UNL     1       3.990   6.782  17.317  0.00  0.00    +0.000 OA
ATOM      3  O   UNL     1       1.882   5.446  17.703  0.00  0.00    +0.000 OA
ENDROOT
BRANCH   1   8
ATOM      4  C   UNL     1       3.939   1.479  18.925  0.00  0.00    +0.000 C 
ATOM      5  N   UNL     1       4.041   2.776  19.594  0.00  0.00    +0.000 NA
ATOM      6  C   UNL     1       2.696   3.346  19.810  0.00  0.00    +0.000 C 
ATOM      7  C   UNL     1       2.730   4.771  20.404  0.00  0.00    +0.000 C 
ATOM      8  N   UNL     1       3.589   5.699  19.604  0.00  0.00    +0.000 NA
ATOM      9  C   UNL     1       4.952   5.098  19.441  0.00  0.00    +0.000 C 
ATOM     10  C   UNL     1       4.882   3.699  18.802  0.00  0.00    +0.000 C 
ENDBRANCH   1   8
BRANCH   1  11
ATOM     11  C   UNL     1       2.115   7.821  18.767  0.00  0.00    +0.000 A 
ATOM     12  C   UNL     1       1.890   8.894  17.895  0.00  0.00    +0.000 A 
ATOM     13  C   UNL     1       1.289  10.063  18.375  0.00  0.00    +0.000 A 
ATOM     14  C   UNL     1       0.899  10.163  19.716  0.00  0.00    +0.000 A 
ATOM     15 CL   UNL     1       0.130  11.627  20.211  0.00  0.00    +0.000 Cl
ATOM     16  C   UNL     1       1.120   9.075  20.564  0.00  0.00    +0.000 A 
ATOM     17  C   UNL     1       1.733   7.900  20.108  0.00  0.00    +0.000 A 
BRANCH  16  18
ATOM     18  N   UNL     1       0.672   9.106  21.940  0.00  0.00    +0.000 N 
ATOM     19  O   UNL     1       1.479   9.489  22.798  0.00  0.00    +0.000 OA
ATOM     20  O   UNL     1      -0.476   8.699  22.157  0.00  0.00    +0.000 OA
ENDBRANCH  16  18
ENDBRANCH   1  11
TORSDOF 3
ENDMDL
MODEL 3
REMARK VINA RESULT:      -6.4      1.100      1.258
REMARK  Name = 
REMARK  4 active torsions:
REMARK  status: ('A' for Active; 'I' for Inactive)
REMARK    1  A    between atoms: C_1  and  N_2
REMARK    2  A    between atoms: N_5  and  S_6
REMARK    3  A    between atoms: S_6  and  C_9
REMARK    4  A    between atoms: C_14  and  N_15
REMARK                            x       y       z     vdW  Elec       q    Type
REMARK                         _______ _______ _______ _____ _____    ______ ____
ROOT
ATOM      1  S   UNL     1       2.740   5.721  19.687  0.00  0.00    +0.000 S 
ATOM      2  O   UNL     1       2.001   5.212  20.823  0.00  0.00    +0.000 OA
ATOM      3  O   UNL     1       4.187   5.772  19.689  0.00  0.00    +0.000 OA
ENDROOT
BRANCH   1   8
ATOM      4  C   UNL     1       3.921   0.971  18.543  0.00  0.00    +0.000 C 
ATOM      5  N   UNL     1       3.143   2.101  18.035  0.00  0.00    +0.000 NA
ATOM      6  C   UNL     1       4.034   3.238  17.727  0.00  0.00    +0.000 C 
ATOM      7  C   UNL     1       3.269   4.510  17.300  0.00  0.00    +0.000 C 
ATOM      8  N   UNL     1       2.218   4.900  18.290  0.00  0.00    +0.000 NA
ATOM      9  C   UNL     1       1.317   3.730  18.544  0.00  0.00    +0.000 C 
ATOM     10  C   UNL     1       2.109   2.496  19.015  0.00  0.00    +0.000 C 
ENDBRANCH   1   8
BRANCH   1  11
ATOM     11  C   UNL     1       2.141   7.374  19.407  0.00  0.00    +0.000 A 
ATOM     12  C   UNL     1       2.272   7.966  18.144  0.00  0.00    +0.000 A 
ATOM     13  C   UNL     1       1.825   9.276  17.943  0.00  0.00    +0.000 A 
ATOM     14  C   UNL     1       1.238   9.996  18.991  0.00  0.00    +0.000 A 
ATOM     15 CL   UNL     1       0.681  11.592  18.642  0.00  0.00    +0.000 Cl
ATOM     16  C   UNL     1       1.104   9.380  20.238  0.00  0.00    +0.000 A 
ATOM     17  C   UNL     1       1.557   8.074  20.466  0.00  0.00    +0.000 A 
BRANCH  16  18
ATOM     18  N   UNL     1       0.441  10.059  21.332  0.00  0.00    +0.000 N 
ATOM     19  O   UNL     1       1.111  10.308  22.343  0.00  0.00    +0.000 OA
ATOM     20  O   UNL     1      -0.764  10.297  21.185  0.00  0.00    +0.000 OA
ENDBRANCH  16  18
ENDBRANCH   1  11
TORSDOF 3
ENDMDL
MODEL 4
REMARK VINA RESULT:      -6.4      2.451      2.936
REMARK  Name = 
REMARK  4 active torsions:
REMARK  status: ('A' for Active; 'I' for Inactive)
REMARK    1  A    between atoms: C_1  and  N_2
REMARK    2  A    between atoms: N_5  and  S_6
REMARK    3  A    between atoms: S_6  and  C_9
REMARK    4  A    between atoms: C_14  and  N_15
REMARK                            x       y       z     vdW  Elec       q    Type
REMARK                         _______ _______ _______ _____ _____    ______ ____
ROOT
ATOM      1  S   UNL     1       3.315   5.713  18.781  0.00  0.00    +0.000 S 
ATOM      2  O   UNL     1       2.780   5.108  17.579  0.00  0.00    +0.000 OA
ATOM      3  O   UNL     1       3.338   4.997  20.040  0.00  0.00    +0.000 OA
ENDROOT
BRANCH   1   8
ATOM      4  C   UNL     1       6.349   3.875  15.219  0.00  0.00    +0.000 C 
ATOM      5  N   UNL     1       6.303   4.919  16.243  0.00  0.00    +0.000 NA
ATOM      6  C   UNL     1       6.196   4.314  17.586  0.00  0.00    +0.000 C 
ATOM      7  C   UNL     1       6.020   5.358  18.710  0.00  0.00    +0.000 C 
ATOM      8  N   UNL     1       4.881   6.291  18.445  0.00  0.00    +0.000 NA
ATOM      9  C   UNL     1       5.049   6.909  17.090  0.00  0.00    +0.000 C 
ATOM     10  C   UNL     1       5.172   5.838  15.990  0.00  0.00    +0.000 C 
ENDBRANCH   1   8
BRANCH   1  11
ATOM     11  C   UNL     1       2.395   7.216  19.031  0.00  0.00    +0.000 A 
ATOM     12  C   UNL     1       2.155   8.081  17.956  0.00  0.00    +0.000 A 
ATOM     13  C   UNL     1       1.456   9.275  18.170  0.00  0.00    +0.000 A 
ATOM     14  C   UNL     1       0.986   9.605  19.447  0.00  0.00    +0.000 A 
ATOM     15 CL   UNL     1       0.102  11.078  19.610  0.00  0.00    +0.000 Cl
ATOM     16  C   UNL     1       1.226   8.719  20.501  0.00  0.00    +0.000 A 
ATOM     17  C   UNL     1       1.935   7.525  20.313  0.00  0.00    +0.000 A 
BRANCH  16  18
ATOM     18  N   UNL     1       0.700   8.984  21.824  0.00  0.00    +0.000 N 
ATOM     19  O   UNL     1       1.471   9.473  22.661  0.00  0.00    +0.000 OA
ATOM     20  O   UNL     1      -0.475   8.655  22.027  0.00  0.00    +0.000 OA
ENDBRANCH  16  18
ENDBRANCH   1  11
TORSDOF 3
ENDMDL
MODEL 5
REMARK VINA RESULT:      -6.3      4.762      7.188
REMARK  Name = 
REMARK  4 active torsions:
REMARK  status: ('A' for Active; 'I' for Inactive)
REMARK    1  A    between atoms: C_1  and  N_2
REMARK    2  A    between atoms: N_5  and  S_6
REMARK    3  A    between atoms: S_6  and  C_9
REMARK    4  A    between atoms: C_14  and  N_15
REMARK                            x       y       z     vdW  Elec       q    Type
REMARK                         _______ _______ _______ _____ _____    ______ ____
ROOT
ATOM      1  S   UNL     1       4.837   4.450  17.943  0.00  0.00    +0.000 S 
ATOM      2  O   UNL     1       4.258   5.738  18.260  0.00  0.00    +0.000 OA
ATOM      3  O   UNL     1       5.697   3.758  18.880  0.00  0.00    +0.000 OA
ENDROOT
BRANCH   1   8
ATOM      4  C   UNL     1       1.173   2.773  20.948  0.00  0.00    +0.000 C 
ATOM      5  N   UNL     1       1.633   2.687  19.561  0.00  0.00    +0.000 NA
ATOM      6  C   UNL     1       2.965   2.053  19.503  0.00  0.00    +0.000 C 
ATOM      7  C   UNL     1       3.567   2.038  18.081  0.00  0.00    +0.000 C 
ATOM      8  N   UNL     1       3.588   3.399  17.459  0.00  0.00    +0.000 NA
ATOM      9  C   UNL     1       2.212   3.988  17.508  0.00  0.00    +0.000 C 
ATOM     10  C   UNL     1       1.664   4.031  18.946  0.00  0.00    +0.000 C 
ENDBRANCH   1   8
BRANCH   1  11
ATOM     11  C   UNL     1       5.755   4.677  16.435  0.00  0.00    +0.000 A 
ATOM     12  C   UNL     1       6.880   5.510  16.414  0.00  0.00    +0.000 A 
ATOM     13  C   UNL     1       7.576   5.705  15.216  0.00  0.00    +0.000 A 
ATOM     14  C   UNL     1       7.164   5.064  14.041  0.00  0.00    +0.000 A 
ATOM     15 CL   UNL     1       8.105   5.332  12.619  0.00  0.00    +0.000 Cl
ATOM     16  C   UNL     1       6.047   4.226  14.089  0.00  0.00    +0.000 A 
ATOM     17  C   UNL     1       5.327   4.027  15.275  0.00  0.00    +0.000 A 
BRANCH  16  18
ATOM     18  N   UNL     1       5.624   3.488  12.918  0.00  0.00    +0.000 N 
ATOM     19  O   UNL     1       6.459   2.756  12.368  0.00  0.00    +0.000 OA
ATOM     20  O   UNL     1       4.466   3.684  12.529  0.00  0.00    +0.000 OA
ENDBRANCH  16  18
ENDBRANCH   1  11
TORSDOF 3
ENDMDL
MODEL 6
REMARK VINA RESULT:      -6.3      4.538      5.559
REMARK  Name = 
REMARK  4 active torsions:
REMARK  status: ('A' for Active; 'I' for Inactive)
REMARK    1  A    between atoms: C_1  and  N_2
REMARK    2  A    between atoms: N_5  and  S_6
REMARK    3  A    between atoms: S_6  and  C_9
REMARK    4  A    between atoms: C_14  and  N_15
REMARK                            x       y       z     vdW  Elec       q    Type
REMARK                         _______ _______ _______ _____ _____    ______ ____
ROOT
ATOM      1  S   UNL     1       3.080   3.483  17.455  0.00  0.00    +0.000 S 
ATOM      2  O   UNL     1       3.533   2.373  18.268  0.00  0.00    +0.000 OA
ATOM      3  O   UNL     1       2.678   3.295  16.077  0.00  0.00    +0.000 OA
ENDROOT
BRANCH   1   8
ATOM      4  C   UNL     1       1.639   2.450  22.159  0.00  0.00    +0.000 C 
ATOM      5  N   UNL     1       1.338   3.361  21.054  0.00  0.00    +0.000 NA
ATOM      6  C   UNL     1       0.845   2.602  19.887  0.00  0.00    +0.000 C 
ATOM      7  C   UNL     1       0.621   3.486  18.640  0.00  0.00    +0.000 C 
ATOM      8  N   UNL     1       1.833   4.289  18.289  0.00  0.00    +0.000 NA
ATOM      9  C   UNL     1       2.277   5.069  19.489  0.00  0.00    +0.000 C 
ATOM     10  C   UNL     1       2.537   4.150  20.697  0.00  0.00    +0.000 C 
ENDBRANCH   1   8
BRANCH   1  11
ATOM     11  C   UNL     1       4.395   4.682  17.476  0.00  0.00    +0.000 A 
ATOM     12  C   UNL     1       4.176   5.976  16.989  0.00  0.00    +0.000 A 
ATOM     13  C   UNL     1       5.225   6.902  16.983  0.00  0.00    +0.000 A 
ATOM     14  C   UNL     1       6.488   6.548  17.471  0.00  0.00    +0.000 A 
ATOM     15 CL   UNL     1       7.712   7.765  17.460  0.00  0.00    +0.000 Cl
ATOM     16  C   UNL     1       6.680   5.255  17.965  0.00  0.00    +0.000 A 
ATOM     17  C   UNL     1       5.647   4.308  17.969  0.00  0.00    +0.000 A 
BRANCH  16  18
ATOM     18  N   UNL     1       7.949   4.864  18.544  0.00  0.00    +0.000 N 
ATOM     19  O   UNL     1       8.655   4.076  17.900  0.00  0.00    +0.000 OA
ATOM     20  O   UNL     1       8.207   5.318  19.665  0.00  0.00    +0.000 OA
ENDBRANCH  16  18
ENDBRANCH   1  11
TORSDOF 3
ENDMDL
MODEL 7
REMARK VINA RESULT:      -6.3      2.409      2.883
REMARK  Name = 
REMARK  4 active torsions:
REMARK  status: ('A' for Active; 'I' for Inactive)
REMARK    1  A    between atoms: C_1  and  N_2
REMARK    2  A    between atoms: N_5  and  S_6
REMARK    3  A    between atoms: S_6  and  C_9
REMARK    4  A    between atoms: C_14  and  N_15
REMARK                            x       y       z     vdW  Elec       q    Type
REMARK                         _______ _______ _______ _____ _____    ______ ____
ROOT
ATOM      1  S   UNL     1       3.146   5.686  18.786  0.00  0.00    +0.000 S 
ATOM      2  O   UNL     1       2.122   4.675  18.629  0.00  0.00    +0.000 OA
ATOM      3  O   UNL     1       4.163   5.577  19.810  0.00  0.00    +0.000 OA
ENDROOT
BRANCH   1   8
ATOM      4  C   UNL     1       7.907   4.465  17.736  0.00  0.00    +0.000 C 
ATOM      5  N   UNL     1       6.718   5.040  17.107  0.00  0.00    +0.000 NA
ATOM      6  C   UNL     1       6.350   6.307  17.771  0.00  0.00    +0.000 C 
ATOM      7  C   UNL     1       5.032   6.909  17.238  0.00  0.00    +0.000 C 
ATOM      8  N   UNL     1       3.902   5.930  17.280  0.00  0.00    +0.000 NA
ATOM      9  C   UNL     1       4.305   4.676  16.565  0.00  0.00    +0.000 C 
ATOM     10  C   UNL     1       5.596   4.078  17.155  0.00  0.00    +0.000 C 
ENDBRANCH   1   8
BRANCH   1  11
ATOM     11  C   UNL     1       2.288   7.226  19.039  0.00  0.00    +0.000 A 
ATOM     12  C   UNL     1       2.073   8.096  17.963  0.00  0.00    +0.000 A 
ATOM     13  C   UNL     1       1.423   9.317  18.178  0.00  0.00    +0.000 A 
ATOM     14  C   UNL     1       0.977   9.669  19.458  0.00  0.00    +0.000 A 
ATOM     15 CL   UNL     1       0.153  11.176  19.623  0.00  0.00    +0.000 Cl
ATOM     16  C   UNL     1       1.191   8.778  20.514  0.00  0.00    +0.000 A 
ATOM     17  C   UNL     1       1.851   7.556  20.323  0.00  0.00    +0.000 A 
BRANCH  16  18
ATOM     18  N   UNL     1       0.687   9.067  21.840  0.00  0.00    +0.000 N 
ATOM     19  O   UNL     1      -0.482   8.745  22.092  0.00  0.00    +0.000 OA
ATOM     20  O   UNL     1       1.456   9.660  22.606  0.00  0.00    +0.000 OA
ENDBRANCH  16  18
ENDBRANCH   1  11
TORSDOF 3
ENDMDL
MODEL 8
REMARK VINA RESULT:      -6.3      0.935      1.575
REMARK  Name = 
REMARK  4 active torsions:
REMARK  status: ('A' for Active; 'I' for Inactive)
REMARK    1  A    between atoms: C_1  and  N_2
REMARK    2  A    between atoms: N_5  and  S_6
REMARK    3  A    between atoms: S_6  and  C_9
REMARK    4  A    between atoms: C_14  and  N_15
REMARK                            x       y       z     vdW  Elec       q    Type
REMARK                         _______ _______ _______ _____ _____    ______ ____
ROOT
ATOM      1  S   UNL     1       3.822   5.874  18.466  0.00  0.00    +0.000 S 
ATOM      2  O   UNL     1       4.330   5.528  19.777  0.00  0.00    +0.000 OA
ATOM      3  O   UNL     1       4.712   6.217  17.377  0.00  0.00    +0.000 OA
ENDROOT
BRANCH   1   8
ATOM      4  C   UNL     1       1.838   2.361  21.464  0.00  0.00    +0.000 C 
ATOM      5  N   UNL     1       1.829   2.798  20.068  0.00  0.00    +0.000 NA
ATOM      6  C   UNL     1       3.180   2.675  19.485  0.00  0.00    +0.000 C 
ATOM      7  C   UNL     1       3.274   3.233  18.048  0.00  0.00    +0.000 C 
ATOM      8  N   UNL     1       2.770   4.638  17.951  0.00  0.00    +0.000 NA
ATOM      9  C   UNL     1       1.385   4.708  18.519  0.00  0.00    +0.000 C 
ATOM     10  C   UNL     1       1.340   4.190  19.968  0.00  0.00    +0.000 C 
ENDBRANCH   1   8
BRANCH   1  11
ATOM     11  C   UNL     1       2.713   7.245  18.710  0.00  0.00    +0.000 A 
ATOM     12  C   UNL     1       2.365   8.069  17.633  0.00  0.00    +0.000 A 
ATOM     13  C   UNL     1       1.516   9.161  17.842  0.00  0.00    +0.000 A 
ATOM     14  C   UNL     1       1.005   9.431  19.117  0.00  0.00    +0.000 A 
ATOM     15 CL   UNL     1      -0.064  10.777  19.275  0.00  0.00    +0.000 Cl
ATOM     16  C   UNL     1       1.355   8.587  20.175  0.00  0.00    +0.000 A 
ATOM     17  C   UNL     1       2.214   7.495  19.990  0.00  0.00    +0.000 A 
BRANCH  16  18
ATOM     18  N   UNL     1       0.797   8.784  21.496  0.00  0.00    +0.000 N 
ATOM     19  O   UNL     1      -0.345   8.354  21.706  0.00  0.00    +0.000 OA
ATOM     20  O   UNL     1       1.494   9.412  22.302  0.00  0.00    +0.000 OA
ENDBRANCH  16  18
ENDBRANCH   1  11
TORSDOF 3
ENDMDL
MODEL 9
REMARK VINA RESULT:      -6.2      4.840      7.348
REMARK  Name = 
REMARK  4 active torsions:
REMARK  status: ('A' for Active; 'I' for Inactive)
REMARK    1  A    between atoms: C_1  and  N_2
REMARK    2  A    between atoms: N_5  and  S_6
REMARK    3  A    between atoms: S_6  and  C_9
REMARK    4  A    between atoms: C_14  and  N_15
REMARK                            x       y       z     vdW  Elec       q    Type
REMARK                         _______ _______ _______ _____ _____    ______ ____
ROOT
ATOM      1  S   UNL     1       4.914   3.696  17.769  0.00  0.00    +0.000 S 
ATOM      2  O   UNL     1       5.795   3.972  18.883  0.00  0.00    +0.000 OA
ATOM      3  O   UNL     1       4.384   2.369  17.536  0.00  0.00    +0.000 OA
ENDROOT
BRANCH   1   8
ATOM      4  C   UNL     1       0.991   3.417  20.900  0.00  0.00    +0.000 C 
ATOM      5  N   UNL     1       1.535   4.259  19.834  0.00  0.00    +0.000 NA
ATOM      6  C   UNL     1       1.595   3.505  18.567  0.00  0.00    +0.000 C 
ATOM      7  C   UNL     1       2.273   4.292  17.424  0.00  0.00    +0.000 C 
ATOM      8  N   UNL     1       3.623   4.806  17.811  0.00  0.00    +0.000 NA
ATOM      9  C   UNL     1       3.509   5.595  19.080  0.00  0.00    +0.000 C 
ATOM     10  C   UNL     1       2.875   4.762  20.209  0.00  0.00    +0.000 C 
ENDBRANCH   1   8
BRANCH   1  11
ATOM     11  C   UNL     1       5.797   4.189  16.304  0.00  0.00    +0.000 A 
ATOM     12  C   UNL     1       6.858   5.099  16.395  0.00  0.00    +0.000 A 
ATOM     13  C   UNL     1       7.526   5.503  15.234  0.00  0.00    +0.000 A 
ATOM     14  C   UNL     1       7.150   4.996  13.984  0.00  0.00    +0.000 A 
ATOM     15 CL   UNL     1       8.055   5.520  12.611  0.00  0.00    +0.000 Cl
ATOM     16  C   UNL     1       6.098   4.079  13.919  0.00  0.00    +0.000 A 
ATOM     17  C   UNL     1       5.406   3.671  15.068  0.00  0.00    +0.000 A 
BRANCH  16  18
ATOM     18  N   UNL     1       5.719   3.475  12.660  0.00  0.00    +0.000 N 
ATOM     19  O   UNL     1       4.578   3.701  12.235  0.00  0.00    +0.000 OA
ATOM     20  O   UNL     1       6.556   2.737  12.126  0.00  0.00    +0.000 OA
ENDBRANCH  16  18
ENDBRANCH   1  11
TORSDOF 3
ENDMDL
