MODEL 1
REMARK VINA RESULT:      -7.9      0.000      0.000
REMARK  Name = 
REMARK  7 active torsions:
REMARK  status: ('A' for Active; 'I' for Inactive)
REMARK    1  A    between atoms: C_1  and  O_2
REMARK    2  A    between atoms: O_2  and  C_3
REMARK    3  A    between atoms: C_3  and  C_4
REMARK    4  A    between atoms: C_4  and  N_5
REMARK    5  A    between atoms: C_7  and  C_8
REMARK    6  A    between atoms: C_10  and  C_11
REMARK    7  A    between atoms: C_25  and  C_26
REMARK                            x       y       z     vdW  Elec       q    Type
REMARK                         _______ _______ _______ _____ _____    ______ ____
ROOT
ATOM      1  C   UNL     1       2.793   6.252  19.569  0.00  0.00    +0.000 A 
ATOM      2  C   UNL     1       4.105   6.379  19.159  0.00  0.00    +0.000 A 
ATOM      3  C   UNL     1       4.626   5.088  18.862  0.00  0.00    +0.000 A 
ATOM      4  C   UNL     1       3.650   4.192  19.262  0.00  0.00    +0.000 A 
ATOM      5  C   UNL     1       3.600   2.768  19.341  0.00  0.00    +0.000 A 
ATOM      6  C   UNL     1       2.433   2.156  19.606  0.00  0.00    +0.000 A 
ATOM      7  C   UNL     1       1.207   2.912  19.786  0.00  0.00    +0.000 A 
ATOM      8  C   UNL     1       1.264   4.256  19.791  0.00  0.00    +0.000 A 
ATOM      9  N   UNL     1       2.485   4.903  19.573  0.00  0.00    +0.000 N 
ENDROOT
BRANCH   3  10
ATOM     10  C   UNL     1       5.928   4.750  18.293  0.00  0.00    +0.000 C 
ATOM     11  O   UNL     1       6.913   4.537  19.003  0.00  0.00    +0.000 OA
ATOM     12  N   UNL     1       5.985   4.663  16.912  0.00  0.00    +0.000 N 
ATOM     13  C   UNL     1       7.209   4.298  16.234  0.00  0.00    +0.000 C 
ATOM     14  C   UNL     1       6.944   4.728  14.804  0.00  0.00    +0.000 C 
ATOM     15  C   UNL     1       5.462   4.428  14.607  0.00  0.00    +0.000 C 
ATOM     16  C   UNL     1       4.854   4.533  16.002  0.00  0.00    +0.000 C 
ENDBRANCH   3  10
BRANCH   1  19
ATOM     17  N   UNL     1       0.919   9.334  19.926  0.00  0.00    +0.000 N 
ATOM     18  C   UNL     1       1.729   8.522  19.182  0.00  0.00    +0.000 A 
ATOM     19  C   UNL     1       1.924   7.396  19.952  0.00  0.00    +0.000 A 
ATOM     20  N   UNL     1       1.246   7.509  21.136  0.00  0.00    +0.000 NA
ATOM     21  C   UNL     1       0.694   8.708  21.129  0.00  0.00    +0.000 A 
ATOM     22  C   UNL     1      -0.022   9.341  22.264  0.00  0.00    +0.000 C 
BRANCH  17  23
ATOM     23  C   UNL     1       0.428  10.629  19.503  0.00  0.00    +0.000 C 
BRANCH  23  24
ATOM     24  C   UNL     1      -0.968  10.553  18.901  0.00  0.00    +0.000 C 
BRANCH  24  26
ATOM     25  C   UNL     1      -2.115  10.026  16.910  0.00  0.00    +0.000 C 
ATOM     26  O   UNL     1      -0.890   9.913  17.626  0.00  0.00    +0.000 OA
ENDBRANCH  24  26
ENDBRANCH  23  24
ENDBRANCH  17  23
ENDBRANCH   1  19
TORSDOF 5
ENDMDL
MODEL 2
REMARK VINA RESULT:      -7.9      1.467      2.272
REMARK  Name = 
REMARK  7 active torsions:
REMARK  status: ('A' for Active; 'I' for Inactive)
REMARK    1  A    between atoms: C_1  and  O_2
REMARK    2  A    between atoms: O_2  and  C_3
REMARK    3  A    between atoms: C_3  and  C_4
REMARK    4  A    between atoms: C_4  and  N_5
REMARK    5  A    between atoms: C_7  and  C_8
REMARK    6  A    between atoms: C_10  and  C_11
REMARK    7  A    between atoms: C_25  and  C_26
REMARK                            x       y       z     vdW  Elec       q    Type
REMARK                         _______ _______ _______ _____ _____    ______ ____
ROOT
ATOM      1  C   UNL     1       2.890   6.567  19.322  0.00  0.00    +0.000 A 
ATOM      2  C   UNL     1       4.169   6.590  18.804  0.00  0.00    +0.000 A 
ATOM      3  C   UNL     1       4.688   5.264  18.791  0.00  0.00    +0.000 A 
ATOM      4  C   UNL     1       3.756   4.493  19.462  0.00  0.00    +0.000 A 
ATOM      5  C   UNL     1       3.733   3.130  19.885  0.00  0.00    +0.000 A 
ATOM      6  C   UNL     1       2.596   2.602  20.371  0.00  0.00    +0.000 A 
ATOM      7  C   UNL     1       1.374   3.381  20.447  0.00  0.00    +0.000 A 
ATOM      8  C   UNL     1       1.410   4.686  20.124  0.00  0.00    +0.000 A 
ATOM      9  N   UNL     1       2.604   5.259  19.672  0.00  0.00    +0.000 N 
ENDROOT
BRANCH   3  10
ATOM     10  C   UNL     1       5.954   4.797  18.232  0.00  0.00    +0.000 C 
ATOM     11  O   UNL     1       6.912   4.498  18.949  0.00  0.00    +0.000 OA
ATOM     12  N   UNL     1       6.007   4.690  16.852  0.00  0.00    +0.000 N 
ATOM     13  C   UNL     1       7.193   4.202  16.184  0.00  0.00    +0.000 C 
ATOM     14  C   UNL     1       6.976   4.640  14.748  0.00  0.00    +0.000 C 
ATOM     15  C   UNL     1       5.472   4.481  14.547  0.00  0.00    +0.000 C 
ATOM     16  C   UNL     1       4.872   4.659  15.938  0.00  0.00    +0.000 C 
ENDBRANCH   3  10
BRANCH   1  19
ATOM     17  N   UNL     1       0.729   9.289  20.353  0.00  0.00    +0.000 N 
ATOM     18  C   UNL     1       1.490   8.199  20.669  0.00  0.00    +0.000 A 
ATOM     19  C   UNL     1       2.031   7.771  19.477  0.00  0.00    +0.000 A 
ATOM     20  N   UNL     1       1.619   8.581  18.452  0.00  0.00    +0.000 NA
ATOM     21  C   UNL     1       0.788   9.456  18.989  0.00  0.00    +0.000 A 
ATOM     22  C   UNL     1      -0.025  10.449  18.246  0.00  0.00    +0.000 C 
BRANCH  17  23
ATOM     23  C   UNL     1      -0.014  10.087  21.305  0.00  0.00    +0.000 C 
BRANCH  23  24
ATOM     24  C   UNL     1      -0.017   9.476  22.699  0.00  0.00    +0.000 C 
BRANCH  24  26
ATOM     25  C   UNL     1      -1.468  11.289  23.104  0.00  0.00    +0.000 C 
ATOM     26  O   UNL     1      -0.437  10.467  23.639  0.00  0.00    +0.000 OA
ENDBRANCH  24  26
ENDBRANCH  23  24
ENDBRANCH  17  23
ENDBRANCH   1  19
TORSDOF 5
ENDMDL
MODEL 3
REMARK VINA RESULT:      -7.7      1.223      1.593
REMARK  Name = 
REMARK  7 active torsions:
REMARK  status: ('A' for Active; 'I' for Inactive)
REMARK    1  A    between atoms: C_1  and  O_2
REMARK    2  A    between atoms: O_2  and  C_3
REMARK    3  A    between atoms: C_3  and  C_4
REMARK    4  A    between atoms: C_4  and  N_5
REMARK    5  A    between atoms: C_7  and  C_8
REMARK    6  A    between atoms: C_10  and  C_11
REMARK    7  A    between atoms: C_25  and  C_26
REMARK                            x       y       z     vdW  Elec       q    Type
REMARK                         _______ _______ _______ _____ _____    ______ ____
ROOT
ATOM      1  C   UNL     1       2.710   6.273  19.670  0.00  0.00    +0.000 A 
ATOM      2  C   UNL     1       4.028   6.413  19.287  0.00  0.00    +0.000 A 
ATOM      3  C   UNL     1       4.559   5.130  18.974  0.00  0.00    +0.000 A 
ATOM      4  C   UNL     1       3.580   4.222  19.337  0.00  0.00    +0.000 A 
ATOM      5  C   UNL     1       3.533   2.797  19.386  0.00  0.00    +0.000 A 
ATOM      6  C   UNL     1       2.363   2.176  19.618  0.00  0.00    +0.000 A 
ATOM      7  C   UNL     1       1.132   2.925  19.791  0.00  0.00    +0.000 A 
ATOM      8  C   UNL     1       1.183   4.268  19.823  0.00  0.00    +0.000 A 
ATOM      9  N   UNL     1       2.407   4.923  19.641  0.00  0.00    +0.000 N 
ENDROOT
BRANCH   3  10
ATOM     10  C   UNL     1       5.872   4.807  18.421  0.00  0.00    +0.000 C 
ATOM     11  O   UNL     1       6.851   4.608  19.145  0.00  0.00    +0.000 OA
ATOM     12  N   UNL     1       5.948   4.719  17.041  0.00  0.00    +0.000 N 
ATOM     13  C   UNL     1       7.185   4.368  16.380  0.00  0.00    +0.000 C 
ATOM     14  C   UNL     1       6.934   4.793  14.946  0.00  0.00    +0.000 C 
ATOM     15  C   UNL     1       5.458   4.474  14.730  0.00  0.00    +0.000 C 
ATOM     16  C   UNL     1       4.830   4.573  16.117  0.00  0.00    +0.000 C 
ENDBRANCH   3  10
BRANCH   1  19
ATOM     17  N   UNL     1       0.810   9.337  20.049  0.00  0.00    +0.000 N 
ATOM     18  C   UNL     1       1.630   8.539  19.301  0.00  0.00    +0.000 A 
ATOM     19  C   UNL     1       1.829   7.406  20.060  0.00  0.00    +0.000 A 
ATOM     20  N   UNL     1       1.145   7.502  21.242  0.00  0.00    +0.000 NA
ATOM     21  C   UNL     1       0.584   8.697  21.244  0.00  0.00    +0.000 A 
ATOM     22  C   UNL     1      -0.143   9.313  22.382  0.00  0.00    +0.000 C 
BRANCH  17  23
ATOM     23  C   UNL     1       0.311  10.632  19.636  0.00  0.00    +0.000 C 
BRANCH  23  24
ATOM     24  C   UNL     1       1.352  11.733  19.788  0.00  0.00    +0.000 C 
BRANCH  24  26
ATOM     25  C   UNL     1       0.307  13.117  21.384  0.00  0.00    +0.000 C 
ATOM     26  O   UNL     1       1.355  12.184  21.144  0.00  0.00    +0.000 OA
ENDBRANCH  24  26
ENDBRANCH  23  24
ENDBRANCH  17  23
ENDBRANCH   1  19
TORSDOF 5
ENDMDL
MODEL 4
REMARK VINA RESULT:      -7.6      1.955      2.780
REMARK  Name = 
REMARK  7 active torsions:
REMARK  status: ('A' for Active; 'I' for Inactive)
REMARK    1  A    between atoms: C_1  and  O_2
REMARK    2  A    between atoms: O_2  and  C_3
REMARK    3  A    between atoms: C_3  and  C_4
REMARK    4  A    between atoms: C_4  and  N_5
REMARK    5  A    between atoms: C_7  and  C_8
REMARK    6  A    between atoms: C_10  and  C_11
REMARK    7  A    between atoms: C_25  and  C_26
REMARK                            x       y       z     vdW  Elec       q    Type
REMARK                         _______ _______ _______ _____ _____    ______ ____
ROOT
ATOM      1  C   UNL     1       3.313   6.622  17.979  0.00  0.00    +0.000 A 
ATOM      2  C   UNL     1       4.573   6.860  17.468  0.00  0.00    +0.000 A 
ATOM      3  C   UNL     1       5.132   5.630  17.021  0.00  0.00    +0.000 A 
ATOM      4  C   UNL     1       4.247   4.648  17.429  0.00  0.00    +0.000 A 
ATOM      5  C   UNL     1       4.280   3.222  17.394  0.00  0.00    +0.000 A 
ATOM      6  C   UNL     1       3.176   2.521  17.710  0.00  0.00    +0.000 A 
ATOM      7  C   UNL     1       1.934   3.186  18.058  0.00  0.00    +0.000 A 
ATOM      8  C   UNL     1       1.919   4.527  18.169  0.00  0.00    +0.000 A 
ATOM      9  N   UNL     1       3.079   5.261  17.899  0.00  0.00    +0.000 N 
ENDROOT
BRANCH   3  10
ATOM     10  C   UNL     1       6.392   5.416  16.314  0.00  0.00    +0.000 C 
ATOM     11  O   UNL     1       7.482   5.634  16.847  0.00  0.00    +0.000 OA
ATOM     12  N   UNL     1       6.290   4.936  15.019  0.00  0.00    +0.000 N 
ATOM     13  C   UNL     1       7.469   4.649  14.231  0.00  0.00    +0.000 C 
ATOM     14  C   UNL     1       6.920   4.569  12.820  0.00  0.00    +0.000 C 
ATOM     15  C   UNL     1       5.551   3.923  13.001  0.00  0.00    +0.000 C 
ATOM     16  C   UNL     1       5.122   4.309  14.414  0.00  0.00    +0.000 C 
ENDBRANCH   3  10
BRANCH   1  19
ATOM     17  N   UNL     1       1.145   8.809  19.892  0.00  0.00    +0.000 N 
ATOM     18  C   UNL     1       1.975   7.725  19.832  0.00  0.00    +0.000 A 
ATOM     19  C   UNL     1       2.423   7.679  18.530  0.00  0.00    +0.000 A 
ATOM     20  N   UNL     1       1.888   8.712  17.808  0.00  0.00    +0.000 NA
ATOM     21  C   UNL     1       1.074   9.349  18.630  0.00  0.00    +0.000 A 
ATOM     22  C   UNL     1       0.157  10.455  18.259  0.00  0.00    +0.000 C 
BRANCH  17  23
ATOM     23  C   UNL     1       0.458   9.263  21.083  0.00  0.00    +0.000 C 
BRANCH  23  24
ATOM     24  C   UNL     1       1.351   9.237  22.316  0.00  0.00    +0.000 C 
BRANCH  24  26
ATOM     25  C   UNL     1      -0.678  10.178  23.055  0.00  0.00    +0.000 C 
ATOM     26  O   UNL     1       0.597   9.682  23.445  0.00  0.00    +0.000 OA
ENDBRANCH  24  26
ENDBRANCH  23  24
ENDBRANCH  17  23
ENDBRANCH   1  19
TORSDOF 5
ENDMDL
MODEL 5
REMARK VINA RESULT:      -7.4      1.470      1.665
REMARK  Name = 
REMARK  7 active torsions:
REMARK  status: ('A' for Active; 'I' for Inactive)
REMARK    1  A    between atoms: C_1  and  O_2
REMARK    2  A    between atoms: O_2  and  C_3
REMARK    3  A    between atoms: C_3  and  C_4
REMARK    4  A    between atoms: C_4  and  N_5
REMARK    5  A    between atoms: C_7  and  C_8
REMARK    6  A    between atoms: C_10  and  C_11
REMARK    7  A    between atoms: C_25  and  C_26
REMARK                            x       y       z     vdW  Elec       q    Type
REMARK                         _______ _______ _______ _____ _____    ______ ____
ROOT
ATOM      1  C   UNL     1       3.281   6.597  18.030  0.00  0.00    +0.000 A 
ATOM      2  C   UNL     1       4.537   6.856  17.520  0.00  0.00    +0.000 A 
ATOM      3  C   UNL     1       5.112   5.637  17.062  0.00  0.00    +0.000 A 
ATOM      4  C   UNL     1       4.240   4.640  17.463  0.00  0.00    +0.000 A 
ATOM      5  C   UNL     1       4.293   3.215  17.416  0.00  0.00    +0.000 A 
ATOM      6  C   UNL     1       3.198   2.497  17.726  0.00  0.00    +0.000 A 
ATOM      7  C   UNL     1       1.948   3.142  18.081  0.00  0.00    +0.000 A 
ATOM      8  C   UNL     1       1.915   4.481  18.203  0.00  0.00    +0.000 A 
ATOM      9  N   UNL     1       3.065   5.233  17.939  0.00  0.00    +0.000 N 
ENDROOT
BRANCH   3  10
ATOM     10  C   UNL     1       6.374   5.446  16.352  0.00  0.00    +0.000 C 
ATOM     11  O   UNL     1       7.462   5.686  16.882  0.00  0.00    +0.000 OA
ATOM     12  N   UNL     1       6.279   4.960  15.059  0.00  0.00    +0.000 N 
ATOM     13  C   UNL     1       7.460   4.694  14.269  0.00  0.00    +0.000 C 
ATOM     14  C   UNL     1       6.910   4.600  12.859  0.00  0.00    +0.000 C 
ATOM     15  C   UNL     1       5.554   3.927  13.046  0.00  0.00    +0.000 C 
ATOM     16  C   UNL     1       5.121   4.309  14.459  0.00  0.00    +0.000 C 
ENDBRANCH   3  10
BRANCH   1  19
ATOM     17  N   UNL     1       1.132   9.421  18.770  0.00  0.00    +0.000 N 
ATOM     18  C   UNL     1       1.843   8.681  17.868  0.00  0.00    +0.000 A 
ATOM     19  C   UNL     1       2.377   7.637  18.590  0.00  0.00    +0.000 A 
ATOM     20  N   UNL     1       1.999   7.728  19.904  0.00  0.00    +0.000 NA
ATOM     21  C   UNL     1       1.298   8.841  20.006  0.00  0.00    +0.000 A 
ATOM     22  C   UNL     1       0.797   9.438  21.269  0.00  0.00    +0.000 C 
BRANCH  17  23
ATOM     23  C   UNL     1       0.374  10.613  18.453  0.00  0.00    +0.000 C 
BRANCH  23  24
ATOM     24  C   UNL     1      -1.123  10.346  18.373  0.00  0.00    +0.000 C 
BRANCH  24  26
ATOM     25  C   UNL     1      -2.761  10.001  16.715  0.00  0.00    +0.000 C 
ATOM     26  O   UNL     1      -1.420   9.740  17.114  0.00  0.00    +0.000 OA
ENDBRANCH  24  26
ENDBRANCH  23  24
ENDBRANCH  17  23
ENDBRANCH   1  19
TORSDOF 5
ENDMDL
MODEL 6
REMARK VINA RESULT:      -7.0      1.170      1.282
REMARK  Name = 
REMARK  7 active torsions:
REMARK  status: ('A' for Active; 'I' for Inactive)
REMARK    1  A    between atoms: C_1  and  O_2
REMARK    2  A    between atoms: O_2  and  C_3
REMARK    3  A    between atoms: C_3  and  C_4
REMARK    4  A    between atoms: C_4  and  N_5
REMARK    5  A    between atoms: C_7  and  C_8
REMARK    6  A    between atoms: C_10  and  C_11
REMARK    7  A    between atoms: C_25  and  C_26
REMARK                            x       y       z     vdW  Elec       q    Type
REMARK                         _______ _______ _______ _____ _____    ______ ____
ROOT
ATOM      1  C   UNL     1       3.183   6.864  18.757  0.00  0.00    +0.000 A 
ATOM      2  C   UNL     1       4.346   7.113  18.056  0.00  0.00    +0.000 A 
ATOM      3  C   UNL     1       5.102   5.910  17.967  0.00  0.00    +0.000 A 
ATOM      4  C   UNL     1       4.441   4.995  18.767  0.00  0.00    +0.000 A 
ATOM      5  C   UNL     1       4.740   3.665  19.189  0.00  0.00    +0.000 A 
ATOM      6  C   UNL     1       3.807   2.945  19.837  0.00  0.00    +0.000 A 
ATOM      7  C   UNL     1       2.483   3.482  20.093  0.00  0.00    +0.000 A 
ATOM      8  C   UNL     1       2.221   4.760  19.768  0.00  0.00    +0.000 A 
ATOM      9  N   UNL     1       3.206   5.536  19.145  0.00  0.00    +0.000 N 
ENDROOT
BRANCH   3  10
ATOM     10  C   UNL     1       6.339   5.675  17.227  0.00  0.00    +0.000 C 
ATOM     11  O   UNL     1       7.444   5.934  17.708  0.00  0.00    +0.000 OA
ATOM     12  N   UNL     1       6.198   5.125  15.964  0.00  0.00    +0.000 N 
ATOM     13  C   UNL     1       7.352   4.811  15.150  0.00  0.00    +0.000 C 
ATOM     14  C   UNL     1       6.755   4.649  13.766  0.00  0.00    +0.000 C 
ATOM     15  C   UNL     1       5.402   3.997  14.031  0.00  0.00    +0.000 C 
ATOM     16  C   UNL     1       5.018   4.452  15.436  0.00  0.00    +0.000 C 
ENDBRANCH   3  10
BRANCH   1  19
ATOM     17  N   UNL     1       0.762   9.561  18.788  0.00  0.00    +0.000 N 
ATOM     18  C   UNL     1       1.639   8.767  18.103  0.00  0.00    +0.000 A 
ATOM     19  C   UNL     1       2.142   7.887  19.036  0.00  0.00    +0.000 A 
ATOM     20  N   UNL     1       1.584   8.129  20.263  0.00  0.00    +0.000 NA
ATOM     21  C   UNL     1       0.799   9.179  20.108  0.00  0.00    +0.000 A 
ATOM     22  C   UNL     1       0.090   9.901  21.193  0.00  0.00    +0.000 C 
BRANCH  17  23
ATOM     23  C   UNL     1      -0.027  10.624  18.201  0.00  0.00    +0.000 C 
BRANCH  23  24
ATOM     24  C   UNL     1      -1.392  10.142  17.729  0.00  0.00    +0.000 C 
BRANCH  24  26
ATOM     25  C   UNL     1      -2.700  10.824  15.892  0.00  0.00    +0.000 C 
ATOM     26  O   UNL     1      -2.078  11.230  17.106  0.00  0.00    +0.000 OA
ENDBRANCH  24  26
ENDBRANCH  23  24
ENDBRANCH  17  23
ENDBRANCH   1  19
TORSDOF 5
ENDMDL
MODEL 7
REMARK VINA RESULT:      -7.0      1.876      2.528
REMARK  Name = 
REMARK  7 active torsions:
REMARK  status: ('A' for Active; 'I' for Inactive)
REMARK    1  A    between atoms: C_1  and  O_2
REMARK    2  A    between atoms: O_2  and  C_3
REMARK    3  A    between atoms: C_3  and  C_4
REMARK    4  A    between atoms: C_4  and  N_5
REMARK    5  A    between atoms: C_7  and  C_8
REMARK    6  A    between atoms: C_10  and  C_11
REMARK    7  A    between atoms: C_25  and  C_26
REMARK                            x       y       z     vdW  Elec       q    Type
REMARK                         _______ _______ _______ _____ _____    ______ ____
ROOT
ATOM      1  C   UNL     1       2.218   6.633  19.637  0.00  0.00    +0.000 A 
ATOM      2  C   UNL     1       3.264   6.743  18.744  0.00  0.00    +0.000 A 
ATOM      3  C   UNL     1       3.711   5.439  18.389  0.00  0.00    +0.000 A 
ATOM      4  C   UNL     1       3.019   4.570  19.214  0.00  0.00    +0.000 A 
ATOM      5  C   UNL     1       3.090   3.163  19.436  0.00  0.00    +0.000 A 
ATOM      6  C   UNL     1       2.152   2.558  20.187  0.00  0.00    +0.000 A 
ATOM      7  C   UNL     1       1.044   3.303  20.755  0.00  0.00    +0.000 A 
ATOM      8  C   UNL     1       1.014   4.640  20.614  0.00  0.00    +0.000 A 
ATOM      9  N   UNL     1       2.019   5.286  19.883  0.00  0.00    +0.000 N 
ENDROOT
BRANCH   3  10
ATOM     10  C   UNL     1       4.716   5.069  17.395  0.00  0.00    +0.000 C 
ATOM     11  O   UNL     1       4.412   4.801  16.231  0.00  0.00    +0.000 OA
ATOM     12  N   UNL     1       6.030   5.059  17.832  0.00  0.00    +0.000 N 
ATOM     13  C   UNL     1       7.117   4.746  16.932  0.00  0.00    +0.000 C 
ATOM     14  C   UNL     1       8.263   4.442  17.877  0.00  0.00    +0.000 C 
ATOM     15  C   UNL     1       8.052   5.422  19.026  0.00  0.00    +0.000 C 
ATOM     16  C   UNL     1       6.549   5.689  19.040  0.00  0.00    +0.000 C 
ENDBRANCH   3  10
BRANCH   1  19
ATOM     17  N   UNL     1       0.630   9.783  20.470  0.00  0.00    +0.000 N 
ATOM     18  C   UNL     1       1.271   8.985  19.564  0.00  0.00    +0.000 A 
ATOM     19  C   UNL     1       1.491   7.793  20.218  0.00  0.00    +0.000 A 
ATOM     20  N   UNL     1       0.993   7.852  21.492  0.00  0.00    +0.000 NA
ATOM     21  C   UNL     1       0.530   9.079  21.646  0.00  0.00    +0.000 A 
ATOM     22  C   UNL     1       0.022   9.662  22.913  0.00  0.00    +0.000 C 
BRANCH  17  23
ATOM     23  C   UNL     1       0.177  11.133  20.212  0.00  0.00    +0.000 C 
BRANCH  23  24
ATOM     24  C   UNL     1       1.329  12.118  20.071  0.00  0.00    +0.000 C 
BRANCH  24  26
ATOM     25  C   UNL     1       1.506  14.151  21.250  0.00  0.00    +0.000 C 
ATOM     26  O   UNL     1       1.573  12.732  21.338  0.00  0.00    +0.000 OA
ENDBRANCH  24  26
ENDBRANCH  23  24
ENDBRANCH  17  23
ENDBRANCH   1  19
TORSDOF 5
ENDMDL
MODEL 8
REMARK VINA RESULT:      -7.0      1.796      2.677
REMARK  Name = 
REMARK  7 active torsions:
REMARK  status: ('A' for Active; 'I' for Inactive)
REMARK    1  A    between atoms: C_1  and  O_2
REMARK    2  A    between atoms: O_2  and  C_3
REMARK    3  A    between atoms: C_3  and  C_4
REMARK    4  A    between atoms: C_4  and  N_5
REMARK    5  A    between atoms: C_7  and  C_8
REMARK    6  A    between atoms: C_10  and  C_11
REMARK    7  A    between atoms: C_25  and  C_26
REMARK                            x       y       z     vdW  Elec       q    Type
REMARK                         _______ _______ _______ _____ _____    ______ ____
ROOT
ATOM      1  C   UNL     1       3.436   6.981  18.217  0.00  0.00    +0.000 A 
ATOM      2  C   UNL     1       4.488   7.278  17.374  0.00  0.00    +0.000 A 
ATOM      3  C   UNL     1       5.333   6.138  17.265  0.00  0.00    +0.000 A 
ATOM      4  C   UNL     1       4.848   5.226  18.187  0.00  0.00    +0.000 A 
ATOM      5  C   UNL     1       5.308   3.956  18.644  0.00  0.00    +0.000 A 
ATOM      6  C   UNL     1       4.520   3.206  19.435  0.00  0.00    +0.000 A 
ATOM      7  C   UNL     1       3.190   3.648  19.812  0.00  0.00    +0.000 A 
ATOM      8  C   UNL     1       2.782   4.877  19.448  0.00  0.00    +0.000 A 
ATOM      9  N   UNL     1       3.619   5.688  18.674  0.00  0.00    +0.000 N 
ENDROOT
BRANCH   3  10
ATOM     10  C   UNL     1       6.496   5.956  16.402  0.00  0.00    +0.000 C 
ATOM     11  O   UNL     1       7.602   6.418  16.694  0.00  0.00    +0.000 OA
ATOM     12  N   UNL     1       6.290   5.218  15.248  0.00  0.00    +0.000 N 
ATOM     13  C   UNL     1       7.374   4.939  14.333  0.00  0.00    +0.000 C 
ATOM     14  C   UNL     1       6.650   4.507  13.073  0.00  0.00    +0.000 C 
ATOM     15  C   UNL     1       5.444   3.734  13.597  0.00  0.00    +0.000 C 
ATOM     16  C   UNL     1       5.165   4.334  14.972  0.00  0.00    +0.000 C 
ENDBRANCH   3  10
BRANCH   1  19
ATOM     17  N   UNL     1       0.826   9.028  19.680  0.00  0.00    +0.000 N 
ATOM     18  C   UNL     1       1.843   8.126  19.826  0.00  0.00    +0.000 A 
ATOM     19  C   UNL     1       2.345   7.932  18.557  0.00  0.00    +0.000 A 
ATOM     20  N   UNL     1       1.659   8.699  17.654  0.00  0.00    +0.000 NA
ATOM     21  C   UNL     1       0.709   9.309  18.339  0.00  0.00    +0.000 A 
ATOM     22  C   UNL     1      -0.380  10.137  17.765  0.00  0.00    +0.000 C 
BRANCH  17  23
ATOM     23  C   UNL     1       0.019   9.551  20.762  0.00  0.00    +0.000 C 
BRANCH  23  24
ATOM     24  C   UNL     1       0.437  10.957  21.172  0.00  0.00    +0.000 C 
BRANCH  24  26
ATOM     25  C   UNL     1      -0.812  10.355  23.078  0.00  0.00    +0.000 C 
ATOM     26  O   UNL     1       0.309  11.084  22.589  0.00  0.00    +0.000 OA
ENDBRANCH  24  26
ENDBRANCH  23  24
ENDBRANCH  17  23
ENDBRANCH   1  19
TORSDOF 5
ENDMDL
MODEL 9
REMARK VINA RESULT:      -7.0      1.368      2.090
REMARK  Name = 
REMARK  7 active torsions:
REMARK  status: ('A' for Active; 'I' for Inactive)
REMARK    1  A    between atoms: C_1  and  O_2
REMARK    2  A    between atoms: O_2  and  C_3
REMARK    3  A    between atoms: C_3  and  C_4
REMARK    4  A    between atoms: C_4  and  N_5
REMARK    5  A    between atoms: C_7  and  C_8
REMARK    6  A    between atoms: C_10  and  C_11
REMARK    7  A    between atoms: C_25  and  C_26
REMARK                            x       y       z     vdW  Elec       q    Type
REMARK                         _______ _______ _______ _____ _____    ______ ____
ROOT
ATOM      1  C   UNL     1       2.741   6.670  19.379  0.00  0.00    +0.000 A 
ATOM      2  C   UNL     1       4.025   6.687  18.873  0.00  0.00    +0.000 A 
ATOM      3  C   UNL     1       4.571   5.374  18.948  0.00  0.00    +0.000 A 
ATOM      4  C   UNL     1       3.647   4.626  19.655  0.00  0.00    +0.000 A 
ATOM      5  C   UNL     1       3.646   3.292  20.162  0.00  0.00    +0.000 A 
ATOM      6  C   UNL     1       2.514   2.772  20.668  0.00  0.00    +0.000 A 
ATOM      7  C   UNL     1       1.276   3.530  20.684  0.00  0.00    +0.000 A 
ATOM      8  C   UNL     1       1.290   4.812  20.281  0.00  0.00    +0.000 A 
ATOM      9  N   UNL     1       2.477   5.381  19.807  0.00  0.00    +0.000 N 
ENDROOT
BRANCH   3  10
ATOM     10  C   UNL     1       5.852   4.899  18.430  0.00  0.00    +0.000 C 
ATOM     11  O   UNL     1       6.784   4.597  19.179  0.00  0.00    +0.000 OA
ATOM     12  N   UNL     1       5.949   4.788  17.053  0.00  0.00    +0.000 N 
ATOM     13  C   UNL     1       7.153   4.292  16.425  0.00  0.00    +0.000 C 
ATOM     14  C   UNL     1       6.985   4.727  14.982  0.00  0.00    +0.000 C 
ATOM     15  C   UNL     1       5.488   4.576  14.733  0.00  0.00    +0.000 C 
ATOM     16  C   UNL     1       4.844   4.760  16.103  0.00  0.00    +0.000 C 
ENDBRANCH   3  10
BRANCH   1  19
ATOM     17  N   UNL     1       0.533   9.418  20.222  0.00  0.00    +0.000 N 
ATOM     18  C   UNL     1       1.322   8.373  20.613  0.00  0.00    +0.000 A 
ATOM     19  C   UNL     1       1.857   7.863  19.450  0.00  0.00    +0.000 A 
ATOM     20  N   UNL     1       1.413   8.580  18.371  0.00  0.00    +0.000 NA
ATOM     21  C   UNL     1       0.570   9.476  18.849  0.00  0.00    +0.000 A 
ATOM     22  C   UNL     1      -0.276  10.390  18.041  0.00  0.00    +0.000 C 
BRANCH  17  23
ATOM     23  C   UNL     1      -0.216  10.273  21.119  0.00  0.00    +0.000 C 
BRANCH  23  24
ATOM     24  C   UNL     1       0.602  11.459  21.610  0.00  0.00    +0.000 C 
BRANCH  24  26
ATOM     25  C   UNL     1       1.766  13.285  20.681  0.00  0.00    +0.000 C 
ATOM     26  O   UNL     1       0.599  12.474  20.604  0.00  0.00    +0.000 OA
ENDBRANCH  24  26
ENDBRANCH  23  24
ENDBRANCH  17  23
ENDBRANCH   1  19
TORSDOF 5
ENDMDL
