MODEL 1
REMARK VINA RESULT:      -9.0      0.000      0.000
REMARK  Name = 
REMARK  5 active torsions:
REMARK  status: ('A' for Active; 'I' for Inactive)
REMARK    1  A    between atoms: C_1  and  N_2
REMARK    2  A    between atoms: C_4  and  N_5
REMARK    3  A    between atoms: C_6  and  C_8
REMARK    4  A    between atoms: C_24  and  C_25
REMARK    5  A    between atoms: N_27  and  C_28
REMARK                            x       y       z     vdW  Elec       q    Type
REMARK                         _______ _______ _______ _____ _____    ______ ____
ROOT
ATOM      1  N   UNL     1       1.578   7.083  20.945  0.00  0.00    +0.000 N 
ATOM      2  C   UNL     1       1.374   8.279  20.288  0.00  0.00    +0.000 C 
ATOM      3  O   UNL     1       1.752   8.555  19.153  0.00  0.00    +0.000 OA
ATOM      4  H   UNL     1       1.215   7.008  21.887  0.00  0.00    +0.000 HD
ENDROOT
BRANCH   2   5
ATOM      5  C   UNL     1       0.617   9.319  21.082  0.00  0.00    +0.000 A 
ATOM      6  C   UNL     1       0.299   8.991  22.399  0.00  0.00    +0.000 A 
ATOM      7  C   UNL     1      -0.411   9.899  23.175  0.00  0.00    +0.000 A 
ATOM      8  C   UNL     1      -0.761  11.119  22.585  0.00  0.00    +0.000 A 
ATOM      9  C   UNL     1      -1.470  12.254  23.031  0.00  0.00    +0.000 A 
ATOM     10  C   UNL     1      -1.448  13.212  22.030  0.00  0.00    +0.000 A 
ATOM     11  N   UNL     1      -0.783  12.650  20.952  0.00  0.00    +0.000 N 
ATOM     12  C   UNL     1      -0.369  11.361  21.271  0.00  0.00    +0.000 A 
ATOM     13  N   UNL     1       0.308  10.504  20.458  0.00  0.00    +0.000 NA
ATOM     14  C   UNL     1      -0.552  13.242  19.647  0.00  0.00    +0.000 C 
ATOM     15  C   UNL     1      -0.477  14.768  19.522  0.00  0.00    +0.000 C 
ATOM     16  C   UNL     1      -0.139  15.488  20.813  0.00  0.00    +0.000 C 
ATOM     17  N   UNL     1      -1.325  15.583  21.625  0.00  0.00    +0.000 N 
ATOM     18  C   UNL     1      -2.014  14.536  22.167  0.00  0.00    +0.000 C 
ATOM     19  O   UNL     1      -3.037  14.771  22.806  0.00  0.00    +0.000 OA
ATOM     20  H   UNL     1      -1.749  16.485  21.801  0.00  0.00    +0.000 HD
ENDBRANCH   2   5
BRANCH   1  24
ATOM     21  C   UNL     1       2.583   2.533  19.557  0.00  0.00    +0.000 C 
ATOM     22  N   UNL     1       2.679   3.956  19.782  0.00  0.00    +0.000 N 
ATOM     23  C   UNL     1       1.754   4.708  20.460  0.00  0.00    +0.000 A 
ATOM     24  C   UNL     1       2.225   5.997  20.403  0.00  0.00    +0.000 A 
ATOM     25  N   UNL     1       3.416   6.039  19.724  0.00  0.00    +0.000 NA
ATOM     26  C   UNL     1       3.681   4.795  19.343  0.00  0.00    +0.000 A 
BRANCH  26  27
ATOM     27  C   UNL     1       4.851   4.418  18.548  0.00  0.00    +0.000 C 
ATOM     28  O   UNL     1       5.868   3.924  19.028  0.00  0.00    +0.000 OA
ATOM     29  N   UNL     1       4.715   4.643  17.189  0.00  0.00    +0.000 N 
ATOM     30  H   UNL     1       3.854   5.109  16.908  0.00  0.00    +0.000 HD
BRANCH  29  31
ATOM     31  C   UNL     1       5.703   4.241  16.206  0.00  0.00    +0.000 C 
ATOM     32  C   UNL     1       5.113   4.059  14.809  0.00  0.00    +0.000 C 
ATOM     33  C   UNL     1       6.337   4.016  13.902  0.00  0.00    +0.000 C 
ATOM     34  C   UNL     1       7.390   4.886  14.590  0.00  0.00    +0.000 C 
ATOM     35  C   UNL     1       6.801   5.273  15.952  0.00  0.00    +0.000 C 
ENDBRANCH  29  31
ENDBRANCH  26  27
ENDBRANCH   1  24
TORSDOF 4
ENDMDL
MODEL 2
REMARK VINA RESULT:      -8.9      1.160      1.406
REMARK  Name = 
REMARK  5 active torsions:
REMARK  status: ('A' for Active; 'I' for Inactive)
REMARK    1  A    between atoms: C_1  and  N_2
REMARK    2  A    between atoms: C_4  and  N_5
REMARK    3  A    between atoms: C_6  and  C_8
REMARK    4  A    between atoms: C_24  and  C_25
REMARK    5  A    between atoms: N_27  and  C_28
REMARK                            x       y       z     vdW  Elec       q    Type
REMARK                         _______ _______ _______ _____ _____    ______ ____
ROOT
ATOM      1  N   UNL     1       2.466   6.717  19.855  0.00  0.00    +0.000 N 
ATOM      2  C   UNL     1       2.037   7.896  19.280  0.00  0.00    +0.000 C 
ATOM      3  O   UNL     1       2.200   8.234  18.112  0.00  0.00    +0.000 OA
ATOM      4  H   UNL     1       2.265   6.585  20.838  0.00  0.00    +0.000 HD
ENDROOT
BRANCH   2   5
ATOM      5  C   UNL     1       1.307   8.830  20.218  0.00  0.00    +0.000 A 
ATOM      6  C   UNL     1       1.188   8.418  21.545  0.00  0.00    +0.000 A 
ATOM      7  C   UNL     1       0.514   9.227  22.452  0.00  0.00    +0.000 A 
ATOM      8  C   UNL     1      -0.006  10.436  21.977  0.00  0.00    +0.000 A 
ATOM      9  C   UNL     1      -0.740  11.486  22.569  0.00  0.00    +0.000 A 
ATOM     10  C   UNL     1      -0.923  12.485  21.628  0.00  0.00    +0.000 A 
ATOM     11  N   UNL     1      -0.360  12.031  20.446  0.00  0.00    +0.000 N 
ATOM     12  C   UNL     1       0.193  10.770  20.640  0.00  0.00    +0.000 A 
ATOM     13  N   UNL     1       0.827  10.010  19.703  0.00  0.00    +0.000 NA
ATOM     14  C   UNL     1      -0.347  12.698  19.157  0.00  0.00    +0.000 C 
ATOM     15  C   UNL     1      -0.411  14.229  19.107  0.00  0.00    +0.000 C 
ATOM     16  C   UNL     1       0.032  14.917  20.384  0.00  0.00    +0.000 C 
ATOM     17  N   UNL     1      -1.044  14.873  21.341  0.00  0.00    +0.000 N 
ATOM     18  C   UNL     1      -1.572  13.748  21.907  0.00  0.00    +0.000 C 
ATOM     19  O   UNL     1      -2.519  13.866  22.679  0.00  0.00    +0.000 OA
ATOM     20  H   UNL     1      -1.512  15.727  21.617  0.00  0.00    +0.000 HD
ENDBRANCH   2   5
BRANCH   1  24
ATOM     21  C   UNL     1       3.648   2.353  18.067  0.00  0.00    +0.000 C 
ATOM     22  N   UNL     1       3.665   3.762  18.381  0.00  0.00    +0.000 N 
ATOM     23  C   UNL     1       2.761   4.398  19.192  0.00  0.00    +0.000 A 
ATOM     24  C   UNL     1       3.133   5.720  19.181  0.00  0.00    +0.000 A 
ATOM     25  N   UNL     1       4.245   5.896  18.399  0.00  0.00    +0.000 NA
ATOM     26  C   UNL     1       4.558   4.702  17.910  0.00  0.00    +0.000 A 
BRANCH  26  27
ATOM     27  C   UNL     1       5.669   4.466  16.985  0.00  0.00    +0.000 C 
ATOM     28  O   UNL     1       6.840   4.359  17.343  0.00  0.00    +0.000 OA
ATOM     29  N   UNL     1       5.293   4.347  15.659  0.00  0.00    +0.000 N 
ATOM     30  H   UNL     1       4.305   4.509  15.469  0.00  0.00    +0.000 HD
BRANCH  29  31
ATOM     31  C   UNL     1       6.212   4.000  14.592  0.00  0.00    +0.000 C 
ATOM     32  C   UNL     1       5.501   3.602  13.299  0.00  0.00    +0.000 C 
ATOM     33  C   UNL     1       6.605   3.651  12.249  0.00  0.00    +0.000 C 
ATOM     34  C   UNL     1       7.582   4.726  12.729  0.00  0.00    +0.000 C 
ATOM     35  C   UNL     1       7.100   5.152  14.120  0.00  0.00    +0.000 C 
ENDBRANCH  29  31
ENDBRANCH  26  27
ENDBRANCH   1  24
TORSDOF 4
ENDMDL
MODEL 3
REMARK VINA RESULT:      -8.6      3.023     10.687
REMARK  Name = 
REMARK  5 active torsions:
REMARK  status: ('A' for Active; 'I' for Inactive)
REMARK    1  A    between atoms: C_1  and  N_2
REMARK    2  A    between atoms: C_4  and  N_5
REMARK    3  A    between atoms: C_6  and  C_8
REMARK    4  A    between atoms: C_24  and  C_25
REMARK    5  A    between atoms: N_27  and  C_28
REMARK                            x       y       z     vdW  Elec       q    Type
REMARK                         _______ _______ _______ _____ _____    ______ ____
ROOT
ATOM      1  N   UNL     1       0.932   9.412  19.228  0.00  0.00    +0.000 N 
ATOM      2  C   UNL     1       1.833   9.293  18.190  0.00  0.00    +0.000 C 
ATOM      3  O   UNL     1       2.110  10.162  17.368  0.00  0.00    +0.000 OA
ATOM      4  H   UNL     1       0.802   8.600  19.819  0.00  0.00    +0.000 HD
ENDROOT
BRANCH   2   5
ATOM      5  C   UNL     1       2.514   7.947  18.091  0.00  0.00    +0.000 A 
ATOM      6  C   UNL     1       3.674   7.887  17.321  0.00  0.00    +0.000 A 
ATOM      7  C   UNL     1       4.337   6.674  17.179  0.00  0.00    +0.000 A 
ATOM      8  C   UNL     1       3.799   5.563  17.839  0.00  0.00    +0.000 A 
ATOM      9  C   UNL     1       4.165   4.203  17.924  0.00  0.00    +0.000 A 
ATOM     10  C   UNL     1       3.297   3.564  18.795  0.00  0.00    +0.000 A 
ATOM     11  N   UNL     1       2.366   4.508  19.198  0.00  0.00    +0.000 N 
ATOM     12  C   UNL     1       2.652   5.735  18.609  0.00  0.00    +0.000 A 
ATOM     13  N   UNL     1       1.950   6.892  18.768  0.00  0.00    +0.000 NA
ATOM     14  C   UNL     1       1.222   4.308  20.068  0.00  0.00    +0.000 C 
ATOM     15  C   UNL     1       1.267   3.191  21.117  0.00  0.00    +0.000 C 
ATOM     16  C   UNL     1       2.665   2.743  21.496  0.00  0.00    +0.000 C 
ATOM     17  N   UNL     1       3.166   1.851  20.482  0.00  0.00    +0.000 N 
ATOM     18  C   UNL     1       3.419   2.175  19.180  0.00  0.00    +0.000 C 
ATOM     19  O   UNL     1       3.806   1.293  18.418  0.00  0.00    +0.000 OA
ATOM     20  H   UNL     1       3.319   0.873  20.697  0.00  0.00    +0.000 HD
ENDBRANCH   2   5
BRANCH   1  24
ATOM     21  C   UNL     1      -0.154  14.049  20.208  0.00  0.00    +0.000 C 
ATOM     22  N   UNL     1      -0.271  12.632  19.955  0.00  0.00    +0.000 N 
ATOM     23  C   UNL     1       0.785  11.782  19.743  0.00  0.00    +0.000 A 
ATOM     24  C   UNL     1       0.217  10.553  19.512  0.00  0.00    +0.000 A 
ATOM     25  N   UNL     1      -1.148  10.635  19.595  0.00  0.00    +0.000 NA
ATOM     26  C   UNL     1      -1.438  11.904  19.857  0.00  0.00    +0.000 A 
BRANCH  26  27
ATOM     27  C   UNL     1      -2.803  12.420  19.980  0.00  0.00    +0.000 C 
ATOM     28  O   UNL     1      -3.172  13.152  20.895  0.00  0.00    +0.000 OA
ATOM     29  N   UNL     1      -3.654  12.033  18.960  0.00  0.00    +0.000 N 
ATOM     30  H   UNL     1      -3.258  11.380  18.285  0.00  0.00    +0.000 HD
BRANCH  29  31
ATOM     31  C   UNL     1      -5.014  12.519  18.821  0.00  0.00    +0.000 C 
ATOM     32  C   UNL     1      -5.609  12.237  17.443  0.00  0.00    +0.000 C 
ATOM     33  C   UNL     1      -7.103  12.474  17.639  0.00  0.00    +0.000 C 
ATOM     34  C   UNL     1      -7.388  12.117  19.099  0.00  0.00    +0.000 C 
ATOM     35  C   UNL     1      -6.026  11.842  19.746  0.00  0.00    +0.000 C 
ENDBRANCH  29  31
ENDBRANCH  26  27
ENDBRANCH   1  24
TORSDOF 4
ENDMDL
MODEL 4
REMARK VINA RESULT:      -8.5      7.082      8.769
REMARK  Name = 
REMARK  5 active torsions:
REMARK  status: ('A' for Active; 'I' for Inactive)
REMARK    1  A    between atoms: C_1  and  N_2
REMARK    2  A    between atoms: C_4  and  N_5
REMARK    3  A    between atoms: C_6  and  C_8
REMARK    4  A    between atoms: C_24  and  C_25
REMARK    5  A    between atoms: N_27  and  C_28
REMARK                            x       y       z     vdW  Elec       q    Type
REMARK                         _______ _______ _______ _____ _____    ______ ____
ROOT
ATOM      1  N   UNL     1       8.379   9.687  17.657  0.00  0.00    +0.000 N 
ATOM      2  C   UNL     1       9.092  10.258  18.691  0.00  0.00    +0.000 C 
ATOM      3  O   UNL     1       9.319   9.746  19.783  0.00  0.00    +0.000 OA
ATOM      4  H   UNL     1       8.266  10.240  16.816  0.00  0.00    +0.000 HD
ENDROOT
BRANCH   2   5
ATOM      5  C   UNL     1       9.618  11.646  18.409  0.00  0.00    +0.000 A 
ATOM      6  C   UNL     1      10.698  11.740  17.531  0.00  0.00    +0.000 A 
ATOM      7  C   UNL     1      11.236  12.989  17.244  0.00  0.00    +0.000 A 
ATOM      8  C   UNL     1      10.647  14.103  17.853  0.00  0.00    +0.000 A 
ATOM      9  C   UNL     1      10.909  15.488  17.822  0.00  0.00    +0.000 A 
ATOM     10  C   UNL     1       9.943  16.140  18.571  0.00  0.00    +0.000 A 
ATOM     11  N   UNL     1       9.125  15.159  19.110  0.00  0.00    +0.000 N 
ATOM     12  C   UNL     1       9.553  13.904  18.691  0.00  0.00    +0.000 A 
ATOM     13  N   UNL     1       8.996  12.706  19.024  0.00  0.00    +0.000 NA
ATOM     14  C   UNL     1       8.002  15.339  20.011  0.00  0.00    +0.000 C 
ATOM     15  C   UNL     1       7.221  16.659  19.977  0.00  0.00    +0.000 C 
ATOM     16  C   UNL     1       7.358  17.436  18.683  0.00  0.00    +0.000 C 
ATOM     17  N   UNL     1       8.613  18.144  18.688  0.00  0.00    +0.000 N 
ATOM     18  C   UNL     1       9.856  17.578  18.700  0.00  0.00    +0.000 C 
ATOM     19  O   UNL     1      10.838  18.314  18.746  0.00  0.00    +0.000 OA
ATOM     20  H   UNL     1       8.625  19.155  18.730  0.00  0.00    +0.000 HD
ENDBRANCH   2   5
BRANCH   1  24
ATOM     21  C   UNL     1       7.527   5.062  18.887  0.00  0.00    +0.000 C 
ATOM     22  N   UNL     1       7.447   6.351  18.242  0.00  0.00    +0.000 N 
ATOM     23  C   UNL     1       8.283   7.408  18.494  0.00  0.00    +0.000 A 
ATOM     24  C   UNL     1       7.828   8.427  17.693  0.00  0.00    +0.000 A 
ATOM     25  N   UNL     1       6.752   8.008  16.955  0.00  0.00    +0.000 NA
ATOM     26  C   UNL     1       6.521   6.747  17.300  0.00  0.00    +0.000 A 
BRANCH  26  27
ATOM     27  C   UNL     1       5.420   5.944  16.766  0.00  0.00    +0.000 C 
ATOM     28  O   UNL     1       5.313   5.641  15.580  0.00  0.00    +0.000 OA
ATOM     29  N   UNL     1       4.504   5.526  17.716  0.00  0.00    +0.000 N 
ATOM     30  H   UNL     1       4.659   5.882  18.657  0.00  0.00    +0.000 HD
BRANCH  29  31
ATOM     31  C   UNL     1       3.401   4.630  17.427  0.00  0.00    +0.000 C 
ATOM     32  C   UNL     1       3.711   3.174  17.769  0.00  0.00    +0.000 C 
ATOM     33  C   UNL     1       2.345   2.498  17.751  0.00  0.00    +0.000 C 
ATOM     34  C   UNL     1       1.346   3.579  18.169  0.00  0.00    +0.000 C 
ATOM     35  C   UNL     1       2.142   4.886  18.257  0.00  0.00    +0.000 C 
ENDBRANCH  29  31
ENDBRANCH  26  27
ENDBRANCH   1  24
TORSDOF 4
ENDMDL
MODEL 5
REMARK VINA RESULT:      -8.3      1.807      2.140
REMARK  Name = 
REMARK  5 active torsions:
REMARK  status: ('A' for Active; 'I' for Inactive)
REMARK    1  A    between atoms: C_1  and  N_2
REMARK    2  A    between atoms: C_4  and  N_5
REMARK    3  A    between atoms: C_6  and  C_8
REMARK    4  A    between atoms: C_24  and  C_25
REMARK    5  A    between atoms: N_27  and  C_28
REMARK                            x       y       z     vdW  Elec       q    Type
REMARK                         _______ _______ _______ _____ _____    ______ ____
ROOT
ATOM      1  N   UNL     1       2.506   7.253  19.168  0.00  0.00    +0.000 N 
ATOM      2  C   UNL     1       1.740   7.220  20.316  0.00  0.00    +0.000 C 
ATOM      3  O   UNL     1       1.498   6.228  20.997  0.00  0.00    +0.000 OA
ATOM      4  H   UNL     1       2.605   8.149  18.708  0.00  0.00    +0.000 HD
ENDROOT
BRANCH   2   5
ATOM      5  C   UNL     1       1.160   8.553  20.730  0.00  0.00    +0.000 A 
ATOM      6  C   UNL     1       0.427   8.575  21.917  0.00  0.00    +0.000 A 
ATOM      7  C   UNL     1      -0.144   9.768  22.342  0.00  0.00    +0.000 A 
ATOM      8  C   UNL     1       0.061  10.903  21.549  0.00  0.00    +0.000 A 
ATOM      9  C   UNL     1      -0.355  12.247  21.639  0.00  0.00    +0.000 A 
ATOM     10  C   UNL     1       0.218  12.959  20.597  0.00  0.00    +0.000 A 
ATOM     11  N   UNL     1       0.933  12.048  19.835  0.00  0.00    +0.000 N 
ATOM     12  C   UNL     1       0.834  10.781  20.398  0.00  0.00    +0.000 A 
ATOM     13  N   UNL     1       1.402   9.637  19.922  0.00  0.00    +0.000 NA
ATOM     14  C   UNL     1       1.663  12.302  18.606  0.00  0.00    +0.000 C 
ATOM     15  C   UNL     1       2.232  13.702  18.351  0.00  0.00    +0.000 C 
ATOM     16  C   UNL     1       2.429  14.537  19.601  0.00  0.00    +0.000 C 
ATOM     17  N   UNL     1       1.162  15.093  20.001  0.00  0.00    +0.000 N 
ATOM     18  C   UNL     1       0.069  14.387  20.417  0.00  0.00    +0.000 C 
ATOM     19  O   UNL     1      -0.960  14.999  20.688  0.00  0.00    +0.000 OA
ATOM     20  H   UNL     1       1.005  16.092  19.945  0.00  0.00    +0.000 HD
ENDBRANCH   2   5
BRANCH   1  24
ATOM     21  C   UNL     1       3.554   2.668  17.938  0.00  0.00    +0.000 C 
ATOM     22  N   UNL     1       3.614   4.104  18.075  0.00  0.00    +0.000 N 
ATOM     23  C   UNL     1       2.729   4.862  18.798  0.00  0.00    +0.000 A 
ATOM     24  C   UNL     1       3.141   6.161  18.624  0.00  0.00    +0.000 A 
ATOM     25  N   UNL     1       4.259   6.204  17.831  0.00  0.00    +0.000 NA
ATOM     26  C   UNL     1       4.536   4.950  17.495  0.00  0.00    +0.000 A 
BRANCH  26  27
ATOM     27  C   UNL     1       5.639   4.568  16.611  0.00  0.00    +0.000 C 
ATOM     28  O   UNL     1       6.778   4.337  17.008  0.00  0.00    +0.000 OA
ATOM     29  N   UNL     1       5.291   4.464  15.276  0.00  0.00    +0.000 N 
ATOM     30  H   UNL     1       4.334   4.733  15.051  0.00  0.00    +0.000 HD
BRANCH  29  31
ATOM     31  C   UNL     1       6.195   3.990  14.245  0.00  0.00    +0.000 C 
ATOM     32  C   UNL     1       5.468   3.491  12.998  0.00  0.00    +0.000 C 
ATOM     33  C   UNL     1       6.569   3.407  11.947  0.00  0.00    +0.000 C 
ATOM     34  C   UNL     1       7.577   4.495  12.320  0.00  0.00    +0.000 C 
ATOM     35  C   UNL     1       7.114   5.065  13.665  0.00  0.00    +0.000 C 
ENDBRANCH  29  31
ENDBRANCH  26  27
ENDBRANCH   1  24
TORSDOF 4
ENDMDL
MODEL 6
REMARK VINA RESULT:      -8.3      2.719      3.308
REMARK  Name = 
REMARK  5 active torsions:
REMARK  status: ('A' for Active; 'I' for Inactive)
REMARK    1  A    between atoms: C_1  and  N_2
REMARK    2  A    between atoms: C_4  and  N_5
REMARK    3  A    between atoms: C_6  and  C_8
REMARK    4  A    between atoms: C_24  and  C_25
REMARK    5  A    between atoms: N_27  and  C_28
REMARK                            x       y       z     vdW  Elec       q    Type
REMARK                         _______ _______ _______ _____ _____    ______ ____
ROOT
ATOM      1  N   UNL     1       2.232   7.637  18.911  0.00  0.00    +0.000 N 
ATOM      2  C   UNL     1       2.085   8.715  18.062  0.00  0.00    +0.000 C 
ATOM      3  O   UNL     1       2.678   8.889  17.002  0.00  0.00    +0.000 OA
ATOM      4  H   UNL     1       1.679   7.640  19.759  0.00  0.00    +0.000 HD
ENDROOT
BRANCH   2   5
ATOM      5  C   UNL     1       1.094   9.758  18.527  0.00  0.00    +0.000 A 
ATOM      6  C   UNL     1       1.608  10.826  19.261  0.00  0.00    +0.000 A 
ATOM      7  C   UNL     1       0.745  11.809  19.729  0.00  0.00    +0.000 A 
ATOM      8  C   UNL     1      -0.614  11.676  19.422  0.00  0.00    +0.000 A 
ATOM      9  C   UNL     1      -1.764  12.436  19.720  0.00  0.00    +0.000 A 
ATOM     10  C   UNL     1      -2.853  11.863  19.082  0.00  0.00    +0.000 A 
ATOM     11  N   UNL     1      -2.389  10.724  18.445  0.00  0.00    +0.000 N 
ATOM     12  C   UNL     1      -1.021  10.587  18.656  0.00  0.00    +0.000 A 
ATOM     13  N   UNL     1      -0.226   9.585  18.187  0.00  0.00    +0.000 NA
ATOM     14  C   UNL     1      -3.162   9.756  17.688  0.00  0.00    +0.000 C 
ATOM     15  C   UNL     1      -4.454  10.207  16.998  0.00  0.00    +0.000 C 
ATOM     16  C   UNL     1      -4.539  11.698  16.737  0.00  0.00    +0.000 C 
ATOM     17  N   UNL     1      -4.918  12.369  17.953  0.00  0.00    +0.000 N 
ATOM     18  C   UNL     1      -4.187  12.421  19.105  0.00  0.00    +0.000 C 
ATOM     19  O   UNL     1      -4.662  13.000  20.079  0.00  0.00    +0.000 OA
ATOM     20  H   UNL     1      -5.821  12.822  18.023  0.00  0.00    +0.000 HD
ENDBRANCH   2   5
BRANCH   1  24
ATOM     21  C   UNL     1       4.312   3.253  19.224  0.00  0.00    +0.000 C 
ATOM     22  N   UNL     1       4.001   4.603  18.815  0.00  0.00    +0.000 N 
ATOM     23  C   UNL     1       3.042   5.397  19.391  0.00  0.00    +0.000 A 
ATOM     24  C   UNL     1       3.065   6.568  18.674  0.00  0.00    +0.000 A 
ATOM     25  N   UNL     1       4.021   6.507  17.693  0.00  0.00    +0.000 NA
ATOM     26  C   UNL     1       4.580   5.306  17.780  0.00  0.00    +0.000 A 
BRANCH  26  27
ATOM     27  C   UNL     1       5.626   4.826  16.874  0.00  0.00    +0.000 C 
ATOM     28  O   UNL     1       6.771   4.566  17.235  0.00  0.00    +0.000 OA
ATOM     29  N   UNL     1       5.215   4.664  15.563  0.00  0.00    +0.000 N 
ATOM     30  H   UNL     1       4.262   4.964  15.364  0.00  0.00    +0.000 HD
BRANCH  29  31
ATOM     31  C   UNL     1       6.051   4.093  14.524  0.00  0.00    +0.000 C 
ATOM     32  C   UNL     1       5.263   3.687  13.281  0.00  0.00    +0.000 C 
ATOM     33  C   UNL     1       6.339   3.481  12.221  0.00  0.00    +0.000 C 
ATOM     34  C   UNL     1       7.469   4.444  12.590  0.00  0.00    +0.000 C 
ATOM     35  C   UNL     1       7.084   5.058  13.941  0.00  0.00    +0.000 C 
ENDBRANCH  29  31
ENDBRANCH  26  27
ENDBRANCH   1  24
TORSDOF 4
ENDMDL
MODEL 7
REMARK VINA RESULT:      -8.3      2.525     11.245
REMARK  Name = 
REMARK  5 active torsions:
REMARK  status: ('A' for Active; 'I' for Inactive)
REMARK    1  A    between atoms: C_1  and  N_2
REMARK    2  A    between atoms: C_4  and  N_5
REMARK    3  A    between atoms: C_6  and  C_8
REMARK    4  A    between atoms: C_24  and  C_25
REMARK    5  A    between atoms: N_27  and  C_28
REMARK                            x       y       z     vdW  Elec       q    Type
REMARK                         _______ _______ _______ _____ _____    ______ ____
ROOT
ATOM      1  N   UNL     1       0.446  10.367  20.143  0.00  0.00    +0.000 N 
ATOM      2  C   UNL     1       0.951   9.288  20.840  0.00  0.00    +0.000 C 
ATOM      3  O   UNL     1       0.966   9.157  22.060  0.00  0.00    +0.000 OA
ATOM      4  H   UNL     1       0.515  10.335  19.134  0.00  0.00    +0.000 HD
ENDROOT
BRANCH   2   5
ATOM      5  C   UNL     1       1.535   8.193  19.978  0.00  0.00    +0.000 A 
ATOM      6  C   UNL     1       2.062   8.580  18.746  0.00  0.00    +0.000 A 
ATOM      7  C   UNL     1       2.599   7.616  17.901  0.00  0.00    +0.000 A 
ATOM      8  C   UNL     1       2.593   6.290  18.347  0.00  0.00    +0.000 A 
ATOM      9  C   UNL     1       3.023   5.068  17.789  0.00  0.00    +0.000 A 
ATOM     10  C   UNL     1       2.836   4.063  18.724  0.00  0.00    +0.000 A 
ATOM     11  N   UNL     1       2.240   4.650  19.829  0.00  0.00    +0.000 N 
ATOM     12  C   UNL     1       2.071   6.012  19.608  0.00  0.00    +0.000 A 
ATOM     13  N   UNL     1       1.515   6.909  20.469  0.00  0.00    +0.000 NA
ATOM     14  C   UNL     1       1.799   3.997  21.048  0.00  0.00    +0.000 C 
ATOM     15  C   UNL     1       2.493   2.707  21.499  0.00  0.00    +0.000 C 
ATOM     16  C   UNL     1       3.885   2.512  20.930  0.00  0.00    +0.000 C 
ATOM     17  N   UNL     1       3.779   2.019  19.581  0.00  0.00    +0.000 N 
ATOM     18  C   UNL     1       3.235   2.687  18.521  0.00  0.00    +0.000 C 
ATOM     19  O   UNL     1       3.177   2.119  17.434  0.00  0.00    +0.000 OA
ATOM     20  H   UNL     1       4.084   1.080  19.359  0.00  0.00    +0.000 HD
ENDBRANCH   2   5
BRANCH   1  24
ATOM     21  C   UNL     1      -0.151  14.620  22.422  0.00  0.00    +0.000 C 
ATOM     22  N   UNL     1      -0.416  13.368  21.752  0.00  0.00    +0.000 N 
ATOM     23  C   UNL     1       0.543  12.481  21.336  0.00  0.00    +0.000 A 
ATOM     24  C   UNL     1      -0.147  11.462  20.727  0.00  0.00    +0.000 A 
ATOM     25  N   UNL     1      -1.496  11.702  20.780  0.00  0.00    +0.000 NA
ATOM     26  C   UNL     1      -1.651  12.867  21.398  0.00  0.00    +0.000 A 
BRANCH  26  27
ATOM     27  C   UNL     1      -2.950  13.506  21.618  0.00  0.00    +0.000 C 
ATOM     28  O   UNL     1      -3.284  14.565  21.094  0.00  0.00    +0.000 OA
ATOM     29  N   UNL     1      -3.797  12.804  22.458  0.00  0.00    +0.000 N 
ATOM     30  H   UNL     1      -3.397  11.968  22.882  0.00  0.00    +0.000 HD
BRANCH  29  31
ATOM     31  C   UNL     1      -5.169  13.194  22.723  0.00  0.00    +0.000 C 
ATOM     32  C   UNL     1      -6.169  12.534  21.776  0.00  0.00    +0.000 C 
ATOM     33  C   UNL     1      -7.516  12.770  22.451  0.00  0.00    +0.000 C 
ATOM     34  C   UNL     1      -7.223  12.811  23.951  0.00  0.00    +0.000 C 
ATOM     35  C   UNL     1      -5.697  12.761  24.091  0.00  0.00    +0.000 C 
ENDBRANCH  29  31
ENDBRANCH  26  27
ENDBRANCH   1  24
TORSDOF 4
ENDMDL
MODEL 8
REMARK VINA RESULT:      -8.3      1.116      1.143
REMARK  Name = 
REMARK  5 active torsions:
REMARK  status: ('A' for Active; 'I' for Inactive)
REMARK    1  A    between atoms: C_1  and  N_2
REMARK    2  A    between atoms: C_4  and  N_5
REMARK    3  A    between atoms: C_6  and  C_8
REMARK    4  A    between atoms: C_24  and  C_25
REMARK    5  A    between atoms: N_27  and  C_28
REMARK                            x       y       z     vdW  Elec       q    Type
REMARK                         _______ _______ _______ _____ _____    ______ ____
ROOT
ATOM      1  N   UNL     1       1.464   7.072  21.021  0.00  0.00    +0.000 N 
ATOM      2  C   UNL     1       1.397   8.282  20.362  0.00  0.00    +0.000 C 
ATOM      3  O   UNL     1       1.853   8.528  19.249  0.00  0.00    +0.000 OA
ATOM      4  H   UNL     1       1.048   7.027  21.943  0.00  0.00    +0.000 HD
ENDROOT
BRANCH   2   5
ATOM      5  C   UNL     1       0.692   9.382  21.124  0.00  0.00    +0.000 A 
ATOM      6  C   UNL     1      -0.091   8.989  22.209  0.00  0.00    +0.000 A 
ATOM      7  C   UNL     1      -0.776   9.952  22.939  0.00  0.00    +0.000 A 
ATOM      8  C   UNL     1      -0.630  11.287  22.546  0.00  0.00    +0.000 A 
ATOM      9  C   UNL     1      -1.157  12.509  23.013  0.00  0.00    +0.000 A 
ATOM     10  C   UNL     1      -0.600  13.543  22.278  0.00  0.00    +0.000 A 
ATOM     11  N   UNL     1       0.219  12.961  21.325  0.00  0.00    +0.000 N 
ATOM     12  C   UNL     1       0.200  11.577  21.466  0.00  0.00    +0.000 A 
ATOM     13  N   UNL     1       0.880  10.676  20.702  0.00  0.00    +0.000 NA
ATOM     14  C   UNL     1       0.980  13.628  20.283  0.00  0.00    +0.000 C 
ATOM     15  C   UNL     1       1.443  15.072  20.506  0.00  0.00    +0.000 C 
ATOM     16  C   UNL     1       1.516  15.491  21.961  0.00  0.00    +0.000 C 
ATOM     17  N   UNL     1       0.191  15.812  22.427  0.00  0.00    +0.000 N 
ATOM     18  C   UNL     1      -0.857  14.944  22.533  0.00  0.00    +0.000 C 
ATOM     19  O   UNL     1      -1.944  15.375  22.909  0.00  0.00    +0.000 OA
ATOM     20  H   UNL     1      -0.044  16.767  22.668  0.00  0.00    +0.000 HD
ENDBRANCH   2   5
BRANCH   1  24
ATOM     21  C   UNL     1       3.061   2.501  20.584  0.00  0.00    +0.000 C 
ATOM     22  N   UNL     1       2.762   3.886  20.308  0.00  0.00    +0.000 N 
ATOM     23  C   UNL     1       2.160   4.750  21.187  0.00  0.00    +0.000 A 
ATOM     24  C   UNL     1       2.042   5.936  20.505  0.00  0.00    +0.000 A 
ATOM     25  N   UNL     1       2.571   5.815  19.245  0.00  0.00    +0.000 NA
ATOM     26  C   UNL     1       2.999   4.564  19.131  0.00  0.00    +0.000 A 
BRANCH  26  27
ATOM     27  C   UNL     1       3.595   4.015  17.911  0.00  0.00    +0.000 C 
ATOM     28  O   UNL     1       3.016   3.227  17.168  0.00  0.00    +0.000 OA
ATOM     29  N   UNL     1       4.872   4.475  17.642  0.00  0.00    +0.000 N 
ATOM     30  H   UNL     1       5.278   5.080  18.355  0.00  0.00    +0.000 HD
BRANCH  29  31
ATOM     31  C   UNL     1       5.604   4.151  16.432  0.00  0.00    +0.000 C 
ATOM     32  C   UNL     1       4.987   4.772  15.180  0.00  0.00    +0.000 C 
ATOM     33  C   UNL     1       6.083   4.631  14.129  0.00  0.00    +0.000 C 
ATOM     34  C   UNL     1       7.403   4.692  14.900  0.00  0.00    +0.000 C 
ATOM     35  C   UNL     1       7.029   4.702  16.387  0.00  0.00    +0.000 C 
ENDBRANCH  29  31
ENDBRANCH  26  27
ENDBRANCH   1  24
TORSDOF 4
ENDMDL
MODEL 9
REMARK VINA RESULT:      -8.3      1.718      2.021
REMARK  Name = 
REMARK  5 active torsions:
REMARK  status: ('A' for Active; 'I' for Inactive)
REMARK    1  A    between atoms: C_1  and  N_2
REMARK    2  A    between atoms: C_4  and  N_5
REMARK    3  A    between atoms: C_6  and  C_8
REMARK    4  A    between atoms: C_24  and  C_25
REMARK    5  A    between atoms: N_27  and  C_28
REMARK                            x       y       z     vdW  Elec       q    Type
REMARK                         _______ _______ _______ _____ _____    ______ ____
ROOT
ATOM      1  N   UNL     1       2.301   7.461  19.257  0.00  0.00    +0.000 N 
ATOM      2  C   UNL     1       1.983   8.601  18.546  0.00  0.00    +0.000 C 
ATOM      3  O   UNL     1       2.199   8.796  17.354  0.00  0.00    +0.000 OA
ATOM      4  H   UNL     1       2.068   7.454  20.242  0.00  0.00    +0.000 HD
ENDROOT
BRANCH   2   5
ATOM      5  C   UNL     1       1.314   9.688  19.357  0.00  0.00    +0.000 A 
ATOM      6  C   UNL     1       0.615   9.281  20.493  0.00  0.00    +0.000 A 
ATOM      7  C   UNL     1      -0.034  10.232  21.271  0.00  0.00    +0.000 A 
ATOM      8  C   UNL     1       0.061  11.569  20.870  0.00  0.00    +0.000 A 
ATOM      9  C   UNL     1      -0.455  12.781  21.375  0.00  0.00    +0.000 A 
ATOM     10  C   UNL     1       0.032  13.825  20.605  0.00  0.00    +0.000 A 
ATOM     11  N   UNL     1       0.793  13.258  19.596  0.00  0.00    +0.000 N 
ATOM     12  C   UNL     1       0.809  11.874  19.736  0.00  0.00    +0.000 A 
ATOM     13  N   UNL     1       1.449  10.986  18.926  0.00  0.00    +0.000 NA
ATOM     14  C   UNL     1       1.468  13.939  18.505  0.00  0.00    +0.000 C 
ATOM     15  C   UNL     1       1.920  15.391  18.697  0.00  0.00    +0.000 C 
ATOM     16  C   UNL     1       2.086  15.810  20.145  0.00  0.00    +0.000 C 
ATOM     17  N   UNL     1       0.792  16.108  20.702  0.00  0.00    +0.000 N 
ATOM     18  C   UNL     1      -0.231  15.221  20.879  0.00  0.00    +0.000 C 
ATOM     19  O   UNL     1      -1.296  15.633  21.330  0.00  0.00    +0.000 OA
ATOM     20  H   UNL     1       0.557  17.059  20.960  0.00  0.00    +0.000 HD
ENDBRANCH   2   5
BRANCH   1  24
ATOM     21  C   UNL     1       3.132   2.854  17.945  0.00  0.00    +0.000 C 
ATOM     22  N   UNL     1       3.271   4.280  18.127  0.00  0.00    +0.000 N 
ATOM     23  C   UNL     1       2.399   5.072  18.828  0.00  0.00    +0.000 A 
ATOM     24  C   UNL     1       2.896   6.346  18.713  0.00  0.00    +0.000 A 
ATOM     25  N   UNL     1       4.052   6.342  17.976  0.00  0.00    +0.000 NA
ATOM     26  C   UNL     1       4.269   5.083  17.617  0.00  0.00    +0.000 A 
BRANCH  26  27
ATOM     27  C   UNL     1       5.390   4.657  16.776  0.00  0.00    +0.000 C 
ATOM     28  O   UNL     1       6.498   4.364  17.218  0.00  0.00    +0.000 OA
ATOM     29  N   UNL     1       5.097   4.586  15.425  0.00  0.00    +0.000 N 
ATOM     30  H   UNL     1       4.165   4.906  15.163  0.00  0.00    +0.000 HD
BRANCH  29  31
ATOM     31  C   UNL     1       6.021   4.081  14.428  0.00  0.00    +0.000 C 
ATOM     32  C   UNL     1       5.322   3.592  13.161  0.00  0.00    +0.000 C 
ATOM     33  C   UNL     1       6.453   3.471  12.147  0.00  0.00    +0.000 C 
ATOM     34  C   UNL     1       7.478   4.535  12.545  0.00  0.00    +0.000 C 
ATOM     35  C   UNL     1       6.986   5.127  13.871  0.00  0.00    +0.000 C 
ENDBRANCH  29  31
ENDBRANCH  26  27
ENDBRANCH   1  24
TORSDOF 4
ENDMDL
