MODEL 1
REMARK VINA RESULT:      -7.4      0.000      0.000
REMARK  Name = 
REMARK  11 active torsions:
REMARK  status: ('A' for Active; 'I' for Inactive)
REMARK    1  A    between atoms: C_1  and  C_2
REMARK    2  A    between atoms: C_2  and  C_3
REMARK    3  A    between atoms: C_3  and  C_4
REMARK    4  A    between atoms: C_11  and  C_12
REMARK    5  A    between atoms: C_14  and  O_15
REMARK    6  A    between atoms: O_15  and  C_16
REMARK    7  A    between atoms: C_16  and  C_17
REMARK    8  A    between atoms: N_19  and  C_20
REMARK    9  A    between atoms: C_20  and  C_21
REMARK   10  A    between atoms: C_21  and  C_22
REMARK   11  A    between atoms: C_22  and  N_23
REMARK                            x       y       z     vdW  Elec       q    Type
REMARK                         _______ _______ _______ _____ _____    ______ ____
ROOT
ATOM      1  C   UNL     1      -1.747  11.949  21.065  0.00  0.00    +0.000 A 
ATOM      2  C   UNL     1      -2.710  12.726  21.586  0.00  0.00    +0.000 A 
ATOM      3  C   UNL     1      -3.908  13.157  20.865  0.00  0.00    +0.000 A 
ATOM      4  O   UNL     1      -4.710  13.927  21.377  0.00  0.00    +0.000 OA
ATOM      5  O   UNL     1      -4.061  12.659  19.591  0.00  0.00    +0.000 OA
ATOM      6  C   UNL     1      -3.098  11.804  19.014  0.00  0.00    +0.000 A 
ATOM      7  C   UNL     1      -3.415  11.378  17.722  0.00  0.00    +0.000 A 
ATOM      8  C   UNL     1      -2.546  10.532  17.045  0.00  0.00    +0.000 A 
ATOM      9  C   UNL     1      -2.863  10.059  15.658  0.00  0.00    +0.000 C 
ATOM     10  C   UNL     1      -1.360  10.136  17.680  0.00  0.00    +0.000 A 
ATOM     11  C   UNL     1      -1.035  10.576  18.981  0.00  0.00    +0.000 A 
ATOM     12  C   UNL     1      -1.922  11.426  19.685  0.00  0.00    +0.000 A 
ENDROOT
BRANCH   1  13
ATOM     13  C   UNL     1      -0.539  11.650  21.925  0.00  0.00    +0.000 C 
BRANCH  13  15
ATOM     14  C   UNL     1       0.105   9.447  23.053  0.00  0.00    +0.000 C 
ATOM     15  C   UNL     1      -0.825  10.657  23.061  0.00  0.00    +0.000 C 
ENDBRANCH  13  15
ENDBRANCH   1  13
BRANCH  11  16
ATOM     16  O   UNL     1       0.142  10.233  19.595  0.00  0.00    +0.000 OA
BRANCH  16  17
ATOM     17  C   UNL     1       1.362  10.371  18.878  0.00  0.00    +0.000 C 
BRANCH  17  18
ATOM     18  C   UNL     1       1.888   8.975  18.550  0.00  0.00    +0.000 C 
ATOM     19  O   UNL     1       2.313   8.679  17.437  0.00  0.00    +0.000 OA
ATOM     20  N   UNL     1       1.842   8.086  19.608  0.00  0.00    +0.000 N 
ATOM     21  H   UNL     1       1.466   8.398  20.494  0.00  0.00    +0.000 HD
BRANCH  20  22
ATOM     22  C   UNL     1       2.313   6.717  19.502  0.00  0.00    +0.000 C 
BRANCH  22  23
ATOM     23  C   UNL     1       1.840   5.886  20.689  0.00  0.00    +0.000 C 
BRANCH  23  24
ATOM     24  C   UNL     1       1.283   4.542  20.235  0.00  0.00    +0.000 C 
BRANCH  24  25
ATOM     25  N   UNL     1       2.211   3.847  19.361  0.00  0.00    +0.000 N 
ATOM     26  C   UNL     1       3.414   3.220  19.845  0.00  0.00    +0.000 C 
ATOM     27  C   UNL     1       4.206   2.957  18.578  0.00  0.00    +0.000 C 
ATOM     28  C   UNL     1       3.138   2.771  17.507  0.00  0.00    +0.000 C 
ATOM     29  C   UNL     1       2.000   3.625  18.009  0.00  0.00    +0.000 C 
ATOM     30  O   UNL     1       1.048   4.003  17.348  0.00  0.00    +0.000 OA
ENDBRANCH  24  25
ENDBRANCH  23  24
ENDBRANCH  22  23
ENDBRANCH  20  22
ENDBRANCH  17  18
ENDBRANCH  16  17
ENDBRANCH  11  16
TORSDOF 9
ENDMDL
MODEL 2
REMARK VINA RESULT:      -7.0      1.581      2.080
REMARK  Name = 
REMARK  11 active torsions:
REMARK  status: ('A' for Active; 'I' for Inactive)
REMARK    1  A    between atoms: C_1  and  C_2
REMARK    2  A    between atoms: C_2  and  C_3
REMARK    3  A    between atoms: C_3  and  C_4
REMARK    4  A    between atoms: C_11  and  C_12
REMARK    5  A    between atoms: C_14  and  O_15
REMARK    6  A    between atoms: O_15  and  C_16
REMARK    7  A    between atoms: C_16  and  C_17
REMARK    8  A    between atoms: N_19  and  C_20
REMARK    9  A    between atoms: C_20  and  C_21
REMARK   10  A    between atoms: C_21  and  C_22
REMARK   11  A    between atoms: C_22  and  N_23
REMARK                            x       y       z     vdW  Elec       q    Type
REMARK                         _______ _______ _______ _____ _____    ______ ____
ROOT
ATOM      1  C   UNL     1      -1.088  11.524  20.646  0.00  0.00    +0.000 A 
ATOM      2  C   UNL     1      -1.917  12.336  21.320  0.00  0.00    +0.000 A 
ATOM      3  C   UNL     1      -3.158  12.891  20.778  0.00  0.00    +0.000 A 
ATOM      4  O   UNL     1      -3.829  13.686  21.424  0.00  0.00    +0.000 OA
ATOM      5  O   UNL     1      -3.504  12.479  19.512  0.00  0.00    +0.000 OA
ATOM      6  C   UNL     1      -2.687  11.592  18.778  0.00  0.00    +0.000 A 
ATOM      7  C   UNL     1      -3.192  11.264  17.517  0.00  0.00    +0.000 A 
ATOM      8  C   UNL     1      -2.481  10.398  16.696  0.00  0.00    +0.000 A 
ATOM      9  C   UNL     1      -3.001  10.029  15.339  0.00  0.00    +0.000 C 
ATOM     10  C   UNL     1      -1.260   9.885  17.156  0.00  0.00    +0.000 A 
ATOM     11  C   UNL     1      -0.745  10.225  18.425  0.00  0.00    +0.000 A 
ATOM     12  C   UNL     1      -1.471  11.094  19.276  0.00  0.00    +0.000 A 
ENDROOT
BRANCH   1  13
ATOM     13  C   UNL     1       0.190  11.092  21.331  0.00  0.00    +0.000 C 
BRANCH  13  15
ATOM     14  C   UNL     1       1.260   9.135  22.582  0.00  0.00    +0.000 C 
ATOM     15  C   UNL     1      -0.009   9.946  22.333  0.00  0.00    +0.000 C 
ENDBRANCH  13  15
ENDBRANCH   1  13
BRANCH  11  16
ATOM     16  O   UNL     1       0.469   9.766  18.869  0.00  0.00    +0.000 OA
BRANCH  16  17
ATOM     17  C   UNL     1       1.453   9.385  17.917  0.00  0.00    +0.000 C 
BRANCH  17  18
ATOM     18  C   UNL     1       2.229   8.195  18.477  0.00  0.00    +0.000 C 
ATOM     19  O   UNL     1       1.960   7.688  19.563  0.00  0.00    +0.000 OA
ATOM     20  N   UNL     1       3.251   7.745  17.662  0.00  0.00    +0.000 N 
ATOM     21  H   UNL     1       3.423   8.222  16.785  0.00  0.00    +0.000 HD
BRANCH  20  22
ATOM     22  C   UNL     1       4.091   6.614  18.009  0.00  0.00    +0.000 C 
BRANCH  22  23
ATOM     23  C   UNL     1       4.578   5.894  16.757  0.00  0.00    +0.000 C 
BRANCH  23  24
ATOM     24  C   UNL     1       4.477   4.381  16.915  0.00  0.00    +0.000 C 
BRANCH  24  25
ATOM     25  N   UNL     1       3.506   4.014  17.928  0.00  0.00    +0.000 N 
ATOM     26  C   UNL     1       2.084   4.092  17.708  0.00  0.00    +0.000 C 
ATOM     27  C   UNL     1       1.506   3.966  19.105  0.00  0.00    +0.000 C 
ATOM     28  C   UNL     1       2.529   3.121  19.854  0.00  0.00    +0.000 C 
ATOM     29  C   UNL     1       3.825   3.463  19.159  0.00  0.00    +0.000 C 
ATOM     30  O   UNL     1       4.944   3.243  19.591  0.00  0.00    +0.000 OA
ENDBRANCH  24  25
ENDBRANCH  23  24
ENDBRANCH  22  23
ENDBRANCH  20  22
ENDBRANCH  17  18
ENDBRANCH  16  17
ENDBRANCH  11  16
TORSDOF 9
ENDMDL
MODEL 3
REMARK VINA RESULT:      -7.0      1.385      1.848
REMARK  Name = 
REMARK  11 active torsions:
REMARK  status: ('A' for Active; 'I' for Inactive)
REMARK    1  A    between atoms: C_1  and  C_2
REMARK    2  A    between atoms: C_2  and  C_3
REMARK    3  A    between atoms: C_3  and  C_4
REMARK    4  A    between atoms: C_11  and  C_12
REMARK    5  A    between atoms: C_14  and  O_15
REMARK    6  A    between atoms: O_15  and  C_16
REMARK    7  A    between atoms: C_16  and  C_17
REMARK    8  A    between atoms: N_19  and  C_20
REMARK    9  A    between atoms: C_20  and  C_21
REMARK   10  A    between atoms: C_21  and  C_22
REMARK   11  A    between atoms: C_22  and  N_23
REMARK                            x       y       z     vdW  Elec       q    Type
REMARK                         _______ _______ _______ _____ _____    ______ ____
ROOT
ATOM      1  C   UNL     1      -0.768  11.263  20.617  0.00  0.00    +0.000 A 
ATOM      2  C   UNL     1      -1.555  12.086  21.327  0.00  0.00    +0.000 A 
ATOM      3  C   UNL     1      -2.777  12.710  20.817  0.00  0.00    +0.000 A 
ATOM      4  O   UNL     1      -3.407  13.510  21.496  0.00  0.00    +0.000 OA
ATOM      5  O   UNL     1      -3.153  12.354  19.542  0.00  0.00    +0.000 OA
ATOM      6  C   UNL     1      -2.382  11.458  18.771  0.00  0.00    +0.000 A 
ATOM      7  C   UNL     1      -2.913  11.193  17.506  0.00  0.00    +0.000 A 
ATOM      8  C   UNL     1      -2.248  10.325  16.649  0.00  0.00    +0.000 A 
ATOM      9  C   UNL     1      -2.797  10.022  15.288  0.00  0.00    +0.000 C 
ATOM     10  C   UNL     1      -1.045   9.747  17.078  0.00  0.00    +0.000 A 
ATOM     11  C   UNL     1      -0.503  10.024  18.351  0.00  0.00    +0.000 A 
ATOM     12  C   UNL     1      -1.183  10.894  19.238  0.00  0.00    +0.000 A 
ENDROOT
BRANCH   1  13
ATOM     13  C   UNL     1       0.498  10.757  21.272  0.00  0.00    +0.000 C 
BRANCH  13  15
ATOM     14  C   UNL     1      -0.058   9.498  23.428  0.00  0.00    +0.000 C 
ATOM     15  C   UNL     1       0.330   9.392  21.956  0.00  0.00    +0.000 C 
ENDBRANCH  13  15
ENDBRANCH   1  13
BRANCH  11  16
ATOM     16  O   UNL     1       0.695   9.500  18.766  0.00  0.00    +0.000 OA
BRANCH  16  17
ATOM     17  C   UNL     1       1.498   8.789  17.833  0.00  0.00    +0.000 C 
BRANCH  17  18
ATOM     18  C   UNL     1       2.323   7.756  18.598  0.00  0.00    +0.000 C 
ATOM     19  O   UNL     1       2.065   7.437  19.756  0.00  0.00    +0.000 OA
ATOM     20  N   UNL     1       3.373   7.218  17.878  0.00  0.00    +0.000 N 
ATOM     21  H   UNL     1       3.533   7.539  16.931  0.00  0.00    +0.000 HD
BRANCH  20  22
ATOM     22  C   UNL     1       4.262   6.209  18.423  0.00  0.00    +0.000 C 
BRANCH  22  23
ATOM     23  C   UNL     1       4.932   5.415  17.307  0.00  0.00    +0.000 C 
BRANCH  23  24
ATOM     24  C   UNL     1       3.953   4.447  16.653  0.00  0.00    +0.000 C 
BRANCH  24  25
ATOM     25  N   UNL     1       3.274   3.627  17.638  0.00  0.00    +0.000 N 
ATOM     26  C   UNL     1       3.979   2.772  18.559  0.00  0.00    +0.000 C 
ATOM     27  C   UNL     1       2.885   1.880  19.116  0.00  0.00    +0.000 C 
ATOM     28  C   UNL     1       1.632   2.746  19.048  0.00  0.00    +0.000 C 
ATOM     29  C   UNL     1       1.908   3.649  17.870  0.00  0.00    +0.000 C 
ATOM     30  O   UNL     1       1.077   4.311  17.272  0.00  0.00    +0.000 OA
ENDBRANCH  24  25
ENDBRANCH  23  24
ENDBRANCH  22  23
ENDBRANCH  20  22
ENDBRANCH  17  18
ENDBRANCH  16  17
ENDBRANCH  11  16
TORSDOF 9
ENDMDL
MODEL 4
REMARK VINA RESULT:      -7.0      2.854      4.932
REMARK  Name = 
REMARK  11 active torsions:
REMARK  status: ('A' for Active; 'I' for Inactive)
REMARK    1  A    between atoms: C_1  and  C_2
REMARK    2  A    between atoms: C_2  and  C_3
REMARK    3  A    between atoms: C_3  and  C_4
REMARK    4  A    between atoms: C_11  and  C_12
REMARK    5  A    between atoms: C_14  and  O_15
REMARK    6  A    between atoms: O_15  and  C_16
REMARK    7  A    between atoms: C_16  and  C_17
REMARK    8  A    between atoms: N_19  and  C_20
REMARK    9  A    between atoms: C_20  and  C_21
REMARK   10  A    between atoms: C_21  and  C_22
REMARK   11  A    between atoms: C_22  and  N_23
REMARK                            x       y       z     vdW  Elec       q    Type
REMARK                         _______ _______ _______ _____ _____    ______ ____
ROOT
ATOM      1  C   UNL     1       0.398   9.270  20.518  0.00  0.00    +0.000 A 
ATOM      2  C   UNL     1      -0.027  10.512  20.239  0.00  0.00    +0.000 A 
ATOM      3  C   UNL     1       0.479  11.333  19.138  0.00  0.00    +0.000 A 
ATOM      4  O   UNL     1       0.099  12.487  18.986  0.00  0.00    +0.000 OA
ATOM      5  O   UNL     1       1.402  10.736  18.311  0.00  0.00    +0.000 OA
ATOM      6  C   UNL     1       1.849   9.417  18.537  0.00  0.00    +0.000 A 
ATOM      7  C   UNL     1       2.775   8.960  17.597  0.00  0.00    +0.000 A 
ATOM      8  C   UNL     1       3.291   7.675  17.709  0.00  0.00    +0.000 A 
ATOM      9  C   UNL     1       4.285   7.159  16.712  0.00  0.00    +0.000 C 
ATOM     10  C   UNL     1       2.874   6.872  18.780  0.00  0.00    +0.000 A 
ATOM     11  C   UNL     1       1.947   7.339  19.737  0.00  0.00    +0.000 A 
ATOM     12  C   UNL     1       1.403   8.642  19.621  0.00  0.00    +0.000 A 
ENDROOT
BRANCH   1  13
ATOM     13  C   UNL     1      -0.181   8.583  21.735  0.00  0.00    +0.000 C 
BRANCH  13  15
ATOM     14  C   UNL     1      -1.048  10.457  23.243  0.00  0.00    +0.000 C 
ATOM     15  C   UNL     1       0.009   9.376  23.036  0.00  0.00    +0.000 C 
ENDBRANCH  13  15
ENDBRANCH   1  13
BRANCH  11  16
ATOM     16  O   UNL     1       1.564   6.581  20.814  0.00  0.00    +0.000 OA
BRANCH  16  17
ATOM     17  C   UNL     1       0.860   5.367  20.589  0.00  0.00    +0.000 C 
BRANCH  17  18
ATOM     18  C   UNL     1       1.831   4.205  20.783  0.00  0.00    +0.000 C 
ATOM     19  O   UNL     1       2.403   3.999  21.851  0.00  0.00    +0.000 OA
ATOM     20  N   UNL     1       2.006   3.414  19.663  0.00  0.00    +0.000 N 
ATOM     21  H   UNL     1       1.510   3.653  18.813  0.00  0.00    +0.000 HD
BRANCH  20  22
ATOM     22  C   UNL     1       2.873   2.251  19.652  0.00  0.00    +0.000 C 
BRANCH  22  23
ATOM     23  C   UNL     1       3.937   2.376  18.567  0.00  0.00    +0.000 C 
BRANCH  23  24
ATOM     24  C   UNL     1       4.729   3.670  18.718  0.00  0.00    +0.000 C 
BRANCH  24  25
ATOM     25  N   UNL     1       5.481   3.978  17.515  0.00  0.00    +0.000 N 
ATOM     26  C   UNL     1       4.909   3.891  16.196  0.00  0.00    +0.000 C 
ATOM     27  C   UNL     1       6.122   3.946  15.285  0.00  0.00    +0.000 C 
ATOM     28  C   UNL     1       7.135   4.771  16.068  0.00  0.00    +0.000 C 
ATOM     29  C   UNL     1       6.774   4.478  17.504  0.00  0.00    +0.000 C 
ATOM     30  O   UNL     1       7.480   4.694  18.474  0.00  0.00    +0.000 OA
ENDBRANCH  24  25
ENDBRANCH  23  24
ENDBRANCH  22  23
ENDBRANCH  20  22
ENDBRANCH  17  18
ENDBRANCH  16  17
ENDBRANCH  11  16
TORSDOF 9
ENDMDL
MODEL 5
REMARK VINA RESULT:      -6.9      2.477      8.547
REMARK  Name = 
REMARK  11 active torsions:
REMARK  status: ('A' for Active; 'I' for Inactive)
REMARK    1  A    between atoms: C_1  and  C_2
REMARK    2  A    between atoms: C_2  and  C_3
REMARK    3  A    between atoms: C_3  and  C_4
REMARK    4  A    between atoms: C_11  and  C_12
REMARK    5  A    between atoms: C_14  and  O_15
REMARK    6  A    between atoms: O_15  and  C_16
REMARK    7  A    between atoms: C_16  and  C_17
REMARK    8  A    between atoms: N_19  and  C_20
REMARK    9  A    between atoms: C_20  and  C_21
REMARK   10  A    between atoms: C_21  and  C_22
REMARK   11  A    between atoms: C_22  and  N_23
REMARK                            x       y       z     vdW  Elec       q    Type
REMARK                         _______ _______ _______ _____ _____    ______ ____
ROOT
ATOM      1  C   UNL     1       1.994   5.497  20.376  0.00  0.00    +0.000 A 
ATOM      2  C   UNL     1       1.958   4.539  21.316  0.00  0.00    +0.000 A 
ATOM      3  C   UNL     1       2.675   3.266  21.231  0.00  0.00    +0.000 A 
ATOM      4  O   UNL     1       2.538   2.406  22.091  0.00  0.00    +0.000 OA
ATOM      5  O   UNL     1       3.486   3.100  20.131  0.00  0.00    +0.000 OA
ATOM      6  C   UNL     1       3.592   4.095  19.137  0.00  0.00    +0.000 A 
ATOM      7  C   UNL     1       4.468   3.772  18.098  0.00  0.00    +0.000 A 
ATOM      8  C   UNL     1       4.660   4.671  17.057  0.00  0.00    +0.000 A 
ATOM      9  C   UNL     1       5.596   4.350  15.931  0.00  0.00    +0.000 C 
ATOM     10  C   UNL     1       3.952   5.881  17.072  0.00  0.00    +0.000 A 
ATOM     11  C   UNL     1       3.057   6.201  18.115  0.00  0.00    +0.000 A 
ATOM     12  C   UNL     1       2.868   5.299  19.190  0.00  0.00    +0.000 A 
ENDROOT
BRANCH   1  13
ATOM     13  C   UNL     1       1.139   6.727  20.589  0.00  0.00    +0.000 C 
BRANCH  13  15
ATOM     14  C   UNL     1       0.939   8.708  22.193  0.00  0.00    +0.000 C 
ATOM     15  C   UNL     1       1.867   7.858  21.330  0.00  0.00    +0.000 C 
ENDBRANCH  13  15
ENDBRANCH   1  13
BRANCH  11  16
ATOM     16  O   UNL     1       2.325   7.361  18.120  0.00  0.00    +0.000 OA
BRANCH  16  17
ATOM     17  C   UNL     1       2.930   8.562  17.660  0.00  0.00    +0.000 C 
BRANCH  17  18
ATOM     18  C   UNL     1       1.958   9.714  17.905  0.00  0.00    +0.000 C 
ATOM     19  O   UNL     1       2.326  10.885  17.949  0.00  0.00    +0.000 OA
ATOM     20  N   UNL     1       0.642   9.325  18.070  0.00  0.00    +0.000 N 
ATOM     21  H   UNL     1       0.414   8.339  18.034  0.00  0.00    +0.000 HD
BRANCH  20  22
ATOM     22  C   UNL     1      -0.434  10.274  18.294  0.00  0.00    +0.000 C 
BRANCH  22  23
ATOM     23  C   UNL     1      -0.712  10.438  19.784  0.00  0.00    +0.000 C 
BRANCH  23  24
ATOM     24  C   UNL     1      -0.765  11.910  20.177  0.00  0.00    +0.000 C 
BRANCH  24  25
ATOM     25  N   UNL     1      -1.761  12.153  21.204  0.00  0.00    +0.000 N 
ATOM     26  C   UNL     1      -3.109  12.563  20.902  0.00  0.00    +0.000 C 
ATOM     27  C   UNL     1      -3.643  13.027  22.244  0.00  0.00    +0.000 C 
ATOM     28  C   UNL     1      -2.875  12.188  23.258  0.00  0.00    +0.000 C 
ATOM     29  C   UNL     1      -1.564  11.925  22.558  0.00  0.00    +0.000 C 
ATOM     30  O   UNL     1      -0.539  11.535  23.089  0.00  0.00    +0.000 OA
ENDBRANCH  24  25
ENDBRANCH  23  24
ENDBRANCH  22  23
ENDBRANCH  20  22
ENDBRANCH  17  18
ENDBRANCH  16  17
ENDBRANCH  11  16
TORSDOF 9
ENDMDL
MODEL 6
REMARK VINA RESULT:      -6.9      1.456      1.825
REMARK  Name = 
REMARK  11 active torsions:
REMARK  status: ('A' for Active; 'I' for Inactive)
REMARK    1  A    between atoms: C_1  and  C_2
REMARK    2  A    between atoms: C_2  and  C_3
REMARK    3  A    between atoms: C_3  and  C_4
REMARK    4  A    between atoms: C_11  and  C_12
REMARK    5  A    between atoms: C_14  and  O_15
REMARK    6  A    between atoms: O_15  and  C_16
REMARK    7  A    between atoms: C_16  and  C_17
REMARK    8  A    between atoms: N_19  and  C_20
REMARK    9  A    between atoms: C_20  and  C_21
REMARK   10  A    between atoms: C_21  and  C_22
REMARK   11  A    between atoms: C_22  and  N_23
REMARK                            x       y       z     vdW  Elec       q    Type
REMARK                         _______ _______ _______ _____ _____    ______ ____
ROOT
ATOM      1  C   UNL     1      -0.993  11.471  20.747  0.00  0.00    +0.000 A 
ATOM      2  C   UNL     1      -1.760  12.301  21.471  0.00  0.00    +0.000 A 
ATOM      3  C   UNL     1      -2.983  12.939  20.981  0.00  0.00    +0.000 A 
ATOM      4  O   UNL     1      -3.595  13.744  21.670  0.00  0.00    +0.000 OA
ATOM      5  O   UNL     1      -3.382  12.589  19.711  0.00  0.00    +0.000 OA
ATOM      6  C   UNL     1      -2.632  11.688  18.926  0.00  0.00    +0.000 A 
ATOM      7  C   UNL     1      -3.185  11.431  17.669  0.00  0.00    +0.000 A 
ATOM      8  C   UNL     1      -2.541  10.559  16.800  0.00  0.00    +0.000 A 
ATOM      9  C   UNL     1      -3.114  10.264  15.446  0.00  0.00    +0.000 C 
ATOM     10  C   UNL     1      -1.339   9.966  17.210  0.00  0.00    +0.000 A 
ATOM     11  C   UNL     1      -0.774  10.235  18.475  0.00  0.00    +0.000 A 
ATOM     12  C   UNL     1      -1.432  11.110  19.374  0.00  0.00    +0.000 A 
ENDROOT
BRANCH   1  13
ATOM     13  C   UNL     1       0.277  10.949  21.383  0.00  0.00    +0.000 C 
BRANCH  13  15
ATOM     14  C   UNL     1      -0.399   8.542  21.917  0.00  0.00    +0.000 C 
ATOM     15  C   UNL     1       0.030   9.897  22.473  0.00  0.00    +0.000 C 
ENDBRANCH  13  15
ENDBRANCH   1  13
BRANCH  11  16
ATOM     16  O   UNL     1       0.424   9.697  18.870  0.00  0.00    +0.000 OA
BRANCH  16  17
ATOM     17  C   UNL     1       1.396   9.377  17.884  0.00  0.00    +0.000 C 
BRANCH  17  18
ATOM     18  C   UNL     1       2.306   8.285  18.443  0.00  0.00    +0.000 C 
ATOM     19  O   UNL     1       2.149   7.810  19.565  0.00  0.00    +0.000 OA
ATOM     20  N   UNL     1       3.311   7.884  17.582  0.00  0.00    +0.000 N 
ATOM     21  H   UNL     1       3.386   8.330  16.676  0.00  0.00    +0.000 HD
BRANCH  20  22
ATOM     22  C   UNL     1       4.266   6.845  17.922  0.00  0.00    +0.000 C 
BRANCH  22  23
ATOM     23  C   UNL     1       4.018   5.588  17.095  0.00  0.00    +0.000 C 
BRANCH  23  24
ATOM     24  C   UNL     1       2.800   4.825  17.602  0.00  0.00    +0.000 C 
BRANCH  24  25
ATOM     25  N   UNL     1       3.185   3.669  18.392  0.00  0.00    +0.000 N 
ATOM     26  C   UNL     1       3.643   2.439  17.799  0.00  0.00    +0.000 C 
ATOM     27  C   UNL     1       3.577   1.450  18.948  0.00  0.00    +0.000 C 
ATOM     28  C   UNL     1       3.805   2.308  20.187  0.00  0.00    +0.000 C 
ATOM     29  C   UNL     1       3.251   3.651  19.776  0.00  0.00    +0.000 C 
ATOM     30  O   UNL     1       2.965   4.564  20.531  0.00  0.00    +0.000 OA
ENDBRANCH  24  25
ENDBRANCH  23  24
ENDBRANCH  22  23
ENDBRANCH  20  22
ENDBRANCH  17  18
ENDBRANCH  16  17
ENDBRANCH  11  16
TORSDOF 9
ENDMDL
MODEL 7
REMARK VINA RESULT:      -6.9      2.736      3.384
REMARK  Name = 
REMARK  11 active torsions:
REMARK  status: ('A' for Active; 'I' for Inactive)
REMARK    1  A    between atoms: C_1  and  C_2
REMARK    2  A    between atoms: C_2  and  C_3
REMARK    3  A    between atoms: C_3  and  C_4
REMARK    4  A    between atoms: C_11  and  C_12
REMARK    5  A    between atoms: C_14  and  O_15
REMARK    6  A    between atoms: O_15  and  C_16
REMARK    7  A    between atoms: C_16  and  C_17
REMARK    8  A    between atoms: N_19  and  C_20
REMARK    9  A    between atoms: C_20  and  C_21
REMARK   10  A    between atoms: C_21  and  C_22
REMARK   11  A    between atoms: C_22  and  N_23
REMARK                            x       y       z     vdW  Elec       q    Type
REMARK                         _______ _______ _______ _____ _____    ______ ____
ROOT
ATOM      1  C   UNL     1      -0.405  11.436  20.758  0.00  0.00    +0.000 A 
ATOM      2  C   UNL     1      -1.057  12.362  21.478  0.00  0.00    +0.000 A 
ATOM      3  C   UNL     1      -2.239  13.091  21.016  0.00  0.00    +0.000 A 
ATOM      4  O   UNL     1      -2.740  13.977  21.696  0.00  0.00    +0.000 OA
ATOM      5  O   UNL     1      -2.730  12.729  19.782  0.00  0.00    +0.000 OA
ATOM      6  C   UNL     1      -2.106  11.731  19.005  0.00  0.00    +0.000 A 
ATOM      7  C   UNL     1      -2.741  11.476  17.787  0.00  0.00    +0.000 A 
ATOM      8  C   UNL     1      -2.223  10.513  16.931  0.00  0.00    +0.000 A 
ATOM      9  C   UNL     1      -2.887  10.219  15.619  0.00  0.00    +0.000 C 
ATOM     10  C   UNL     1      -1.061   9.827  17.312  0.00  0.00    +0.000 A 
ATOM     11  C   UNL     1      -0.413  10.093  18.537  0.00  0.00    +0.000 A 
ATOM     12  C   UNL     1      -0.943  11.062  19.424  0.00  0.00    +0.000 A 
ENDROOT
BRANCH   1  13
ATOM     13  C   UNL     1       0.841  10.824  21.359  0.00  0.00    +0.000 C 
BRANCH  13  15
ATOM     14  C   UNL     1      -0.177   9.600  23.359  0.00  0.00    +0.000 C 
ATOM     15  C   UNL     1       0.592   9.475  22.047  0.00  0.00    +0.000 C 
ENDBRANCH  13  15
ENDBRANCH   1  13
BRANCH  11  16
ATOM     16  O   UNL     1       0.749   9.463  18.901  0.00  0.00    +0.000 OA
BRANCH  16  17
ATOM     17  C   UNL     1       1.630   8.997  17.887  0.00  0.00    +0.000 C 
BRANCH  17  18
ATOM     18  C   UNL     1       2.430   7.823  18.447  0.00  0.00    +0.000 C 
ATOM     19  O   UNL     1       2.348   7.474  19.621  0.00  0.00    +0.000 OA
ATOM     20  N   UNL     1       3.247   7.198  17.524  0.00  0.00    +0.000 N 
ATOM     21  H   UNL     1       3.273   7.551  16.575  0.00  0.00    +0.000 HD
BRANCH  20  22
ATOM     22  C   UNL     1       4.073   6.052  17.857  0.00  0.00    +0.000 C 
BRANCH  22  23
ATOM     23  C   UNL     1       4.523   5.322  16.597  0.00  0.00    +0.000 C 
BRANCH  23  24
ATOM     24  C   UNL     1       5.875   5.834  16.115  0.00  0.00    +0.000 C 
BRANCH  24  25
ATOM     25  N   UNL     1       6.792   6.043  17.220  0.00  0.00    +0.000 N 
ATOM     26  C   UNL     1       7.318   4.960  18.011  0.00  0.00    +0.000 C 
ATOM     27  C   UNL     1       7.909   5.663  19.219  0.00  0.00    +0.000 C 
ATOM     28  C   UNL     1       8.319   7.030  18.687  0.00  0.00    +0.000 C 
ATOM     29  C   UNL     1       7.333   7.271  17.570  0.00  0.00    +0.000 C 
ATOM     30  O   UNL     1       7.099   8.346  17.046  0.00  0.00    +0.000 OA
ENDBRANCH  24  25
ENDBRANCH  23  24
ENDBRANCH  22  23
ENDBRANCH  20  22
ENDBRANCH  17  18
ENDBRANCH  16  17
ENDBRANCH  11  16
TORSDOF 9
ENDMDL
MODEL 8
REMARK VINA RESULT:      -6.9      1.674      3.935
REMARK  Name = 
REMARK  11 active torsions:
REMARK  status: ('A' for Active; 'I' for Inactive)
REMARK    1  A    between atoms: C_1  and  C_2
REMARK    2  A    between atoms: C_2  and  C_3
REMARK    3  A    between atoms: C_3  and  C_4
REMARK    4  A    between atoms: C_11  and  C_12
REMARK    5  A    between atoms: C_14  and  O_15
REMARK    6  A    between atoms: O_15  and  C_16
REMARK    7  A    between atoms: C_16  and  C_17
REMARK    8  A    between atoms: N_19  and  C_20
REMARK    9  A    between atoms: C_20  and  C_21
REMARK   10  A    between atoms: C_21  and  C_22
REMARK   11  A    between atoms: C_22  and  N_23
REMARK                            x       y       z     vdW  Elec       q    Type
REMARK                         _______ _______ _______ _____ _____    ______ ____
ROOT
ATOM      1  C   UNL     1      -3.667  10.965  17.558  0.00  0.00    +0.000 A 
ATOM      2  C   UNL     1      -4.940  11.289  17.283  0.00  0.00    +0.000 A 
ATOM      3  C   UNL     1      -5.780  12.140  18.127  0.00  0.00    +0.000 A 
ATOM      4  O   UNL     1      -6.957  12.335  17.854  0.00  0.00    +0.000 OA
ATOM      5  O   UNL     1      -5.171  12.685  19.234  0.00  0.00    +0.000 OA
ATOM      6  C   UNL     1      -3.822  12.410  19.543  0.00  0.00    +0.000 A 
ATOM      7  C   UNL     1      -3.357  13.054  20.692  0.00  0.00    +0.000 A 
ATOM      8  C   UNL     1      -2.044  12.865  21.103  0.00  0.00    +0.000 A 
ATOM      9  C   UNL     1      -1.520  13.546  22.331  0.00  0.00    +0.000 C 
ATOM     10  C   UNL     1      -1.220  12.014  20.352  0.00  0.00    +0.000 A 
ATOM     11  C   UNL     1      -1.693  11.354  19.198  0.00  0.00    +0.000 A 
ATOM     12  C   UNL     1      -3.026  11.554  18.762  0.00  0.00    +0.000 A 
ENDROOT
BRANCH   1  13
ATOM     13  C   UNL     1      -2.960  10.018  16.613  0.00  0.00    +0.000 C 
BRANCH  13  15
ATOM     14  C   UNL     1      -3.578   9.989  14.132  0.00  0.00    +0.000 C 
ATOM     15  C   UNL     1      -2.710  10.613  15.220  0.00  0.00    +0.000 C 
ENDBRANCH  13  15
ENDBRANCH   1  13
BRANCH  11  16
ATOM     16  O   UNL     1      -0.911  10.485  18.481  0.00  0.00    +0.000 OA
BRANCH  16  17
ATOM     17  C   UNL     1       0.483  10.738  18.374  0.00  0.00    +0.000 C 
BRANCH  17  18
ATOM     18  C   UNL     1       1.235   9.525  18.919  0.00  0.00    +0.000 C 
ATOM     19  O   UNL     1       1.122   9.153  20.084  0.00  0.00    +0.000 OA
ATOM     20  N   UNL     1       2.045   8.893  17.995  0.00  0.00    +0.000 N 
ATOM     21  H   UNL     1       2.098   9.265  17.055  0.00  0.00    +0.000 HD
BRANCH  20  22
ATOM     22  C   UNL     1       2.826   7.712  18.315  0.00  0.00    +0.000 C 
BRANCH  22  23
ATOM     23  C   UNL     1       2.118   6.448  17.841  0.00  0.00    +0.000 C 
BRANCH  23  24
ATOM     24  C   UNL     1       2.964   5.208  18.109  0.00  0.00    +0.000 C 
BRANCH  24  25
ATOM     25  N   UNL     1       2.277   4.272  18.981  0.00  0.00    +0.000 N 
ATOM     26  C   UNL     1       1.572   4.687  20.167  0.00  0.00    +0.000 C 
ATOM     27  C   UNL     1       1.344   3.384  20.912  0.00  0.00    +0.000 C 
ATOM     28  C   UNL     1       1.263   2.337  19.808  0.00  0.00    +0.000 C 
ATOM     29  C   UNL     1       2.138   2.917  18.724  0.00  0.00    +0.000 C 
ATOM     30  O   UNL     1       2.593   2.306  17.772  0.00  0.00    +0.000 OA
ENDBRANCH  24  25
ENDBRANCH  23  24
ENDBRANCH  22  23
ENDBRANCH  20  22
ENDBRANCH  17  18
ENDBRANCH  16  17
ENDBRANCH  11  16
TORSDOF 9
ENDMDL
MODEL 9
REMARK VINA RESULT:      -6.9      1.648      3.893
REMARK  Name = 
REMARK  11 active torsions:
REMARK  status: ('A' for Active; 'I' for Inactive)
REMARK    1  A    between atoms: C_1  and  C_2
REMARK    2  A    between atoms: C_2  and  C_3
REMARK    3  A    between atoms: C_3  and  C_4
REMARK    4  A    between atoms: C_11  and  C_12
REMARK    5  A    between atoms: C_14  and  O_15
REMARK    6  A    between atoms: O_15  and  C_16
REMARK    7  A    between atoms: C_16  and  C_17
REMARK    8  A    between atoms: N_19  and  C_20
REMARK    9  A    between atoms: C_20  and  C_21
REMARK   10  A    between atoms: C_21  and  C_22
REMARK   11  A    between atoms: C_22  and  N_23
REMARK                            x       y       z     vdW  Elec       q    Type
REMARK                         _______ _______ _______ _____ _____    ______ ____
ROOT
ATOM      1  C   UNL     1      -3.742  11.025  17.841  0.00  0.00    +0.000 A 
ATOM      2  C   UNL     1      -5.054  11.156  17.592  0.00  0.00    +0.000 A 
ATOM      3  C   UNL     1      -5.985  11.914  18.429  0.00  0.00    +0.000 A 
ATOM      4  O   UNL     1      -7.184  11.931  18.184  0.00  0.00    +0.000 OA
ATOM      5  O   UNL     1      -5.433  12.582  19.498  0.00  0.00    +0.000 OA
ATOM      6  C   UNL     1      -4.052  12.511  19.777  0.00  0.00    +0.000 A 
ATOM      7  C   UNL     1      -3.656  13.259  20.888  0.00  0.00    +0.000 A 
ATOM      8  C   UNL     1      -2.319  13.272  21.267  0.00  0.00    +0.000 A 
ATOM      9  C   UNL     1      -1.867  14.067  22.454  0.00  0.00    +0.000 C 
ATOM     10  C   UNL     1      -1.401  12.516  20.524  0.00  0.00    +0.000 A 
ATOM     11  C   UNL     1      -1.804  11.751  19.408  0.00  0.00    +0.000 A 
ATOM     12  C   UNL     1      -3.162  11.745  19.005  0.00  0.00    +0.000 A 
ENDROOT
BRANCH   1  13
ATOM     13  C   UNL     1      -2.931  10.149  16.911  0.00  0.00    +0.000 C 
BRANCH  13  15
ATOM     14  C   UNL     1      -3.468  10.059  14.413  0.00  0.00    +0.000 C 
ATOM     15  C   UNL     1      -2.704  10.771  15.526  0.00  0.00    +0.000 C 
ENDBRANCH  13  15
ENDBRANCH   1  13
BRANCH  11  16
ATOM     16  O   UNL     1      -0.925  10.972  18.700  0.00  0.00    +0.000 OA
BRANCH  16  17
ATOM     17  C   UNL     1      -0.073  10.078  19.403  0.00  0.00    +0.000 C 
BRANCH  17  18
ATOM     18  C   UNL     1       1.230   9.938  18.619  0.00  0.00    +0.000 C 
ATOM     19  O   UNL     1       1.882  10.911  18.251  0.00  0.00    +0.000 OA
ATOM     20  N   UNL     1       1.603   8.632  18.362  0.00  0.00    +0.000 N 
ATOM     21  H   UNL     1       1.008   7.880  18.685  0.00  0.00    +0.000 HD
BRANCH  20  22
ATOM     22  C   UNL     1       2.819   8.290  17.646  0.00  0.00    +0.000 C 
BRANCH  22  23
ATOM     23  C   UNL     1       3.419   6.995  18.182  0.00  0.00    +0.000 C 
BRANCH  23  24
ATOM     24  C   UNL     1       2.446   6.277  19.110  0.00  0.00    +0.000 C 
BRANCH  24  25
ATOM     25  N   UNL     1       2.296   4.880  18.748  0.00  0.00    +0.000 N 
ATOM     26  C   UNL     1       3.080   4.255  17.714  0.00  0.00    +0.000 C 
ATOM     27  C   UNL     1       2.347   2.952  17.457  0.00  0.00    +0.000 C 
ATOM     28  C   UNL     1       1.700   2.622  18.797  0.00  0.00    +0.000 C 
ATOM     29  C   UNL     1       1.471   3.982  19.408  0.00  0.00    +0.000 C 
ATOM     30  O   UNL     1       0.731   4.227  20.346  0.00  0.00    +0.000 OA
ENDBRANCH  24  25
ENDBRANCH  23  24
ENDBRANCH  22  23
ENDBRANCH  20  22
ENDBRANCH  17  18
ENDBRANCH  16  17
ENDBRANCH  11  16
TORSDOF 9
ENDMDL
