MODEL 1
REMARK VINA RESULT:      -7.5      0.000      0.000
REMARK  Name = 
REMARK  13 active torsions:
REMARK  status: ('A' for Active; 'I' for Inactive)
REMARK    1  A    between atoms: C_1  and  C_2
REMARK    2  A    between atoms: C_2  and  C_3
REMARK    3  A    between atoms: C_3  and  C_4
REMARK    4  A    between atoms: C_4  and  C_6
REMARK    5  A    between atoms: N_12  and  C_13
REMARK    6  A    between atoms: C_13  and  C_14
REMARK    7  A    between atoms: C_14  and  C_15
REMARK    8  A    between atoms: C_15  and  C_16
REMARK    9  A    between atoms: C_16  and  N_17
REMARK   10  A    between atoms: C_18  and  C_19
REMARK   11  A    between atoms: C_18  and  C_20
REMARK   12  A    between atoms: C_20  and  C_21
REMARK   13  A    between atoms: C_21  and  C_23
REMARK                            x       y       z     vdW  Elec       q    Type
REMARK                         _______ _______ _______ _____ _____    ______ ____
ROOT
ATOM      1  C   UNL     1       3.329   7.276  17.672  0.00  0.00    +0.000 C 
ENDROOT
BRANCH   1   2
ATOM      2  C   UNL     1       4.000   6.124  18.411  0.00  0.00    +0.000 C 
BRANCH   2   5
ATOM      3  C   UNL     1       6.083   4.098  16.074  0.00  0.00    +0.000 C 
ATOM      4  C   UNL     1       4.906   4.523  16.922  0.00  0.00    +0.000 C 
ATOM      5  N   UNL     1       5.078   5.619  17.581  0.00  0.00    +0.000 NA
BRANCH   4   6
ATOM      6  C   UNL     1       3.616   3.714  16.882  0.00  0.00    +0.000 C 
BRANCH   6   7
ATOM      7  C   UNL     1       3.493   2.593  17.889  0.00  0.00    +0.000 C 
ATOM      8  O   UNL     1       3.937   1.466  17.686  0.00  0.00    +0.000 OA
BRANCH   7   9
ATOM      9  C   UNL     1       2.719   2.865  19.145  0.00  0.00    +0.000 A 
ATOM     10  C   UNL     1       3.335   2.563  20.366  0.00  0.00    +0.000 A 
ATOM     11  C   UNL     1       2.618   2.650  21.562  0.00  0.00    +0.000 A 
ATOM     12  C   UNL     1       1.290   3.071  21.551  0.00  0.00    +0.000 A 
ATOM     13  C   UNL     1       0.688   3.438  20.348  0.00  0.00    +0.000 A 
ATOM     14  C   UNL     1       1.398   3.336  19.145  0.00  0.00    +0.000 A 
ENDBRANCH   7   9
ENDBRANCH   6   7
ENDBRANCH   4   6
ENDBRANCH   2   5
ENDBRANCH   1   2
BRANCH   1  15
ATOM     15  C   UNL     1       2.327   8.014  18.557  0.00  0.00    +0.000 C 
BRANCH  15  16
ATOM     16  C   UNL     1       1.518   9.038  17.768  0.00  0.00    +0.000 C 
BRANCH  16  17
ATOM     17  N   UNL     1       1.821  10.361  18.289  0.00  0.00    +0.000 NA
ATOM     18  C   UNL     1       0.936  10.949  19.022  0.00  0.00    +0.000 C 
ATOM     19  C   UNL     1       1.281  12.332  19.516  0.00  0.00    +0.000 C 
BRANCH  18  20
ATOM     20  C   UNL     1      -0.389  10.351  19.456  0.00  0.00    +0.000 C 
BRANCH  20  21
ATOM     21  C   UNL     1      -1.608  11.218  19.226  0.00  0.00    +0.000 C 
ATOM     22  O   UNL     1      -1.976  12.078  20.013  0.00  0.00    +0.000 OA
BRANCH  21  23
ATOM     23  C   UNL     1      -2.425  10.938  17.998  0.00  0.00    +0.000 A 
ATOM     24  C   UNL     1      -1.905  10.058  17.041  0.00  0.00    +0.000 A 
ATOM     25  C   UNL     1      -2.587   9.838  15.840  0.00  0.00    +0.000 A 
ATOM     26  C   UNL     1      -3.802  10.473  15.602  0.00  0.00    +0.000 A 
ATOM     27  C   UNL     1      -4.349  11.317  16.565  0.00  0.00    +0.000 A 
ATOM     28  C   UNL     1      -3.662  11.552  17.760  0.00  0.00    +0.000 A 
ENDBRANCH  21  23
ENDBRANCH  20  21
ENDBRANCH  18  20
ENDBRANCH  16  17
ENDBRANCH  15  16
ENDBRANCH   1  15
TORSDOF 11
ENDMDL
MODEL 2
REMARK VINA RESULT:      -7.3      6.993     10.809
REMARK  Name = 
REMARK  13 active torsions:
REMARK  status: ('A' for Active; 'I' for Inactive)
REMARK    1  A    between atoms: C_1  and  C_2
REMARK    2  A    between atoms: C_2  and  C_3
REMARK    3  A    between atoms: C_3  and  C_4
REMARK    4  A    between atoms: C_4  and  C_6
REMARK    5  A    between atoms: N_12  and  C_13
REMARK    6  A    between atoms: C_13  and  C_14
REMARK    7  A    between atoms: C_14  and  C_15
REMARK    8  A    between atoms: C_15  and  C_16
REMARK    9  A    between atoms: C_16  and  N_17
REMARK   10  A    between atoms: C_18  and  C_19
REMARK   11  A    between atoms: C_18  and  C_20
REMARK   12  A    between atoms: C_20  and  C_21
REMARK   13  A    between atoms: C_21  and  C_23
REMARK                            x       y       z     vdW  Elec       q    Type
REMARK                         _______ _______ _______ _____ _____    ______ ____
ROOT
ATOM      1  C   UNL     1       8.206   8.656  18.575  0.00  0.00    +0.000 C 
ENDROOT
BRANCH   1   2
ATOM      2  C   UNL     1       8.761   9.981  18.066  0.00  0.00    +0.000 C 
BRANCH   2   5
ATOM      3  C   UNL     1      11.342  11.982  19.865  0.00  0.00    +0.000 C 
ATOM      4  C   UNL     1      10.309  11.600  18.829  0.00  0.00    +0.000 C 
ATOM      5  N   UNL     1       9.778  10.436  18.996  0.00  0.00    +0.000 NA
BRANCH   4   6
ATOM      6  C   UNL     1       9.916  12.600  17.750  0.00  0.00    +0.000 C 
BRANCH   6   7
ATOM      7  C   UNL     1      11.001  13.541  17.278  0.00  0.00    +0.000 C 
ATOM      8  O   UNL     1      11.980  13.162  16.641  0.00  0.00    +0.000 OA
BRANCH   7   9
ATOM      9  C   UNL     1      10.903  14.981  17.690  0.00  0.00    +0.000 A 
ATOM     10  C   UNL     1       9.997  15.305  18.708  0.00  0.00    +0.000 A 
ATOM     11  C   UNL     1       9.748  16.641  19.036  0.00  0.00    +0.000 A 
ATOM     12  C   UNL     1      10.426  17.661  18.372  0.00  0.00    +0.000 A 
ATOM     13  C   UNL     1      11.379  17.345  17.404  0.00  0.00    +0.000 A 
ATOM     14  C   UNL     1      11.620  16.009  17.061  0.00  0.00    +0.000 A 
ENDBRANCH   7   9
ENDBRANCH   6   7
ENDBRANCH   4   6
ENDBRANCH   2   5
ENDBRANCH   1   2
BRANCH   1  15
ATOM     15  C   UNL     1       7.874   7.699  17.433  0.00  0.00    +0.000 C 
BRANCH  15  16
ATOM     16  C   UNL     1       7.648   6.275  17.930  0.00  0.00    +0.000 C 
BRANCH  16  17
ATOM     17  N   UNL     1       6.852   5.566  16.941  0.00  0.00    +0.000 NA
ATOM     18  C   UNL     1       5.631   5.267  17.237  0.00  0.00    +0.000 C 
ATOM     19  C   UNL     1       4.852   4.505  16.192  0.00  0.00    +0.000 C 
BRANCH  18  20
ATOM     20  C   UNL     1       4.914   5.651  18.517  0.00  0.00    +0.000 C 
BRANCH  20  21
ATOM     21  C   UNL     1       3.441   5.970  18.373  0.00  0.00    +0.000 C 
ATOM     22  O   UNL     1       3.026   7.022  17.909  0.00  0.00    +0.000 OA
BRANCH  21  23
ATOM     23  C   UNL     1       2.467   4.956  18.900  0.00  0.00    +0.000 A 
ATOM     24  C   UNL     1       2.260   4.893  20.283  0.00  0.00    +0.000 A 
ATOM     25  C   UNL     1       1.432   3.905  20.828  0.00  0.00    +0.000 A 
ATOM     26  C   UNL     1       0.788   2.996  19.993  0.00  0.00    +0.000 A 
ATOM     27  C   UNL     1       0.955   3.077  18.612  0.00  0.00    +0.000 A 
ATOM     28  C   UNL     1       1.794   4.054  18.066  0.00  0.00    +0.000 A 
ENDBRANCH  21  23
ENDBRANCH  20  21
ENDBRANCH  18  20
ENDBRANCH  16  17
ENDBRANCH  15  16
ENDBRANCH   1  15
TORSDOF 11
ENDMDL
MODEL 3
REMARK VINA RESULT:      -7.3      1.430      9.327
REMARK  Name = 
REMARK  13 active torsions:
REMARK  status: ('A' for Active; 'I' for Inactive)
REMARK    1  A    between atoms: C_1  and  C_2
REMARK    2  A    between atoms: C_2  and  C_3
REMARK    3  A    between atoms: C_3  and  C_4
REMARK    4  A    between atoms: C_4  and  C_6
REMARK    5  A    between atoms: N_12  and  C_13
REMARK    6  A    between atoms: C_13  and  C_14
REMARK    7  A    between atoms: C_14  and  C_15
REMARK    8  A    between atoms: C_15  and  C_16
REMARK    9  A    between atoms: C_16  and  N_17
REMARK   10  A    between atoms: C_18  and  C_19
REMARK   11  A    between atoms: C_18  and  C_20
REMARK   12  A    between atoms: C_20  and  C_21
REMARK   13  A    between atoms: C_21  and  C_23
REMARK                            x       y       z     vdW  Elec       q    Type
REMARK                         _______ _______ _______ _____ _____    ______ ____
ROOT
ATOM      1  C   UNL     1       2.279   8.010  18.338  0.00  0.00    +0.000 C 
ENDROOT
BRANCH   1   2
ATOM      2  C   UNL     1       1.299   9.176  18.406  0.00  0.00    +0.000 C 
BRANCH   2   5
ATOM      3  C   UNL     1      -0.232  10.416  21.572  0.00  0.00    +0.000 C 
ATOM      4  C   UNL     1       0.190  10.372  20.121  0.00  0.00    +0.000 C 
ATOM      5  N   UNL     1       0.864   9.325  19.782  0.00  0.00    +0.000 NA
BRANCH   4   6
ATOM      6  C   UNL     1      -0.259  11.474  19.171  0.00  0.00    +0.000 C 
BRANCH   6   7
ATOM      7  C   UNL     1      -1.739  11.780  19.147  0.00  0.00    +0.000 C 
ATOM      8  O   UNL     1      -2.313  12.364  20.063  0.00  0.00    +0.000 OA
BRANCH   7   9
ATOM      9  C   UNL     1      -2.539  11.266  17.986  0.00  0.00    +0.000 A 
ATOM     10  C   UNL     1      -1.934  10.323  17.147  0.00  0.00    +0.000 A 
ATOM     11  C   UNL     1      -2.564   9.915  15.967  0.00  0.00    +0.000 A 
ATOM     12  C   UNL     1      -3.818  10.423  15.635  0.00  0.00    +0.000 A 
ATOM     13  C   UNL     1      -4.459  11.312  16.498  0.00  0.00    +0.000 A 
ATOM     14  C   UNL     1      -3.824  11.735  17.672  0.00  0.00    +0.000 A 
ENDBRANCH   7   9
ENDBRANCH   6   7
ENDBRANCH   4   6
ENDBRANCH   2   5
ENDBRANCH   1   2
BRANCH   1  15
ATOM     15  C   UNL     1       2.370   7.262  19.666  0.00  0.00    +0.000 C 
BRANCH  15  16
ATOM     16  C   UNL     1       3.071   5.917  19.514  0.00  0.00    +0.000 C 
BRANCH  16  17
ATOM     17  N   UNL     1       2.129   4.867  19.869  0.00  0.00    +0.000 NA
ATOM     18  C   UNL     1       1.805   4.004  18.964  0.00  0.00    +0.000 C 
ATOM     19  C   UNL     1       0.803   2.950  19.367  0.00  0.00    +0.000 C 
BRANCH  18  20
ATOM     20  C   UNL     1       2.375   3.940  17.560  0.00  0.00    +0.000 C 
BRANCH  20  21
ATOM     21  C   UNL     1       3.679   3.187  17.415  0.00  0.00    +0.000 C 
ATOM     22  O   UNL     1       3.821   2.022  17.755  0.00  0.00    +0.000 OA
BRANCH  21  23
ATOM     23  C   UNL     1       4.858   3.955  16.890  0.00  0.00    +0.000 A 
ATOM     24  C   UNL     1       4.853   4.340  15.544  0.00  0.00    +0.000 A 
ATOM     25  C   UNL     1       5.968   4.976  14.988  0.00  0.00    +0.000 A 
ATOM     26  C   UNL     1       7.079   5.253  15.778  0.00  0.00    +0.000 A 
ATOM     27  C   UNL     1       7.078   4.911  17.128  0.00  0.00    +0.000 A 
ATOM     28  C   UNL     1       5.971   4.262  17.684  0.00  0.00    +0.000 A 
ENDBRANCH  21  23
ENDBRANCH  20  21
ENDBRANCH  18  20
ENDBRANCH  16  17
ENDBRANCH  15  16
ENDBRANCH   1  15
TORSDOF 11
ENDMDL
MODEL 4
REMARK VINA RESULT:      -7.2      2.375      9.118
REMARK  Name = 
REMARK  13 active torsions:
REMARK  status: ('A' for Active; 'I' for Inactive)
REMARK    1  A    between atoms: C_1  and  C_2
REMARK    2  A    between atoms: C_2  and  C_3
REMARK    3  A    between atoms: C_3  and  C_4
REMARK    4  A    between atoms: C_4  and  C_6
REMARK    5  A    between atoms: N_12  and  C_13
REMARK    6  A    between atoms: C_13  and  C_14
REMARK    7  A    between atoms: C_14  and  C_15
REMARK    8  A    between atoms: C_15  and  C_16
REMARK    9  A    between atoms: C_16  and  N_17
REMARK   10  A    between atoms: C_18  and  C_19
REMARK   11  A    between atoms: C_18  and  C_20
REMARK   12  A    between atoms: C_20  and  C_21
REMARK   13  A    between atoms: C_21  and  C_23
REMARK                            x       y       z     vdW  Elec       q    Type
REMARK                         _______ _______ _______ _____ _____    ______ ____
ROOT
ATOM      1  C   UNL     1       2.942   8.117  17.719  0.00  0.00    +0.000 C 
ENDROOT
BRANCH   1   2
ATOM      2  C   UNL     1       1.643   8.868  17.986  0.00  0.00    +0.000 C 
BRANCH   2   5
ATOM      3  C   UNL     1       1.598  12.514  18.761  0.00  0.00    +0.000 C 
ATOM      4  C   UNL     1       1.186  11.060  18.751  0.00  0.00    +0.000 C 
ATOM      5  N   UNL     1       1.941  10.286  18.046  0.00  0.00    +0.000 NA
BRANCH   4   6
ATOM      6  C   UNL     1       0.008  10.603  19.602  0.00  0.00    +0.000 C 
BRANCH   6   7
ATOM      7  C   UNL     1       0.003  11.059  21.043  0.00  0.00    +0.000 C 
ATOM      8  O   UNL     1       0.928  10.829  21.817  0.00  0.00    +0.000 OA
BRANCH   7   9
ATOM      9  C   UNL     1      -1.230  11.744  21.553  0.00  0.00    +0.000 A 
ATOM     10  C   UNL     1      -1.558  11.572  22.904  0.00  0.00    +0.000 A 
ATOM     11  C   UNL     1      -2.768  12.056  23.408  0.00  0.00    +0.000 A 
ATOM     12  C   UNL     1      -3.645  12.746  22.574  0.00  0.00    +0.000 A 
ATOM     13  C   UNL     1      -3.298  12.981  21.244  0.00  0.00    +0.000 A 
ATOM     14  C   UNL     1      -2.094  12.483  20.731  0.00  0.00    +0.000 A 
ENDBRANCH   7   9
ENDBRANCH   6   7
ENDBRANCH   4   6
ENDBRANCH   2   5
ENDBRANCH   1   2
BRANCH   1  15
ATOM     15  C   UNL     1       3.053   6.849  18.562  0.00  0.00    +0.000 C 
BRANCH  15  16
ATOM     16  C   UNL     1       1.944   5.853  18.241  0.00  0.00    +0.000 C 
BRANCH  16  17
ATOM     17  N   UNL     1       1.645   5.096  19.446  0.00  0.00    +0.000 NA
ATOM     18  C   UNL     1       1.615   3.807  19.368  0.00  0.00    +0.000 C 
ATOM     19  C   UNL     1       1.272   3.064  20.636  0.00  0.00    +0.000 C 
BRANCH  18  20
ATOM     20  C   UNL     1       1.933   2.990  18.130  0.00  0.00    +0.000 C 
BRANCH  20  21
ATOM     21  C   UNL     1       3.356   2.486  18.024  0.00  0.00    +0.000 C 
ATOM     22  O   UNL     1       3.672   1.324  18.232  0.00  0.00    +0.000 OA
BRANCH  21  23
ATOM     23  C   UNL     1       4.420   3.500  17.719  0.00  0.00    +0.000 A 
ATOM     24  C   UNL     1       5.246   3.931  18.765  0.00  0.00    +0.000 A 
ATOM     25  C   UNL     1       6.190   4.940  18.548  0.00  0.00    +0.000 A 
ATOM     26  C   UNL     1       6.332   5.504  17.284  0.00  0.00    +0.000 A 
ATOM     27  C   UNL     1       5.544   5.053  16.227  0.00  0.00    +0.000 A 
ATOM     28  C   UNL     1       4.589   4.055  16.443  0.00  0.00    +0.000 A 
ENDBRANCH  21  23
ENDBRANCH  20  21
ENDBRANCH  18  20
ENDBRANCH  16  17
ENDBRANCH  15  16
ENDBRANCH   1  15
TORSDOF 11
ENDMDL
MODEL 5
REMARK VINA RESULT:      -7.2      2.300      9.024
REMARK  Name = 
REMARK  13 active torsions:
REMARK  status: ('A' for Active; 'I' for Inactive)
REMARK    1  A    between atoms: C_1  and  C_2
REMARK    2  A    between atoms: C_2  and  C_3
REMARK    3  A    between atoms: C_3  and  C_4
REMARK    4  A    between atoms: C_4  and  C_6
REMARK    5  A    between atoms: N_12  and  C_13
REMARK    6  A    between atoms: C_13  and  C_14
REMARK    7  A    between atoms: C_14  and  C_15
REMARK    8  A    between atoms: C_15  and  C_16
REMARK    9  A    between atoms: C_16  and  N_17
REMARK   10  A    between atoms: C_18  and  C_19
REMARK   11  A    between atoms: C_18  and  C_20
REMARK   12  A    between atoms: C_20  and  C_21
REMARK   13  A    between atoms: C_21  and  C_23
REMARK                            x       y       z     vdW  Elec       q    Type
REMARK                         _______ _______ _______ _____ _____    ______ ____
ROOT
ATOM      1  C   UNL     1       2.470   7.186  17.899  0.00  0.00    +0.000 C 
ENDROOT
BRANCH   1   2
ATOM      2  C   UNL     1       2.030   8.503  18.527  0.00  0.00    +0.000 C 
BRANCH   2   5
ATOM      3  C   UNL     1       0.620   8.745  21.970  0.00  0.00    +0.000 C 
ATOM      4  C   UNL     1       0.955   9.117  20.544  0.00  0.00    +0.000 C 
ATOM      5  N   UNL     1       1.670   8.250  19.909  0.00  0.00    +0.000 NA
BRANCH   4   6
ATOM      6  C   UNL     1       0.385  10.395  19.943  0.00  0.00    +0.000 C 
BRANCH   6   7
ATOM      7  C   UNL     1       0.340  11.603  20.851  0.00  0.00    +0.000 C 
ATOM      8  O   UNL     1       1.352  12.186  21.232  0.00  0.00    +0.000 OA
BRANCH   7   9
ATOM      9  C   UNL     1      -0.999  12.040  21.366  0.00  0.00    +0.000 A 
ATOM     10  C   UNL     1      -1.262  11.859  22.730  0.00  0.00    +0.000 A 
ATOM     11  C   UNL     1      -2.537  12.105  23.245  0.00  0.00    +0.000 A 
ATOM     12  C   UNL     1      -3.552  12.564  22.408  0.00  0.00    +0.000 A 
ATOM     13  C   UNL     1      -3.283  12.812  21.062  0.00  0.00    +0.000 A 
ATOM     14  C   UNL     1      -2.010  12.551  20.538  0.00  0.00    +0.000 A 
ENDBRANCH   7   9
ENDBRANCH   6   7
ENDBRANCH   4   6
ENDBRANCH   2   5
ENDBRANCH   1   2
BRANCH   1  15
ATOM     15  C   UNL     1       3.955   7.189  17.545  0.00  0.00    +0.000 C 
BRANCH  15  16
ATOM     16  C   UNL     1       4.689   6.001  18.158  0.00  0.00    +0.000 C 
BRANCH  16  17
ATOM     17  N   UNL     1       5.476   5.362  17.116  0.00  0.00    +0.000 NA
ATOM     18  C   UNL     1       4.982   4.326  16.524  0.00  0.00    +0.000 C 
ATOM     19  C   UNL     1       5.845   3.677  15.470  0.00  0.00    +0.000 C 
BRANCH  18  20
ATOM     20  C   UNL     1       3.604   3.741  16.771  0.00  0.00    +0.000 C 
BRANCH  20  21
ATOM     21  C   UNL     1       3.532   2.652  17.820  0.00  0.00    +0.000 C 
ATOM     22  O   UNL     1       4.001   1.535  17.659  0.00  0.00    +0.000 OA
BRANCH  21  23
ATOM     23  C   UNL     1       2.780   2.965  19.081  0.00  0.00    +0.000 A 
ATOM     24  C   UNL     1       3.325   2.543  20.300  0.00  0.00    +0.000 A 
ATOM     25  C   UNL     1       2.617   2.731  21.492  0.00  0.00    +0.000 A 
ATOM     26  C   UNL     1       1.378   3.365  21.475  0.00  0.00    +0.000 A 
ATOM     27  C   UNL     1       0.846   3.826  20.273  0.00  0.00    +0.000 A 
ATOM     28  C   UNL     1       1.545   3.626  19.078  0.00  0.00    +0.000 A 
ENDBRANCH  21  23
ENDBRANCH  20  21
ENDBRANCH  18  20
ENDBRANCH  16  17
ENDBRANCH  15  16
ENDBRANCH   1  15
TORSDOF 11
ENDMDL
MODEL 6
REMARK VINA RESULT:      -7.2      2.089      8.849
REMARK  Name = 
REMARK  13 active torsions:
REMARK  status: ('A' for Active; 'I' for Inactive)
REMARK    1  A    between atoms: C_1  and  C_2
REMARK    2  A    between atoms: C_2  and  C_3
REMARK    3  A    between atoms: C_3  and  C_4
REMARK    4  A    between atoms: C_4  and  C_6
REMARK    5  A    between atoms: N_12  and  C_13
REMARK    6  A    between atoms: C_13  and  C_14
REMARK    7  A    between atoms: C_14  and  C_15
REMARK    8  A    between atoms: C_15  and  C_16
REMARK    9  A    between atoms: C_16  and  N_17
REMARK   10  A    between atoms: C_18  and  C_19
REMARK   11  A    between atoms: C_18  and  C_20
REMARK   12  A    between atoms: C_20  and  C_21
REMARK   13  A    between atoms: C_21  and  C_23
REMARK                            x       y       z     vdW  Elec       q    Type
REMARK                         _______ _______ _______ _____ _____    ______ ____
ROOT
ATOM      1  C   UNL     1       2.628   6.986  18.372  0.00  0.00    +0.000 C 
ENDROOT
BRANCH   1   2
ATOM      2  C   UNL     1       2.560   8.451  17.958  0.00  0.00    +0.000 C 
BRANCH   2   5
ATOM      3  C   UNL     1      -0.851   9.929  17.681  0.00  0.00    +0.000 C 
ATOM      4  C   UNL     1       0.554   9.686  18.182  0.00  0.00    +0.000 C 
ATOM      5  N   UNL     1       1.196   8.751  17.566  0.00  0.00    +0.000 NA
BRANCH   4   6
ATOM      6  C   UNL     1       1.130  10.575  19.276  0.00  0.00    +0.000 C 
BRANCH   6   7
ATOM      7  C   UNL     1       0.289  11.761  19.691  0.00  0.00    +0.000 C 
ATOM      8  O   UNL     1       0.341  12.846  19.119  0.00  0.00    +0.000 OA
BRANCH   7   9
ATOM      9  C   UNL     1      -0.575  11.611  20.908  0.00  0.00    +0.000 A 
ATOM     10  C   UNL     1      -1.683  12.460  21.027  0.00  0.00    +0.000 A 
ATOM     11  C   UNL     1      -2.440  12.478  22.201  0.00  0.00    +0.000 A 
ATOM     12  C   UNL     1      -2.117  11.623  23.253  0.00  0.00    +0.000 A 
ATOM     13  C   UNL     1      -1.057  10.727  23.119  0.00  0.00    +0.000 A 
ATOM     14  C   UNL     1      -0.285  10.718  21.950  0.00  0.00    +0.000 A 
ENDBRANCH   7   9
ENDBRANCH   6   7
ENDBRANCH   4   6
ENDBRANCH   2   5
ENDBRANCH   1   2
BRANCH   1  15
ATOM     15  C   UNL     1       2.432   6.807  19.876  0.00  0.00    +0.000 C 
BRANCH  15  16
ATOM     16  C   UNL     1       1.360   5.770  20.191  0.00  0.00    +0.000 C 
BRANCH  16  17
ATOM     17  N   UNL     1       1.935   4.774  21.081  0.00  0.00    +0.000 NA
ATOM     18  C   UNL     1       2.155   3.590  20.614  0.00  0.00    +0.000 C 
ATOM     19  C   UNL     1       2.725   2.580  21.580  0.00  0.00    +0.000 C 
BRANCH  18  20
ATOM     20  C   UNL     1       1.930   3.151  19.180  0.00  0.00    +0.000 C 
BRANCH  20  21
ATOM     21  C   UNL     1       3.149   2.621  18.457  0.00  0.00    +0.000 C 
ATOM     22  O   UNL     1       3.367   1.429  18.295  0.00  0.00    +0.000 OA
BRANCH  21  23
ATOM     23  C   UNL     1       4.158   3.629  17.988  0.00  0.00    +0.000 A 
ATOM     24  C   UNL     1       5.080   4.127  18.918  0.00  0.00    +0.000 A 
ATOM     25  C   UNL     1       5.979   5.133  18.550  0.00  0.00    +0.000 A 
ATOM     26  C   UNL     1       5.980   5.627  17.249  0.00  0.00    +0.000 A 
ATOM     27  C   UNL     1       5.096   5.109  16.305  0.00  0.00    +0.000 A 
ATOM     28  C   UNL     1       4.185   4.113  16.673  0.00  0.00    +0.000 A 
ENDBRANCH  21  23
ENDBRANCH  20  21
ENDBRANCH  18  20
ENDBRANCH  16  17
ENDBRANCH  15  16
ENDBRANCH   1  15
TORSDOF 11
ENDMDL
MODEL 7
REMARK VINA RESULT:      -7.2      6.190      8.339
REMARK  Name = 
REMARK  13 active torsions:
REMARK  status: ('A' for Active; 'I' for Inactive)
REMARK    1  A    between atoms: C_1  and  C_2
REMARK    2  A    between atoms: C_2  and  C_3
REMARK    3  A    between atoms: C_3  and  C_4
REMARK    4  A    between atoms: C_4  and  C_6
REMARK    5  A    between atoms: N_12  and  C_13
REMARK    6  A    between atoms: C_13  and  C_14
REMARK    7  A    between atoms: C_14  and  C_15
REMARK    8  A    between atoms: C_15  and  C_16
REMARK    9  A    between atoms: C_16  and  N_17
REMARK   10  A    between atoms: C_18  and  C_19
REMARK   11  A    between atoms: C_18  and  C_20
REMARK   12  A    between atoms: C_20  and  C_21
REMARK   13  A    between atoms: C_21  and  C_23
REMARK                            x       y       z     vdW  Elec       q    Type
REMARK                         _______ _______ _______ _____ _____    ______ ____
ROOT
ATOM      1  C   UNL     1       7.472   7.905  17.451  0.00  0.00    +0.000 C 
ENDROOT
BRANCH   1   2
ATOM      2  C   UNL     1       7.594   6.386  17.483  0.00  0.00    +0.000 C 
BRANCH   2   5
ATOM      3  C   UNL     1       5.719   4.636  14.778  0.00  0.00    +0.000 C 
ATOM      4  C   UNL     1       6.108   5.104  16.161  0.00  0.00    +0.000 C 
ATOM      5  N   UNL     1       7.149   5.867  16.204  0.00  0.00    +0.000 NA
BRANCH   4   6
ATOM      6  C   UNL     1       5.239   4.734  17.355  0.00  0.00    +0.000 C 
BRANCH   6   7
ATOM      7  C   UNL     1       4.020   5.594  17.594  0.00  0.00    +0.000 C 
ATOM      8  O   UNL     1       3.956   6.769  17.240  0.00  0.00    +0.000 OA
BRANCH   7   9
ATOM      9  C   UNL     1       2.885   4.997  18.371  0.00  0.00    +0.000 A 
ATOM     10  C   UNL     1       2.590   5.553  19.622  0.00  0.00    +0.000 A 
ATOM     11  C   UNL     1       1.647   4.953  20.461  0.00  0.00    +0.000 A 
ATOM     12  C   UNL     1       0.968   3.811  20.043  0.00  0.00    +0.000 A 
ATOM     13  C   UNL     1       1.205   3.288  18.772  0.00  0.00    +0.000 A 
ATOM     14  C   UNL     1       2.161   3.877  17.935  0.00  0.00    +0.000 A 
ENDBRANCH   7   9
ENDBRANCH   6   7
ENDBRANCH   4   6
ENDBRANCH   2   5
ENDBRANCH   1   2
BRANCH   1  15
ATOM     15  C   UNL     1       8.497   8.580  18.359  0.00  0.00    +0.000 C 
BRANCH  15  16
ATOM     16  C   UNL     1       8.494  10.096  18.194  0.00  0.00    +0.000 C 
BRANCH  16  17
ATOM     17  N   UNL     1       9.872  10.550  18.108  0.00  0.00    +0.000 NA
ATOM     18  C   UNL     1      10.093  11.814  17.956  0.00  0.00    +0.000 C 
ATOM     19  C   UNL     1      11.537  12.237  17.843  0.00  0.00    +0.000 C 
BRANCH  18  20
ATOM     20  C   UNL     1       9.032  12.898  17.925  0.00  0.00    +0.000 C 
BRANCH  20  21
ATOM     21  C   UNL     1       8.898  13.721  19.188  0.00  0.00    +0.000 C 
ATOM     22  O   UNL     1       8.654  13.234  20.282  0.00  0.00    +0.000 OA
BRANCH  21  23
ATOM     23  C   UNL     1       9.003  15.212  19.047  0.00  0.00    +0.000 A 
ATOM     24  C   UNL     1      10.112  15.854  19.612  0.00  0.00    +0.000 A 
ATOM     25  C   UNL     1      10.207  17.250  19.586  0.00  0.00    +0.000 A 
ATOM     26  C   UNL     1       9.212  18.006  18.974  0.00  0.00    +0.000 A 
ATOM     27  C   UNL     1       8.126  17.374  18.373  0.00  0.00    +0.000 A 
ATOM     28  C   UNL     1       8.020  15.980  18.410  0.00  0.00    +0.000 A 
ENDBRANCH  21  23
ENDBRANCH  20  21
ENDBRANCH  18  20
ENDBRANCH  16  17
ENDBRANCH  15  16
ENDBRANCH   1  15
TORSDOF 11
ENDMDL
MODEL 8
REMARK VINA RESULT:      -7.1      7.468     11.363
REMARK  Name = 
REMARK  13 active torsions:
REMARK  status: ('A' for Active; 'I' for Inactive)
REMARK    1  A    between atoms: C_1  and  C_2
REMARK    2  A    between atoms: C_2  and  C_3
REMARK    3  A    between atoms: C_3  and  C_4
REMARK    4  A    between atoms: C_4  and  C_6
REMARK    5  A    between atoms: N_12  and  C_13
REMARK    6  A    between atoms: C_13  and  C_14
REMARK    7  A    between atoms: C_14  and  C_15
REMARK    8  A    between atoms: C_15  and  C_16
REMARK    9  A    between atoms: C_16  and  N_17
REMARK   10  A    between atoms: C_18  and  C_19
REMARK   11  A    between atoms: C_18  and  C_20
REMARK   12  A    between atoms: C_20  and  C_21
REMARK   13  A    between atoms: C_21  and  C_23
REMARK                            x       y       z     vdW  Elec       q    Type
REMARK                         _______ _______ _______ _____ _____    ______ ____
ROOT
ATOM      1  C   UNL     1       8.955  10.126  18.442  0.00  0.00    +0.000 C 
ENDROOT
BRANCH   1   2
ATOM      2  C   UNL     1       9.997  10.433  19.511  0.00  0.00    +0.000 C 
BRANCH   2   5
ATOM      3  C   UNL     1       9.689  13.725  21.233  0.00  0.00    +0.000 C 
ATOM      4  C   UNL     1      10.282  12.601  20.416  0.00  0.00    +0.000 C 
ATOM      5  N   UNL     1       9.528  11.561  20.293  0.00  0.00    +0.000 NA
BRANCH   4   6
ATOM      6  C   UNL     1      11.638  12.788  19.748  0.00  0.00    +0.000 C 
BRANCH   6   7
ATOM      7  C   UNL     1      11.624  13.334  18.339  0.00  0.00    +0.000 C 
ATOM      8  O   UNL     1      11.663  12.613  17.345  0.00  0.00    +0.000 OA
BRANCH   7   9
ATOM      9  C   UNL     1      11.651  14.825  18.168  0.00  0.00    +0.000 A 
ATOM     10  C   UNL     1      12.333  15.577  19.132  0.00  0.00    +0.000 A 
ATOM     11  C   UNL     1      12.271  16.973  19.117  0.00  0.00    +0.000 A 
ATOM     12  C   UNL     1      11.555  17.629  18.117  0.00  0.00    +0.000 A 
ATOM     13  C   UNL     1      10.928  16.890  17.114  0.00  0.00    +0.000 A 
ATOM     14  C   UNL     1      10.974  15.490  17.136  0.00  0.00    +0.000 A 
ENDBRANCH   7   9
ENDBRANCH   6   7
ENDBRANCH   4   6
ENDBRANCH   2   5
ENDBRANCH   1   2
BRANCH   1  15
ATOM     15  C   UNL     1       8.493   8.671  18.496  0.00  0.00    +0.000 C 
BRANCH  15  16
ATOM     16  C   UNL     1       7.444   8.368  17.432  0.00  0.00    +0.000 C 
BRANCH  16  17
ATOM     17  N   UNL     1       7.713   7.046  16.888  0.00  0.00    +0.000 NA
ATOM     18  C   UNL     1       6.870   6.099  17.131  0.00  0.00    +0.000 C 
ATOM     19  C   UNL     1       7.204   4.738  16.572  0.00  0.00    +0.000 C 
BRANCH  18  20
ATOM     20  C   UNL     1       5.565   6.253  17.890  0.00  0.00    +0.000 C 
BRANCH  20  21
ATOM     21  C   UNL     1       5.245   5.151  18.876  0.00  0.00    +0.000 C 
ATOM     22  O   UNL     1       6.032   4.769  19.731  0.00  0.00    +0.000 OA
BRANCH  21  23
ATOM     23  C   UNL     1       3.918   4.465  18.730  0.00  0.00    +0.000 A 
ATOM     24  C   UNL     1       3.660   3.768  17.543  0.00  0.00    +0.000 A 
ATOM     25  C   UNL     1       2.405   3.191  17.323  0.00  0.00    +0.000 A 
ATOM     26  C   UNL     1       1.415   3.282  18.296  0.00  0.00    +0.000 A 
ATOM     27  C   UNL     1       1.675   3.937  19.498  0.00  0.00    +0.000 A 
ATOM     28  C   UNL     1       2.924   4.528  19.715  0.00  0.00    +0.000 A 
ENDBRANCH  21  23
ENDBRANCH  20  21
ENDBRANCH  18  20
ENDBRANCH  16  17
ENDBRANCH  15  16
ENDBRANCH   1  15
TORSDOF 11
ENDMDL
MODEL 9
REMARK VINA RESULT:      -7.1      2.478      9.418
REMARK  Name = 
REMARK  13 active torsions:
REMARK  status: ('A' for Active; 'I' for Inactive)
REMARK    1  A    between atoms: C_1  and  C_2
REMARK    2  A    between atoms: C_2  and  C_3
REMARK    3  A    between atoms: C_3  and  C_4
REMARK    4  A    between atoms: C_4  and  C_6
REMARK    5  A    between atoms: N_12  and  C_13
REMARK    6  A    between atoms: C_13  and  C_14
REMARK    7  A    between atoms: C_14  and  C_15
REMARK    8  A    between atoms: C_15  and  C_16
REMARK    9  A    between atoms: C_16  and  N_17
REMARK   10  A    between atoms: C_18  and  C_19
REMARK   11  A    between atoms: C_18  and  C_20
REMARK   12  A    between atoms: C_20  and  C_21
REMARK   13  A    between atoms: C_21  and  C_23
REMARK                            x       y       z     vdW  Elec       q    Type
REMARK                         _______ _______ _______ _____ _____    ______ ____
ROOT
ATOM      1  C   UNL     1       2.511   8.482  17.800  0.00  0.00    +0.000 C 
ENDROOT
BRANCH   1   2
ATOM      2  C   UNL     1       1.568   9.004  18.877  0.00  0.00    +0.000 C 
BRANCH   2   5
ATOM      3  C   UNL     1      -1.305  11.284  18.209  0.00  0.00    +0.000 C 
ATOM      4  C   UNL     1      -0.331  10.413  18.969  0.00  0.00    +0.000 C 
ATOM      5  N   UNL     1       0.572   9.846  18.242  0.00  0.00    +0.000 NA
BRANCH   4   6
ATOM      6  C   UNL     1      -0.419  10.330  20.487  0.00  0.00    +0.000 C 
BRANCH   6   7
ATOM      7  C   UNL     1      -0.286  11.633  21.241  0.00  0.00    +0.000 C 
ATOM      8  O   UNL     1       0.798  12.165  21.464  0.00  0.00    +0.000 OA
BRANCH   7   9
ATOM      9  C   UNL     1      -1.535  12.242  21.806  0.00  0.00    +0.000 A 
ATOM     10  C   UNL     1      -1.976  11.782  23.054  0.00  0.00    +0.000 A 
ATOM     11  C   UNL     1      -3.207  12.196  23.568  0.00  0.00    +0.000 A 
ATOM     12  C   UNL     1      -3.993  13.099  22.855  0.00  0.00    +0.000 A 
ATOM     13  C   UNL     1      -3.533  13.615  21.644  0.00  0.00    +0.000 A 
ATOM     14  C   UNL     1      -2.307  13.190  21.117  0.00  0.00    +0.000 A 
ENDBRANCH   7   9
ENDBRANCH   6   7
ENDBRANCH   4   6
ENDBRANCH   2   5
ENDBRANCH   1   2
BRANCH   1  15
ATOM     15  C   UNL     1       3.236   7.213  18.242  0.00  0.00    +0.000 C 
BRANCH  15  16
ATOM     16  C   UNL     1       2.353   5.977  18.110  0.00  0.00    +0.000 C 
BRANCH  16  17
ATOM     17  N   UNL     1       2.031   5.500  19.445  0.00  0.00    +0.000 NA
ATOM     18  C   UNL     1       2.387   4.303  19.770  0.00  0.00    +0.000 C 
ATOM     19  C   UNL     1       2.006   3.839  21.155  0.00  0.00    +0.000 C 
BRANCH  18  20
ATOM     20  C   UNL     1       3.186   3.351  18.899  0.00  0.00    +0.000 C 
BRANCH  20  21
ATOM     21  C   UNL     1       4.676   3.320  19.157  0.00  0.00    +0.000 C 
ATOM     22  O   UNL     1       5.198   2.581  19.979  0.00  0.00    +0.000 OA
BRANCH  21  23
ATOM     23  C   UNL     1       5.522   4.304  18.402  0.00  0.00    +0.000 A 
ATOM     24  C   UNL     1       6.385   5.133  19.130  0.00  0.00    +0.000 A 
ATOM     25  C   UNL     1       7.124   6.126  18.480  0.00  0.00    +0.000 A 
ATOM     26  C   UNL     1       7.027   6.278  17.100  0.00  0.00    +0.000 A 
ATOM     27  C   UNL     1       6.204   5.431  16.361  0.00  0.00    +0.000 A 
ATOM     28  C   UNL     1       5.452   4.446  17.010  0.00  0.00    +0.000 A 
ENDBRANCH  21  23
ENDBRANCH  20  21
ENDBRANCH  18  20
ENDBRANCH  16  17
ENDBRANCH  15  16
ENDBRANCH   1  15
TORSDOF 11
ENDMDL
