MODEL 1
REMARK VINA RESULT:      -7.4      0.000      0.000
REMARK  Name = 
REMARK  3 active torsions:
REMARK  status: ('A' for Active; 'I' for Inactive)
REMARK    1  A    between atoms: C_1  and  N_2
REMARK    2  A    between atoms: C_6  and  C_7
REMARK    3  A    between atoms: N_9  and  C_10
REMARK                            x       y       z     vdW  Elec       q    Type
REMARK                         _______ _______ _______ _____ _____    ______ ____
ROOT
ATOM      1  C   UNL     1       2.264   5.182  19.309  0.00  0.00    +0.000 C 
ATOM      2  C   UNL     1       1.352   4.306  18.437  0.00  0.00    +0.000 C 
ATOM      3  C   UNL     1       1.537   2.789  18.404  0.00  0.00    +0.000 C 
ATOM      4  C   UNL     1       2.817   2.247  18.946  0.00  0.00    +0.000 A 
ATOM      5  N   UNL     1       3.536   1.367  18.308  0.00  0.00    +0.000 NA
ATOM      6  N   UNL     1       4.555   1.093  19.176  0.00  0.00    +0.000 N 
ATOM      7  C   UNL     1       4.388   1.799  20.360  0.00  0.00    +0.000 A 
ATOM      8  O   UNL     1       5.061   1.684  21.369  0.00  0.00    +0.000 OA
ATOM      9  N   UNL     1       3.284   2.587  20.160  0.00  0.00    +0.000 N 
ATOM     10  C   UNL     1       2.640   3.372  21.184  0.00  0.00    +0.000 C 
ATOM     11  C   UNL     1       2.256   4.797  20.792  0.00  0.00    +0.000 C 
ATOM     12  H   UNL     1       5.246   0.376  19.005  0.00  0.00    +0.000 HD
ENDROOT
BRANCH   1  15
ATOM     13  C   UNL     1       3.930   6.402  17.883  0.00  0.00    +0.000 C 
ATOM     14  O   UNL     1       3.107   7.262  17.554  0.00  0.00    +0.000 OA
ATOM     15  N   UNL     1       3.605   5.371  18.764  0.00  0.00    +0.000 N 
ATOM     16  H   UNL     1       4.373   4.736  18.980  0.00  0.00    +0.000 HD
BRANCH  13  22
ATOM     17  C   UNL     1       5.223   4.212  16.017  0.00  0.00    +0.000 C 
ATOM     18  N   UNL     1       5.858   5.388  16.563  0.00  0.00    +0.000 N 
ATOM     19  C   UNL     1       7.171   5.721  16.358  0.00  0.00    +0.000 A 
ATOM     20  C   UNL     1       7.363   6.881  17.063  0.00  0.00    +0.000 A 
ATOM     21  N   UNL     1       6.207   7.265  17.690  0.00  0.00    +0.000 NA
ATOM     22  C   UNL     1       5.297   6.350  17.381  0.00  0.00    +0.000 A 
ENDBRANCH  13  22
ENDBRANCH   1  15
TORSDOF 2
ENDMDL
MODEL 2
REMARK VINA RESULT:      -7.2      2.591      3.704
REMARK  Name = 
REMARK  3 active torsions:
REMARK  status: ('A' for Active; 'I' for Inactive)
REMARK    1  A    between atoms: C_1  and  N_2
REMARK    2  A    between atoms: C_6  and  C_7
REMARK    3  A    between atoms: N_9  and  C_10
REMARK                            x       y       z     vdW  Elec       q    Type
REMARK                         _______ _______ _______ _____ _____    ______ ____
ROOT
ATOM      1  C   UNL     1       5.190   5.846  17.624  0.00  0.00    +0.000 C 
ATOM      2  C   UNL     1       3.805   6.484  17.816  0.00  0.00    +0.000 C 
ATOM      3  C   UNL     1       2.592   5.615  18.145  0.00  0.00    +0.000 C 
ATOM      4  C   UNL     1       2.726   4.145  17.923  0.00  0.00    +0.000 A 
ATOM      5  N   UNL     1       1.830   3.443  17.289  0.00  0.00    +0.000 NA
ATOM      6  N   UNL     1       2.298   2.163  17.382  0.00  0.00    +0.000 N 
ATOM      7  C   UNL     1       3.467   2.126  18.129  0.00  0.00    +0.000 A 
ATOM      8  O   UNL     1       4.063   1.125  18.488  0.00  0.00    +0.000 OA
ATOM      9  N   UNL     1       3.755   3.435  18.417  0.00  0.00    +0.000 N 
ATOM     10  C   UNL     1       4.797   3.867  19.316  0.00  0.00    +0.000 C 
ATOM     11  C   UNL     1       5.665   5.025  18.827  0.00  0.00    +0.000 C 
ATOM     12  H   UNL     1       1.777   1.361  17.055  0.00  0.00    +0.000 HD
ENDROOT
BRANCH   1  15
ATOM     13  C   UNL     1       6.498   5.280  15.558  0.00  0.00    +0.000 C 
ATOM     14  O   UNL     1       7.475   5.942  15.923  0.00  0.00    +0.000 OA
ATOM     15  N   UNL     1       5.355   5.156  16.348  0.00  0.00    +0.000 N 
ATOM     16  H   UNL     1       4.625   4.566  15.951  0.00  0.00    +0.000 HD
BRANCH  13  22
ATOM     17  C   UNL     1       8.343   5.669  13.029  0.00  0.00    +0.000 C 
ATOM     18  N   UNL     1       7.228   4.764  13.173  0.00  0.00    +0.000 N 
ATOM     19  C   UNL     1       6.782   3.927  12.184  0.00  0.00    +0.000 A 
ATOM     20  C   UNL     1       5.707   3.269  12.726  0.00  0.00    +0.000 A 
ATOM     21  N   UNL     1       5.487   3.679  14.015  0.00  0.00    +0.000 NA
ATOM     22  C   UNL     1       6.416   4.589  14.277  0.00  0.00    +0.000 A 
ENDBRANCH  13  22
ENDBRANCH   1  15
TORSDOF 2
ENDMDL
MODEL 3
REMARK VINA RESULT:      -7.1      1.021      1.534
REMARK  Name = 
REMARK  3 active torsions:
REMARK  status: ('A' for Active; 'I' for Inactive)
REMARK    1  A    between atoms: C_1  and  N_2
REMARK    2  A    between atoms: C_6  and  C_7
REMARK    3  A    between atoms: N_9  and  C_10
REMARK                            x       y       z     vdW  Elec       q    Type
REMARK                         _______ _______ _______ _____ _____    ______ ____
ROOT
ATOM      1  C   UNL     1       2.537   5.208  18.361  0.00  0.00    +0.000 C 
ATOM      2  C   UNL     1       1.377   4.291  17.939  0.00  0.00    +0.000 C 
ATOM      3  C   UNL     1       1.373   2.817  18.338  0.00  0.00    +0.000 C 
ATOM      4  C   UNL     1       2.661   2.237  18.821  0.00  0.00    +0.000 A 
ATOM      5  N   UNL     1       3.134   1.107  18.378  0.00  0.00    +0.000 NA
ATOM      6  N   UNL     1       4.262   0.915  19.126  0.00  0.00    +0.000 N 
ATOM      7  C   UNL     1       4.410   1.939  20.053  0.00  0.00    +0.000 A 
ATOM      8  O   UNL     1       5.246   1.995  20.938  0.00  0.00    +0.000 OA
ATOM      9  N   UNL     1       3.388   2.815  19.792  0.00  0.00    +0.000 N 
ATOM     10  C   UNL     1       3.050   3.949  20.616  0.00  0.00    +0.000 C 
ATOM     11  C   UNL     1       2.769   5.255  19.875  0.00  0.00    +0.000 C 
ATOM     12  H   UNL     1       4.818   0.073  19.079  0.00  0.00    +0.000 HD
ENDROOT
BRANCH   1  15
ATOM     13  C   UNL     1       4.453   6.056  16.980  0.00  0.00    +0.000 C 
ATOM     14  O   UNL     1       4.100   7.233  17.105  0.00  0.00    +0.000 OA
ATOM     15  N   UNL     1       3.762   5.010  17.591  0.00  0.00    +0.000 N 
ATOM     16  H   UNL     1       4.161   4.085  17.434  0.00  0.00    +0.000 HD
BRANCH  13  22
ATOM     17  C   UNL     1       7.474   5.842  17.863  0.00  0.00    +0.000 C 
ATOM     18  N   UNL     1       6.913   5.537  16.569  0.00  0.00    +0.000 N 
ATOM     19  C   UNL     1       7.646   5.114  15.491  0.00  0.00    +0.000 A 
ATOM     20  C   UNL     1       6.738   4.964  14.475  0.00  0.00    +0.000 A 
ATOM     21  N   UNL     1       5.475   5.280  14.901  0.00  0.00    +0.000 NA
ATOM     22  C   UNL     1       5.592   5.629  16.176  0.00  0.00    +0.000 A 
ENDBRANCH  13  22
ENDBRANCH   1  15
TORSDOF 2
ENDMDL
MODEL 4
REMARK VINA RESULT:      -6.9      2.598      4.152
REMARK  Name = 
REMARK  3 active torsions:
REMARK  status: ('A' for Active; 'I' for Inactive)
REMARK    1  A    between atoms: C_1  and  N_2
REMARK    2  A    between atoms: C_6  and  C_7
REMARK    3  A    between atoms: N_9  and  C_10
REMARK                            x       y       z     vdW  Elec       q    Type
REMARK                         _______ _______ _______ _____ _____    ______ ____
ROOT
ATOM      1  C   UNL     1       4.254   4.432  17.643  0.00  0.00    +0.000 C 
ATOM      2  C   UNL     1       5.104   4.005  18.850  0.00  0.00    +0.000 C 
ATOM      3  C   UNL     1       4.475   3.216  19.997  0.00  0.00    +0.000 C 
ATOM      4  C   UNL     1       2.985   3.191  20.072  0.00  0.00    +0.000 A 
ATOM      5  N   UNL     1       2.330   3.428  21.173  0.00  0.00    +0.000 NA
ATOM      6  N   UNL     1       1.026   3.227  20.822  0.00  0.00    +0.000 N 
ATOM      7  C   UNL     1       0.936   2.818  19.498  0.00  0.00    +0.000 A 
ATOM      8  O   UNL     1      -0.074   2.449  18.924  0.00  0.00    +0.000 OA
ATOM      9  N   UNL     1       2.219   2.861  19.017  0.00  0.00    +0.000 N 
ATOM     10  C   UNL     1       2.630   2.362  17.729  0.00  0.00    +0.000 C 
ATOM     11  C   UNL     1       3.566   3.265  16.928  0.00  0.00    +0.000 C 
ATOM     12  H   UNL     1       0.265   3.253  21.487  0.00  0.00    +0.000 HD
ENDROOT
BRANCH   1  15
ATOM     13  C   UNL     1       3.746   6.888  17.744  0.00  0.00    +0.000 C 
ATOM     14  O   UNL     1       4.857   7.196  17.298  0.00  0.00    +0.000 OA
ATOM     15  N   UNL     1       3.363   5.557  17.910  0.00  0.00    +0.000 N 
ATOM     16  H   UNL     1       2.416   5.427  18.263  0.00  0.00    +0.000 HD
BRANCH  13  22
ATOM     17  C   UNL     1       2.096   6.921  20.432  0.00  0.00    +0.000 C 
ATOM     18  N   UNL     1       2.022   7.865  19.343  0.00  0.00    +0.000 N 
ATOM     19  C   UNL     1       1.174   8.941  19.312  0.00  0.00    +0.000 A 
ATOM     20  C   UNL     1       1.409   9.551  18.106  0.00  0.00    +0.000 A 
ATOM     21  N   UNL     1       2.375   8.881  17.404  0.00  0.00    +0.000 NA
ATOM     22  C   UNL     1       2.741   7.856  18.163  0.00  0.00    +0.000 A 
ENDBRANCH  13  22
ENDBRANCH   1  15
TORSDOF 2
ENDMDL
MODEL 5
REMARK VINA RESULT:      -6.9      2.708      5.070
REMARK  Name = 
REMARK  3 active torsions:
REMARK  status: ('A' for Active; 'I' for Inactive)
REMARK    1  A    between atoms: C_1  and  N_2
REMARK    2  A    between atoms: C_6  and  C_7
REMARK    3  A    between atoms: N_9  and  C_10
REMARK                            x       y       z     vdW  Elec       q    Type
REMARK                         _______ _______ _______ _____ _____    ______ ____
ROOT
ATOM      1  C   UNL     1       3.861   4.297  18.208  0.00  0.00    +0.000 C 
ATOM      2  C   UNL     1       4.113   3.714  16.809  0.00  0.00    +0.000 C 
ATOM      3  C   UNL     1       5.397   4.051  16.051  0.00  0.00    +0.000 C 
ATOM      4  C   UNL     1       6.197   5.209  16.546  0.00  0.00    +0.000 A 
ATOM      5  N   UNL     1       6.646   6.144  15.757  0.00  0.00    +0.000 NA
ATOM      6  N   UNL     1       7.376   6.944  16.589  0.00  0.00    +0.000 N 
ATOM      7  C   UNL     1       7.385   6.426  17.878  0.00  0.00    +0.000 A 
ATOM      8  O   UNL     1       8.039   6.843  18.818  0.00  0.00    +0.000 OA
ATOM      9  N   UNL     1       6.561   5.331  17.834  0.00  0.00    +0.000 N 
ATOM     10  C   UNL     1       6.398   4.384  18.909  0.00  0.00    +0.000 C 
ATOM     11  C   UNL     1       4.962   3.968  19.222  0.00  0.00    +0.000 C 
ATOM     12  H   UNL     1       7.929   7.723  16.260  0.00  0.00    +0.000 HD
ENDROOT
BRANCH   1  15
ATOM     13  C   UNL     1       2.538   6.238  19.091  0.00  0.00    +0.000 C 
ATOM     14  O   UNL     1       2.017   5.555  19.979  0.00  0.00    +0.000 OA
ATOM     15  N   UNL     1       3.475   5.705  18.206  0.00  0.00    +0.000 N 
ATOM     16  H   UNL     1       3.852   6.370  17.532  0.00  0.00    +0.000 HD
BRANCH  13  22
ATOM     17  C   UNL     1       1.210   8.289  21.086  0.00  0.00    +0.000 C 
ATOM     18  N   UNL     1       1.641   8.534  19.731  0.00  0.00    +0.000 N 
ATOM     19  C   UNL     1       1.509   9.735  19.085  0.00  0.00    +0.000 A 
ATOM     20  C   UNL     1       2.018   9.527  17.829  0.00  0.00    +0.000 A 
ATOM     21  N   UNL     1       2.457   8.237  17.690  0.00  0.00    +0.000 NA
ATOM     22  C   UNL     1       2.222   7.640  18.852  0.00  0.00    +0.000 A 
ENDBRANCH  13  22
ENDBRANCH   1  15
TORSDOF 2
ENDMDL
MODEL 6
REMARK VINA RESULT:      -6.9      0.858      1.144
REMARK  Name = 
REMARK  3 active torsions:
REMARK  status: ('A' for Active; 'I' for Inactive)
REMARK    1  A    between atoms: C_1  and  N_2
REMARK    2  A    between atoms: C_6  and  C_7
REMARK    3  A    between atoms: N_9  and  C_10
REMARK                            x       y       z     vdW  Elec       q    Type
REMARK                         _______ _______ _______ _____ _____    ______ ____
ROOT
ATOM      1  C   UNL     1       2.028   4.795  19.253  0.00  0.00    +0.000 C 
ATOM      2  C   UNL     1       1.133   3.792  18.510  0.00  0.00    +0.000 C 
ATOM      3  C   UNL     1       1.436   2.295  18.566  0.00  0.00    +0.000 C 
ATOM      4  C   UNL     1       2.789   1.891  19.049  0.00  0.00    +0.000 A 
ATOM      5  N   UNL     1       3.531   1.024  18.422  0.00  0.00    +0.000 NA
ATOM      6  N   UNL     1       4.625   0.891  19.230  0.00  0.00    +0.000 N 
ATOM      7  C   UNL     1       4.482   1.667  20.373  0.00  0.00    +0.000 A 
ATOM      8  O   UNL     1       5.228   1.676  21.337  0.00  0.00    +0.000 OA
ATOM      9  N   UNL     1       3.307   2.353  20.200  0.00  0.00    +0.000 N 
ATOM     10  C   UNL     1       2.673   3.159  21.213  0.00  0.00    +0.000 C 
ATOM     11  C   UNL     1       2.151   4.520  20.755  0.00  0.00    +0.000 C 
ATOM     12  H   UNL     1       5.358   0.217  19.059  0.00  0.00    +0.000 HD
ENDROOT
BRANCH   1  15
ATOM     13  C   UNL     1       3.721   6.312  18.187  0.00  0.00    +0.000 C 
ATOM     14  O   UNL     1       3.040   7.320  18.404  0.00  0.00    +0.000 OA
ATOM     15  N   UNL     1       3.311   5.044  18.601  0.00  0.00    +0.000 N 
ATOM     16  H   UNL     1       3.966   4.293  18.387  0.00  0.00    +0.000 HD
BRANCH  13  22
ATOM     17  C   UNL     1       6.579   5.563  19.291  0.00  0.00    +0.000 C 
ATOM     18  N   UNL     1       6.237   5.994  17.957  0.00  0.00    +0.000 N 
ATOM     19  C   UNL     1       7.146   6.167  16.946  0.00  0.00    +0.000 A 
ATOM     20  C   UNL     1       6.411   6.599  15.871  0.00  0.00    +0.000 A 
ATOM     21  N   UNL     1       5.084   6.693  16.196  0.00  0.00    +0.000 NA
ATOM     22  C   UNL     1       4.988   6.324  17.468  0.00  0.00    +0.000 A 
ENDBRANCH  13  22
ENDBRANCH   1  15
TORSDOF 2
ENDMDL
MODEL 7
REMARK VINA RESULT:      -6.8      2.757      4.458
REMARK  Name = 
REMARK  3 active torsions:
REMARK  status: ('A' for Active; 'I' for Inactive)
REMARK    1  A    between atoms: C_1  and  N_2
REMARK    2  A    between atoms: C_6  and  C_7
REMARK    3  A    between atoms: N_9  and  C_10
REMARK                            x       y       z     vdW  Elec       q    Type
REMARK                         _______ _______ _______ _____ _____    ______ ____
ROOT
ATOM      1  C   UNL     1       4.071   4.948  18.015  0.00  0.00    +0.000 C 
ATOM      2  C   UNL     1       5.102   4.243  18.910  0.00  0.00    +0.000 C 
ATOM      3  C   UNL     1       4.687   3.062  19.785  0.00  0.00    +0.000 C 
ATOM      4  C   UNL     1       3.225   2.857  20.006  0.00  0.00    +0.000 A 
ATOM      5  N   UNL     1       2.713   2.652  21.186  0.00  0.00    +0.000 NA
ATOM      6  N   UNL     1       1.388   2.440  20.930  0.00  0.00    +0.000 N 
ATOM      7  C   UNL     1       1.145   2.477  19.563  0.00  0.00    +0.000 A 
ATOM      8  O   UNL     1       0.092   2.212  19.010  0.00  0.00    +0.000 OA
ATOM      9  N   UNL     1       2.346   2.810  18.991  0.00  0.00    +0.000 N 
ATOM     10  C   UNL     1       2.608   2.804  17.573  0.00  0.00    +0.000 C 
ATOM     11  C   UNL     1       3.367   4.012  17.027  0.00  0.00    +0.000 C 
ATOM     12  H   UNL     1       0.726   2.167  21.643  0.00  0.00    +0.000 HD
ENDROOT
BRANCH   1  15
ATOM     13  C   UNL     1       2.984   7.173  18.427  0.00  0.00    +0.000 C 
ATOM     14  O   UNL     1       3.561   7.699  17.469  0.00  0.00    +0.000 OA
ATOM     15  N   UNL     1       3.154   5.825  18.740  0.00  0.00    +0.000 N 
ATOM     16  H   UNL     1       2.609   5.499  19.537  0.00  0.00    +0.000 HD
BRANCH  13  22
ATOM     17  C   UNL     1       1.467   9.890  17.912  0.00  0.00    +0.000 C 
ATOM     18  N   UNL     1       1.438   9.080  19.106  0.00  0.00    +0.000 N 
ATOM     19  C   UNL     1       0.736   9.399  20.238  0.00  0.00    +0.000 A 
ATOM     20  C   UNL     1       0.998   8.386  21.124  0.00  0.00    +0.000 A 
ATOM     21  N   UNL     1       1.837   7.458  20.565  0.00  0.00    +0.000 NA
ATOM     22  C   UNL     1       2.100   7.890  19.337  0.00  0.00    +0.000 A 
ENDBRANCH  13  22
ENDBRANCH   1  15
TORSDOF 2
ENDMDL
MODEL 8
REMARK VINA RESULT:      -6.6      2.250      3.250
REMARK  Name = 
REMARK  3 active torsions:
REMARK  status: ('A' for Active; 'I' for Inactive)
REMARK    1  A    between atoms: C_1  and  N_2
REMARK    2  A    between atoms: C_6  and  C_7
REMARK    3  A    between atoms: N_9  and  C_10
REMARK                            x       y       z     vdW  Elec       q    Type
REMARK                         _______ _______ _______ _____ _____    ______ ____
ROOT
ATOM      1  C   UNL     1       3.326   3.207  17.245  0.00  0.00    +0.000 C 
ATOM      2  C   UNL     1       3.236   1.834  17.930  0.00  0.00    +0.000 C 
ATOM      3  C   UNL     1       2.657   1.709  19.338  0.00  0.00    +0.000 C 
ATOM      4  C   UNL     1       2.525   2.964  20.135  0.00  0.00    +0.000 A 
ATOM      5  N   UNL     1       2.933   3.063  21.368  0.00  0.00    +0.000 NA
ATOM      6  N   UNL     1       2.555   4.324  21.733  0.00  0.00    +0.000 N 
ATOM      7  C   UNL     1       1.869   4.945  20.697  0.00  0.00    +0.000 A 
ATOM      8  O   UNL     1       1.305   6.024  20.750  0.00  0.00    +0.000 OA
ATOM      9  N   UNL     1       1.917   4.061  19.650  0.00  0.00    +0.000 N 
ATOM     10  C   UNL     1       1.193   4.216  18.413  0.00  0.00    +0.000 C 
ATOM     11  C   UNL     1       1.981   3.933  17.136  0.00  0.00    +0.000 C 
ATOM     12  H   UNL     1       2.657   4.679  22.674  0.00  0.00    +0.000 HD
ENDROOT
BRANCH   1  15
ATOM     13  C   UNL     1       5.596   4.261  17.054  0.00  0.00    +0.000 C 
ATOM     14  O   UNL     1       5.788   3.784  15.931  0.00  0.00    +0.000 OA
ATOM     15  N   UNL     1       4.405   4.053  17.748  0.00  0.00    +0.000 N 
ATOM     16  H   UNL     1       4.353   4.516  18.655  0.00  0.00    +0.000 HD
BRANCH  13  22
ATOM     17  C   UNL     1       6.007   7.387  16.959  0.00  0.00    +0.000 C 
ATOM     18  N   UNL     1       6.753   6.425  17.734  0.00  0.00    +0.000 N 
ATOM     19  C   UNL     1       7.803   6.745  18.555  0.00  0.00    +0.000 A 
ATOM     20  C   UNL     1       8.232   5.550  19.073  0.00  0.00    +0.000 A 
ATOM     21  N   UNL     1       7.475   4.513  18.594  0.00  0.00    +0.000 NA
ATOM     22  C   UNL     1       6.579   5.056  17.779  0.00  0.00    +0.000 A 
ENDBRANCH  13  22
ENDBRANCH   1  15
TORSDOF 2
ENDMDL
MODEL 9
REMARK VINA RESULT:      -6.6      2.734      5.078
REMARK  Name = 
REMARK  3 active torsions:
REMARK  status: ('A' for Active; 'I' for Inactive)
REMARK    1  A    between atoms: C_1  and  N_2
REMARK    2  A    between atoms: C_6  and  C_7
REMARK    3  A    between atoms: N_9  and  C_10
REMARK                            x       y       z     vdW  Elec       q    Type
REMARK                         _______ _______ _______ _____ _____    ______ ____
ROOT
ATOM      1  C   UNL     1       4.089   4.547  19.240  0.00  0.00    +0.000 C 
ATOM      2  C   UNL     1       3.652   3.496  18.208  0.00  0.00    +0.000 C 
ATOM      3  C   UNL     1       4.306   3.449  16.828  0.00  0.00    +0.000 C 
ATOM      4  C   UNL     1       5.096   4.643  16.406  0.00  0.00    +0.000 A 
ATOM      5  N   UNL     1       4.953   5.207  15.241  0.00  0.00    +0.000 NA
ATOM      6  N   UNL     1       5.901   6.190  15.240  0.00  0.00    +0.000 N 
ATOM      7  C   UNL     1       6.639   6.155  16.417  0.00  0.00    +0.000 A 
ATOM      8  O   UNL     1       7.627   6.823  16.669  0.00  0.00    +0.000 OA
ATOM      9  N   UNL     1       6.054   5.179  17.182  0.00  0.00    +0.000 N 
ATOM     10  C   UNL     1       6.589   4.682  18.425  0.00  0.00    +0.000 C 
ATOM     11  C   UNL     1       5.587   4.510  19.564  0.00  0.00    +0.000 C 
ATOM     12  H   UNL     1       6.102   6.762  14.432  0.00  0.00    +0.000 HD
ENDROOT
BRANCH   1  15
ATOM     13  C   UNL     1       2.492   6.441  19.640  0.00  0.00    +0.000 C 
ATOM     14  O   UNL     1       1.915   5.840  20.552  0.00  0.00    +0.000 OA
ATOM     15  N   UNL     1       3.586   5.891  18.971  0.00  0.00    +0.000 N 
ATOM     16  H   UNL     1       3.993   6.489  18.254  0.00  0.00    +0.000 HD
BRANCH  13  22
ATOM     17  C   UNL     1       0.962   8.711  21.208  0.00  0.00    +0.000 C 
ATOM     18  N   UNL     1       1.422   8.744  19.840  0.00  0.00    +0.000 N 
ATOM     19  C   UNL     1       1.232   9.800  18.989  0.00  0.00    +0.000 A 
ATOM     20  C   UNL     1       1.797   9.411  17.801  0.00  0.00    +0.000 A 
ATOM     21  N   UNL     1       2.326   8.152  17.904  0.00  0.00    +0.000 NA
ATOM     22  C   UNL     1       2.092   7.753  19.148  0.00  0.00    +0.000 A 
ENDBRANCH  13  22
ENDBRANCH   1  15
TORSDOF 2
ENDMDL
