MODEL 1
REMARK VINA RESULT:      -8.7      0.000      0.000
REMARK  Name = 
REMARK  6 active torsions:
REMARK  status: ('A' for Active; 'I' for Inactive)
REMARK    1  A    between atoms: C_1  and  C_2
REMARK    2  A    between atoms: N_5  and  N_6
REMARK    3  A    between atoms: C_7  and  C_8
REMARK    4  A    between atoms: N_16  and  C_17
REMARK    5  A    between atoms: N_16  and  C_18
REMARK    6  A    between atoms: C_24  and  N_25
REMARK                            x       y       z     vdW  Elec       q    Type
REMARK                         _______ _______ _______ _____ _____    ______ ____
ROOT
ATOM      1  C   UNL     1       1.572   2.323  21.349  0.00  0.00    +0.000 C 
ATOM      2  C   UNL     1       2.192   3.552  20.742  0.00  0.00    +0.000 A 
ATOM      3  N   UNL     1       1.687   4.729  21.170  0.00  0.00    +0.000 NA
ATOM      4  C   UNL     1       2.187   5.854  20.636  0.00  0.00    +0.000 A 
ATOM      5  N   UNL     1       1.705   7.056  21.183  0.00  0.00    +0.000 N 
ATOM      6  N   UNL     1       3.137   5.851  19.678  0.00  0.00    +0.000 NA
ATOM      7  C   UNL     1       3.673   4.683  19.234  0.00  0.00    +0.000 A 
ATOM      8  N   UNL     1       4.650   4.788  18.221  0.00  0.00    +0.000 N 
ATOM      9  C   UNL     1       4.788   3.743  17.199  0.00  0.00    +0.000 C 
ATOM     10  C   UNL     1       3.210   3.500  19.799  0.00  0.00    +0.000 A 
ATOM     11  H   UNL     1       0.985   6.853  21.868  0.00  0.00    +0.000 HD
ENDROOT
BRANCH   8  12
ATOM     12  C   UNL     1       5.667   5.789  18.130  0.00  0.00    +0.000 A 
ATOM     13  C   UNL     1       6.846   5.700  18.887  0.00  0.00    +0.000 A 
ATOM     14  C   UNL     1       7.911   6.588  18.684  0.00  0.00    +0.000 A 
ATOM     15  C   UNL     1       7.817   7.599  17.731  0.00  0.00    +0.000 A 
ATOM     16  C   UNL     1       6.639   7.751  17.014  0.00  0.00    +0.000 A 
ATOM     17  C   UNL     1       5.577   6.866  17.223  0.00  0.00    +0.000 A 
ENDBRANCH   8  12
BRANCH  10  18
ATOM     18  N   UNL     1       3.834   2.233  19.539  0.00  0.00    +0.000 N 
ATOM     19  O   UNL     1       4.864   1.967  20.175  0.00  0.00    +0.000 OA
ATOM     20  O   UNL     1       3.309   1.491  18.700  0.00  0.00    +0.000 OA
ENDBRANCH  10  18
BRANCH   5  21
ATOM     21  N   UNL     1       1.623   8.159  20.390  0.00  0.00    +0.000 NA
ATOM     22  C   UNL     1       0.703   9.010  20.726  0.00  0.00    +0.000 C 
BRANCH  22  23
ATOM     23  C   UNL     1       0.503  10.268  19.976  0.00  0.00    +0.000 A 
ATOM     24  C   UNL     1       1.239  11.411  20.303  0.00  0.00    +0.000 A 
ATOM     25  C   UNL     1       1.037  12.598  19.606  0.00  0.00    +0.000 A 
ATOM     26  C   UNL     1       0.087  12.650  18.579  0.00  0.00    +0.000 A 
ATOM     27  C   UNL     1      -0.650  11.511  18.253  0.00  0.00    +0.000 A 
ATOM     28  C   UNL     1      -0.442  10.316  18.947  0.00  0.00    +0.000 A 
ENDBRANCH  22  23
ENDBRANCH   5  21
TORSDOF 4
ENDMDL
MODEL 2
REMARK VINA RESULT:      -8.4      0.296      1.136
REMARK  Name = 
REMARK  6 active torsions:
REMARK  status: ('A' for Active; 'I' for Inactive)
REMARK    1  A    between atoms: C_1  and  C_2
REMARK    2  A    between atoms: N_5  and  N_6
REMARK    3  A    between atoms: C_7  and  C_8
REMARK    4  A    between atoms: N_16  and  C_17
REMARK    5  A    between atoms: N_16  and  C_18
REMARK    6  A    between atoms: C_24  and  N_25
REMARK                            x       y       z     vdW  Elec       q    Type
REMARK                         _______ _______ _______ _____ _____    ______ ____
ROOT
ATOM      1  C   UNL     1       1.619   2.395  21.405  0.00  0.00    +0.000 C 
ATOM      2  C   UNL     1       2.237   3.588  20.730  0.00  0.00    +0.000 A 
ATOM      3  N   UNL     1       1.776   4.790  21.137  0.00  0.00    +0.000 NA
ATOM      4  C   UNL     1       2.275   5.885  20.543  0.00  0.00    +0.000 A 
ATOM      5  N   UNL     1       1.842   7.115  21.067  0.00  0.00    +0.000 N 
ATOM      6  N   UNL     1       3.183   5.827  19.547  0.00  0.00    +0.000 NA
ATOM      7  C   UNL     1       3.674   4.633  19.122  0.00  0.00    +0.000 A 
ATOM      8  N   UNL     1       4.610   4.682  18.065  0.00  0.00    +0.000 N 
ATOM      9  C   UNL     1       4.681   3.600  17.075  0.00  0.00    +0.000 C 
ATOM     10  C   UNL     1       3.212   3.482  19.747  0.00  0.00    +0.000 A 
ATOM     11  H   UNL     1       1.148   6.952  21.789  0.00  0.00    +0.000 HD
ENDROOT
BRANCH   8  12
ATOM     12  C   UNL     1       5.642   5.656  17.896  0.00  0.00    +0.000 A 
ATOM     13  C   UNL     1       5.444   6.799  17.105  0.00  0.00    +0.000 A 
ATOM     14  C   UNL     1       6.390   7.831  17.065  0.00  0.00    +0.000 A 
ATOM     15  C   UNL     1       7.568   7.739  17.802  0.00  0.00    +0.000 A 
ATOM     16  C   UNL     1       7.820   6.593  18.542  0.00  0.00    +0.000 A 
ATOM     17  C   UNL     1       6.875   5.563  18.575  0.00  0.00    +0.000 A 
ENDBRANCH   8  12
BRANCH  10  18
ATOM     18  N   UNL     1       3.798   2.193  19.506  0.00  0.00    +0.000 N 
ATOM     19  O   UNL     1       3.228   1.454  18.690  0.00  0.00    +0.000 OA
ATOM     20  O   UNL     1       4.829   1.901  20.124  0.00  0.00    +0.000 OA
ENDBRANCH  10  18
BRANCH   5  21
ATOM     21  N   UNL     1       1.749   8.192  20.241  0.00  0.00    +0.000 NA
ATOM     22  C   UNL     1       0.792   9.021  20.523  0.00  0.00    +0.000 C 
BRANCH  22  23
ATOM     23  C   UNL     1       0.575  10.250  19.731  0.00  0.00    +0.000 A 
ATOM     24  C   UNL     1       1.586  11.208  19.622  0.00  0.00    +0.000 A 
ATOM     25  C   UNL     1       1.374  12.372  18.889  0.00  0.00    +0.000 A 
ATOM     26  C   UNL     1       0.138  12.586  18.266  0.00  0.00    +0.000 A 
ATOM     27  C   UNL     1      -0.874  11.631  18.376  0.00  0.00    +0.000 A 
ATOM     28  C   UNL     1      -0.658  10.459  19.106  0.00  0.00    +0.000 A 
ENDBRANCH  22  23
ENDBRANCH   5  21
TORSDOF 4
ENDMDL
MODEL 3
REMARK VINA RESULT:      -8.3      0.377      1.298
REMARK  Name = 
REMARK  6 active torsions:
REMARK  status: ('A' for Active; 'I' for Inactive)
REMARK    1  A    between atoms: C_1  and  C_2
REMARK    2  A    between atoms: N_5  and  N_6
REMARK    3  A    between atoms: C_7  and  C_8
REMARK    4  A    between atoms: N_16  and  C_17
REMARK    5  A    between atoms: N_16  and  C_18
REMARK    6  A    between atoms: C_24  and  N_25
REMARK                            x       y       z     vdW  Elec       q    Type
REMARK                         _______ _______ _______ _____ _____    ______ ____
ROOT
ATOM      1  C   UNL     1       1.641   2.397  21.347  0.00  0.00    +0.000 C 
ATOM      2  C   UNL     1       2.271   3.593  20.689  0.00  0.00    +0.000 A 
ATOM      3  N   UNL     1       1.813   4.794  21.105  0.00  0.00    +0.000 NA
ATOM      4  C   UNL     1       2.324   5.892  20.526  0.00  0.00    +0.000 A 
ATOM      5  N   UNL     1       1.894   7.119  21.059  0.00  0.00    +0.000 N 
ATOM      6  N   UNL     1       3.240   5.839  19.537  0.00  0.00    +0.000 NA
ATOM      7  C   UNL     1       3.728   4.647  19.103  0.00  0.00    +0.000 A 
ATOM      8  N   UNL     1       4.672   4.702  18.055  0.00  0.00    +0.000 N 
ATOM      9  C   UNL     1       4.746   3.629  17.055  0.00  0.00    +0.000 C 
ATOM     10  C   UNL     1       3.254   3.491  19.713  0.00  0.00    +0.000 A 
ATOM     11  H   UNL     1       1.193   6.952  21.774  0.00  0.00    +0.000 HD
ENDROOT
BRANCH   8  12
ATOM     12  C   UNL     1       5.712   5.671  17.905  0.00  0.00    +0.000 A 
ATOM     13  C   UNL     1       5.536   6.808  17.100  0.00  0.00    +0.000 A 
ATOM     14  C   UNL     1       6.487   7.838  17.076  0.00  0.00    +0.000 A 
ATOM     15  C   UNL     1       7.646   7.748  17.843  0.00  0.00    +0.000 A 
ATOM     16  C   UNL     1       7.876   6.607  18.598  0.00  0.00    +0.000 A 
ATOM     17  C   UNL     1       6.927   5.580  18.615  0.00  0.00    +0.000 A 
ENDBRANCH   8  12
BRANCH  10  18
ATOM     18  N   UNL     1       3.835   2.202  19.463  0.00  0.00    +0.000 N 
ATOM     19  O   UNL     1       4.868   1.915  20.084  0.00  0.00    +0.000 OA
ATOM     20  O   UNL     1       3.271   1.462  18.647  0.00  0.00    +0.000 OA
ENDBRANCH  10  18
BRANCH   5  21
ATOM     21  N   UNL     1       1.814   8.205  20.243  0.00  0.00    +0.000 NA
ATOM     22  C   UNL     1       0.834   9.016  20.501  0.00  0.00    +0.000 C 
BRANCH  22  23
ATOM     23  C   UNL     1       0.626  10.251  19.717  0.00  0.00    +0.000 A 
ATOM     24  C   UNL     1      -0.653  10.599  19.273  0.00  0.00    +0.000 A 
ATOM     25  C   UNL     1      -0.843  11.754  18.521  0.00  0.00    +0.000 A 
ATOM     26  C   UNL     1       0.252  12.566  18.201  0.00  0.00    +0.000 A 
ATOM     27  C   UNL     1       1.530  12.219  18.643  0.00  0.00    +0.000 A 
ATOM     28  C   UNL     1       1.720  11.063  19.404  0.00  0.00    +0.000 A 
ENDBRANCH  22  23
ENDBRANCH   5  21
TORSDOF 4
ENDMDL
MODEL 4
REMARK VINA RESULT:      -7.9      2.871      6.306
REMARK  Name = 
REMARK  6 active torsions:
REMARK  status: ('A' for Active; 'I' for Inactive)
REMARK    1  A    between atoms: C_1  and  C_2
REMARK    2  A    between atoms: N_5  and  N_6
REMARK    3  A    between atoms: C_7  and  C_8
REMARK    4  A    between atoms: N_16  and  C_17
REMARK    5  A    between atoms: N_16  and  C_18
REMARK    6  A    between atoms: C_24  and  N_25
REMARK                            x       y       z     vdW  Elec       q    Type
REMARK                         _______ _______ _______ _____ _____    ______ ____
ROOT
ATOM      1  C   UNL     1       5.773   3.086  15.964  0.00  0.00    +0.000 C 
ATOM      2  C   UNL     1       5.470   4.382  16.664  0.00  0.00    +0.000 A 
ATOM      3  N   UNL     1       6.373   5.370  16.475  0.00  0.00    +0.000 NA
ATOM      4  C   UNL     1       6.162   6.537  17.103  0.00  0.00    +0.000 A 
ATOM      5  N   UNL     1       7.069   7.566  16.798  0.00  0.00    +0.000 N 
ATOM      6  N   UNL     1       5.115   6.745  17.928  0.00  0.00    +0.000 NA
ATOM      7  C   UNL     1       4.185   5.775  18.131  0.00  0.00    +0.000 A 
ATOM      8  N   UNL     1       3.137   6.090  19.024  0.00  0.00    +0.000 N 
ATOM      9  C   UNL     1       2.525   5.049  19.859  0.00  0.00    +0.000 C 
ATOM     10  C   UNL     1       4.348   4.569  17.460  0.00  0.00    +0.000 A 
ATOM     11  H   UNL     1       7.793   7.210  16.182  0.00  0.00    +0.000 HD
ENDROOT
BRANCH   8  12
ATOM     12  C   UNL     1       2.474   7.352  19.136  0.00  0.00    +0.000 A 
ATOM     13  C   UNL     1       2.341   8.205  18.029  0.00  0.00    +0.000 A 
ATOM     14  C   UNL     1       1.556   9.365  18.094  0.00  0.00    +0.000 A 
ATOM     15  C   UNL     1       0.900   9.709  19.273  0.00  0.00    +0.000 A 
ATOM     16  C   UNL     1       1.065   8.919  20.400  0.00  0.00    +0.000 A 
ATOM     17  C   UNL     1       1.853   7.766  20.333  0.00  0.00    +0.000 A 
ENDBRANCH   8  12
BRANCH  10  18
ATOM     18  N   UNL     1       3.333   3.553  17.456  0.00  0.00    +0.000 N 
ATOM     19  O   UNL     1       3.520   2.562  18.177  0.00  0.00    +0.000 OA
ATOM     20  O   UNL     1       2.342   3.729  16.737  0.00  0.00    +0.000 OA
ENDBRANCH  10  18
BRANCH   5  21
ATOM     21  N   UNL     1       7.356   8.498  17.747  0.00  0.00    +0.000 NA
ATOM     22  C   UNL     1       8.343   9.290  17.458  0.00  0.00    +0.000 C 
BRANCH  22  23
ATOM     23  C   UNL     1       8.763  10.369  18.377  0.00  0.00    +0.000 A 
ATOM     24  C   UNL     1       8.734  11.703  17.960  0.00  0.00    +0.000 A 
ATOM     25  C   UNL     1       9.145  12.715  18.822  0.00  0.00    +0.000 A 
ATOM     26  C   UNL     1       9.597  12.395  20.108  0.00  0.00    +0.000 A 
ATOM     27  C   UNL     1       9.628  11.063  20.525  0.00  0.00    +0.000 A 
ATOM     28  C   UNL     1       9.208  10.047  19.662  0.00  0.00    +0.000 A 
ENDBRANCH  22  23
ENDBRANCH   5  21
TORSDOF 4
ENDMDL
MODEL 5
REMARK VINA RESULT:      -7.8      2.918      6.326
REMARK  Name = 
REMARK  6 active torsions:
REMARK  status: ('A' for Active; 'I' for Inactive)
REMARK    1  A    between atoms: C_1  and  C_2
REMARK    2  A    between atoms: N_5  and  N_6
REMARK    3  A    between atoms: C_7  and  C_8
REMARK    4  A    between atoms: N_16  and  C_17
REMARK    5  A    between atoms: N_16  and  C_18
REMARK    6  A    between atoms: C_24  and  N_25
REMARK                            x       y       z     vdW  Elec       q    Type
REMARK                         _______ _______ _______ _____ _____    ______ ____
ROOT
ATOM      1  C   UNL     1       5.898   3.158  15.994  0.00  0.00    +0.000 C 
ATOM      2  C   UNL     1       5.568   4.452  16.686  0.00  0.00    +0.000 A 
ATOM      3  N   UNL     1       6.454   5.454  16.498  0.00  0.00    +0.000 NA
ATOM      4  C   UNL     1       6.219   6.620  17.120  0.00  0.00    +0.000 A 
ATOM      5  N   UNL     1       7.110   7.663  16.816  0.00  0.00    +0.000 N 
ATOM      6  N   UNL     1       5.163   6.814  17.937  0.00  0.00    +0.000 NA
ATOM      7  C   UNL     1       4.248   5.829  18.138  0.00  0.00    +0.000 A 
ATOM      8  N   UNL     1       3.189   6.130  19.022  0.00  0.00    +0.000 N 
ATOM      9  C   UNL     1       2.589   5.082  19.858  0.00  0.00    +0.000 C 
ATOM     10  C   UNL     1       4.437   4.623  17.473  0.00  0.00    +0.000 A 
ATOM     11  H   UNL     1       7.844   7.317  16.207  0.00  0.00    +0.000 HD
ENDROOT
BRANCH   8  12
ATOM     12  C   UNL     1       2.504   7.380  19.124  0.00  0.00    +0.000 A 
ATOM     13  C   UNL     1       2.334   8.211  18.004  0.00  0.00    +0.000 A 
ATOM     14  C   UNL     1       1.528   9.356  18.063  0.00  0.00    +0.000 A 
ATOM     15  C   UNL     1       0.886   9.709  19.247  0.00  0.00    +0.000 A 
ATOM     16  C   UNL     1       1.087   8.942  20.385  0.00  0.00    +0.000 A 
ATOM     17  C   UNL     1       1.896   7.804  20.324  0.00  0.00    +0.000 A 
ENDBRANCH   8  12
BRANCH  10  18
ATOM     18  N   UNL     1       3.440   3.590  17.467  0.00  0.00    +0.000 N 
ATOM     19  O   UNL     1       2.454   3.756  16.735  0.00  0.00    +0.000 OA
ATOM     20  O   UNL     1       3.625   2.603  18.191  0.00  0.00    +0.000 OA
ENDBRANCH  10  18
BRANCH   5  21
ATOM     21  N   UNL     1       7.375   8.605  17.762  0.00  0.00    +0.000 NA
ATOM     22  C   UNL     1       8.422   9.336  17.533  0.00  0.00    +0.000 C 
BRANCH  22  23
ATOM     23  C   UNL     1       8.828  10.416  18.456  0.00  0.00    +0.000 A 
ATOM     24  C   UNL     1       9.243  10.115  19.757  0.00  0.00    +0.000 A 
ATOM     25  C   UNL     1       9.610  11.135  20.629  0.00  0.00    +0.000 A 
ATOM     26  C   UNL     1       9.555  12.468  20.205  0.00  0.00    +0.000 A 
ATOM     27  C   UNL     1       9.140  12.771  18.907  0.00  0.00    +0.000 A 
ATOM     28  C   UNL     1       8.779  11.746  18.028  0.00  0.00    +0.000 A 
ENDBRANCH  22  23
ENDBRANCH   5  21
TORSDOF 4
ENDMDL
MODEL 6
REMARK VINA RESULT:      -7.6      2.800      6.231
REMARK  Name = 
REMARK  6 active torsions:
REMARK  status: ('A' for Active; 'I' for Inactive)
REMARK    1  A    between atoms: C_1  and  C_2
REMARK    2  A    between atoms: N_5  and  N_6
REMARK    3  A    between atoms: C_7  and  C_8
REMARK    4  A    between atoms: N_16  and  C_17
REMARK    5  A    between atoms: N_16  and  C_18
REMARK    6  A    between atoms: C_24  and  N_25
REMARK                            x       y       z     vdW  Elec       q    Type
REMARK                         _______ _______ _______ _____ _____    ______ ____
ROOT
ATOM      1  C   UNL     1       5.602   3.007  16.210  0.00  0.00    +0.000 C 
ATOM      2  C   UNL     1       5.285   4.345  16.819  0.00  0.00    +0.000 A 
ATOM      3  N   UNL     1       6.182   5.324  16.571  0.00  0.00    +0.000 NA
ATOM      4  C   UNL     1       5.959   6.529  17.119  0.00  0.00    +0.000 A 
ATOM      5  N   UNL     1       6.862   7.541  16.753  0.00  0.00    +0.000 N 
ATOM      6  N   UNL     1       4.905   6.785  17.921  0.00  0.00    +0.000 NA
ATOM      7  C   UNL     1       3.979   5.824  18.181  0.00  0.00    +0.000 A 
ATOM      8  N   UNL     1       2.923   6.190  19.044  0.00  0.00    +0.000 N 
ATOM      9  C   UNL     1       2.311   5.203  19.942  0.00  0.00    +0.000 C 
ATOM     10  C   UNL     1       4.155   4.577  17.593  0.00  0.00    +0.000 A 
ATOM     11  H   UNL     1       7.592   7.150  16.167  0.00  0.00    +0.000 HD
ENDROOT
BRANCH   8  12
ATOM     12  C   UNL     1       2.251   7.451  19.067  0.00  0.00    +0.000 A 
ATOM     13  C   UNL     1       1.713   7.968  20.256  0.00  0.00    +0.000 A 
ATOM     14  C   UNL     1       1.197   9.270  20.317  0.00  0.00    +0.000 A 
ATOM     15  C   UNL     1       1.190  10.081  19.185  0.00  0.00    +0.000 A 
ATOM     16  C   UNL     1       1.657   9.574  17.981  0.00  0.00    +0.000 A 
ATOM     17  C   UNL     1       2.166   8.273  17.924  0.00  0.00    +0.000 A 
ENDBRANCH   8  12
BRANCH  10  18
ATOM     18  N   UNL     1       3.147   3.555  17.650  0.00  0.00    +0.000 N 
ATOM     19  O   UNL     1       2.179   3.671  16.885  0.00  0.00    +0.000 OA
ATOM     20  O   UNL     1       3.306   2.630  18.456  0.00  0.00    +0.000 OA
ENDBRANCH  10  18
BRANCH   5  21
ATOM     21  N   UNL     1       7.136   8.537  17.639  0.00  0.00    +0.000 NA
ATOM     22  C   UNL     1       8.284   9.119  17.474  0.00  0.00    +0.000 C 
BRANCH  22  23
ATOM     23  C   UNL     1       8.718  10.233  18.344  0.00  0.00    +0.000 A 
ATOM     24  C   UNL     1       8.684  11.549  17.875  0.00  0.00    +0.000 A 
ATOM     25  C   UNL     1       9.108  12.595  18.689  0.00  0.00    +0.000 A 
ATOM     26  C   UNL     1       9.578  12.325  19.981  0.00  0.00    +0.000 A 
ATOM     27  C   UNL     1       9.614  11.011  20.449  0.00  0.00    +0.000 A 
ATOM     28  C   UNL     1       9.181   9.961  19.634  0.00  0.00    +0.000 A 
ENDBRANCH  22  23
ENDBRANCH   5  21
TORSDOF 4
ENDMDL
MODEL 7
REMARK VINA RESULT:      -7.5      2.322      6.044
REMARK  Name = 
REMARK  6 active torsions:
REMARK  status: ('A' for Active; 'I' for Inactive)
REMARK    1  A    between atoms: C_1  and  C_2
REMARK    2  A    between atoms: N_5  and  N_6
REMARK    3  A    between atoms: C_7  and  C_8
REMARK    4  A    between atoms: N_16  and  C_17
REMARK    5  A    between atoms: N_16  and  C_18
REMARK    6  A    between atoms: C_24  and  N_25
REMARK                            x       y       z     vdW  Elec       q    Type
REMARK                         _______ _______ _______ _____ _____    ______ ____
ROOT
ATOM      1  C   UNL     1       4.269   2.103  17.325  0.00  0.00    +0.000 C 
ATOM      2  C   UNL     1       4.275   3.553  17.725  0.00  0.00    +0.000 A 
ATOM      3  N   UNL     1       5.377   4.250  17.370  0.00  0.00    +0.000 NA
ATOM      4  C   UNL     1       5.442   5.541  17.731  0.00  0.00    +0.000 A 
ATOM      5  N   UNL     1       6.558   6.251  17.254  0.00  0.00    +0.000 N 
ATOM      6  N   UNL     1       4.478   6.150  18.450  0.00  0.00    +0.000 NA
ATOM      7  C   UNL     1       3.352   5.479  18.813  0.00  0.00    +0.000 A 
ATOM      8  N   UNL     1       2.411   6.204  19.577  0.00  0.00    +0.000 N 
ATOM      9  C   UNL     1       1.584   5.530  20.586  0.00  0.00    +0.000 C 
ATOM     10  C   UNL     1       3.231   4.153  18.417  0.00  0.00    +0.000 A 
ATOM     11  H   UNL     1       7.176   5.619  16.757  0.00  0.00    +0.000 HD
ENDROOT
BRANCH   8  12
ATOM     12  C   UNL     1       2.054   7.576  19.395  0.00  0.00    +0.000 A 
ATOM     13  C   UNL     1       2.177   8.201  18.143  0.00  0.00    +0.000 A 
ATOM     14  C   UNL     1       1.679   9.492  17.922  0.00  0.00    +0.000 A 
ATOM     15  C   UNL     1       1.063  10.199  18.952  0.00  0.00    +0.000 A 
ATOM     16  C   UNL     1       0.985   9.631  20.215  0.00  0.00    +0.000 A 
ATOM     17  C   UNL     1       1.487   8.345  20.433  0.00  0.00    +0.000 A 
ENDBRANCH   8  12
BRANCH  10  18
ATOM     18  N   UNL     1       2.012   3.413  18.585  0.00  0.00    +0.000 N 
ATOM     19  O   UNL     1       1.102   3.627  17.771  0.00  0.00    +0.000 OA
ATOM     20  O   UNL     1       1.945   2.614  19.528  0.00  0.00    +0.000 OA
ENDBRANCH  10  18
BRANCH   5  21
ATOM     21  N   UNL     1       7.057   7.276  17.997  0.00  0.00    +0.000 NA
ATOM     22  C   UNL     1       7.689   8.187  17.323  0.00  0.00    +0.000 C 
BRANCH  22  23
ATOM     23  C   UNL     1       8.271   9.374  17.983  0.00  0.00    +0.000 A 
ATOM     24  C   UNL     1       8.164  10.636  17.391  0.00  0.00    +0.000 A 
ATOM     25  C   UNL     1       8.727  11.749  18.007  0.00  0.00    +0.000 A 
ATOM     26  C   UNL     1       9.410  11.603  19.221  0.00  0.00    +0.000 A 
ATOM     27  C   UNL     1       9.519  10.343  19.812  0.00  0.00    +0.000 A 
ATOM     28  C   UNL     1       8.947   9.226  19.198  0.00  0.00    +0.000 A 
ENDBRANCH  22  23
ENDBRANCH   5  21
TORSDOF 4
ENDMDL
MODEL 8
REMARK VINA RESULT:      -7.3      2.268      5.879
REMARK  Name = 
REMARK  6 active torsions:
REMARK  status: ('A' for Active; 'I' for Inactive)
REMARK    1  A    between atoms: C_1  and  C_2
REMARK    2  A    between atoms: N_5  and  N_6
REMARK    3  A    between atoms: C_7  and  C_8
REMARK    4  A    between atoms: N_16  and  C_17
REMARK    5  A    between atoms: N_16  and  C_18
REMARK    6  A    between atoms: C_24  and  N_25
REMARK                            x       y       z     vdW  Elec       q    Type
REMARK                         _______ _______ _______ _____ _____    ______ ____
ROOT
ATOM      1  C   UNL     1       4.017   1.841  18.351  0.00  0.00    +0.000 C 
ATOM      2  C   UNL     1       4.094   3.333  18.527  0.00  0.00    +0.000 A 
ATOM      3  N   UNL     1       5.238   3.911  18.100  0.00  0.00    +0.000 NA
ATOM      4  C   UNL     1       5.366   5.237  18.263  0.00  0.00    +0.000 A 
ATOM      5  N   UNL     1       6.526   5.809  17.714  0.00  0.00    +0.000 N 
ATOM      6  N   UNL     1       4.422   5.996  18.857  0.00  0.00    +0.000 NA
ATOM      7  C   UNL     1       3.256   5.446  19.287  0.00  0.00    +0.000 A 
ATOM      8  N   UNL     1       2.342   6.325  19.908  0.00  0.00    +0.000 N 
ATOM      9  C   UNL     1       1.461   5.855  20.985  0.00  0.00    +0.000 C 
ATOM     10  C   UNL     1       3.071   4.083  19.093  0.00  0.00    +0.000 A 
ATOM     11  H   UNL     1       7.119   5.078  17.334  0.00  0.00    +0.000 HD
ENDROOT
BRANCH   8  12
ATOM     12  C   UNL     1       2.062   7.670  19.511  0.00  0.00    +0.000 A 
ATOM     13  C   UNL     1       2.344   8.120  18.211  0.00  0.00    +0.000 A 
ATOM     14  C   UNL     1       1.927   9.382  17.771  0.00  0.00    +0.000 A 
ATOM     15  C   UNL     1       1.232  10.235  18.625  0.00  0.00    +0.000 A 
ATOM     16  C   UNL     1       0.995   9.843  19.934  0.00  0.00    +0.000 A 
ATOM     17  C   UNL     1       1.418   8.584  20.371  0.00  0.00    +0.000 A 
ENDBRANCH   8  12
BRANCH  10  18
ATOM     18  N   UNL     1       1.811   3.439  19.339  0.00  0.00    +0.000 N 
ATOM     19  O   UNL     1       1.676   2.849  20.420  0.00  0.00    +0.000 OA
ATOM     20  O   UNL     1       0.943   3.513  18.460  0.00  0.00    +0.000 OA
ENDBRANCH  10  18
BRANCH   5  21
ATOM     21  N   UNL     1       7.066   6.909  18.306  0.00  0.00    +0.000 NA
ATOM     22  C   UNL     1       7.581   7.776  17.490  0.00  0.00    +0.000 C 
BRANCH  22  23
ATOM     23  C   UNL     1       8.187   9.032  17.977  0.00  0.00    +0.000 A 
ATOM     24  C   UNL     1       9.027   9.024  19.095  0.00  0.00    +0.000 A 
ATOM     25  C   UNL     1       9.584  10.211  19.562  0.00  0.00    +0.000 A 
ATOM     26  C   UNL     1       9.294  11.418  18.914  0.00  0.00    +0.000 A 
ATOM     27  C   UNL     1       8.455  11.428  17.799  0.00  0.00    +0.000 A 
ATOM     28  C   UNL     1       7.902  10.235  17.325  0.00  0.00    +0.000 A 
ENDBRANCH  22  23
ENDBRANCH   5  21
TORSDOF 4
ENDMDL
MODEL 9
REMARK VINA RESULT:      -7.2      2.565      6.256
REMARK  Name = 
REMARK  6 active torsions:
REMARK  status: ('A' for Active; 'I' for Inactive)
REMARK    1  A    between atoms: C_1  and  C_2
REMARK    2  A    between atoms: N_5  and  N_6
REMARK    3  A    between atoms: C_7  and  C_8
REMARK    4  A    between atoms: N_16  and  C_17
REMARK    5  A    between atoms: N_16  and  C_18
REMARK    6  A    between atoms: C_24  and  N_25
REMARK                            x       y       z     vdW  Elec       q    Type
REMARK                         _______ _______ _______ _____ _____    ______ ____
ROOT
ATOM      1  C   UNL     1       4.582   2.900  17.011  0.00  0.00    +0.000 C 
ATOM      2  C   UNL     1       4.429   4.338  17.423  0.00  0.00    +0.000 A 
ATOM      3  N   UNL     1       5.403   5.172  16.999  0.00  0.00    +0.000 NA
ATOM      4  C   UNL     1       5.326   6.460  17.366  0.00  0.00    +0.000 A 
ATOM      5  N   UNL     1       6.304   7.309  16.819  0.00  0.00    +0.000 N 
ATOM      6  N   UNL     1       4.345   6.938  18.158  0.00  0.00    +0.000 NA
ATOM      7  C   UNL     1       3.344   6.127  18.593  0.00  0.00    +0.000 A 
ATOM      8  N   UNL     1       2.374   6.723  19.428  0.00  0.00    +0.000 N 
ATOM      9  C   UNL     1       1.716   5.947  20.487  0.00  0.00    +0.000 C 
ATOM     10  C   UNL     1       3.368   4.796  18.194  0.00  0.00    +0.000 A 
ATOM     11  H   UNL     1       6.962   6.763  16.273  0.00  0.00    +0.000 HD
ENDROOT
BRANCH   8  12
ATOM     12  C   UNL     1       1.830   8.037  19.286  0.00  0.00    +0.000 A 
ATOM     13  C   UNL     1       1.852   8.704  18.050  0.00  0.00    +0.000 A 
ATOM     14  C   UNL     1       1.180   9.920  17.867  0.00  0.00    +0.000 A 
ATOM     15  C   UNL     1       0.484  10.509  18.920  0.00  0.00    +0.000 A 
ATOM     16  C   UNL     1       0.500   9.905  20.169  0.00  0.00    +0.000 A 
ATOM     17  C   UNL     1       1.176   8.695  20.348  0.00  0.00    +0.000 A 
ENDBRANCH   8  12
BRANCH  10  18
ATOM     18  N   UNL     1       2.270   3.905  18.440  0.00  0.00    +0.000 N 
ATOM     19  O   UNL     1       2.367   3.139  19.410  0.00  0.00    +0.000 OA
ATOM     20  O   UNL     1       1.301   3.955  17.672  0.00  0.00    +0.000 OA
ENDBRANCH  10  18
BRANCH   5  21
ATOM     21  N   UNL     1       6.718   8.390  17.535  0.00  0.00    +0.000 NA
ATOM     22  C   UNL     1       7.987   8.648  17.456  0.00  0.00    +0.000 C 
BRANCH  22  23
ATOM     23  C   UNL     1       8.587   9.802  18.159  0.00  0.00    +0.000 A 
ATOM     24  C   UNL     1       9.172   9.636  19.417  0.00  0.00    +0.000 A 
ATOM     25  C   UNL     1       9.722  10.726  20.084  0.00  0.00    +0.000 A 
ATOM     26  C   UNL     1       9.680  11.996  19.496  0.00  0.00    +0.000 A 
ATOM     27  C   UNL     1       9.095  12.164  18.240  0.00  0.00    +0.000 A 
ATOM     28  C   UNL     1       8.549  11.067  17.566  0.00  0.00    +0.000 A 
ENDBRANCH  22  23
ENDBRANCH   5  21
TORSDOF 4
ENDMDL
