MODEL 1
REMARK VINA RESULT:      -7.9      0.000      0.000
REMARK  Name = 
REMARK  3 active torsions:
REMARK  status: ('A' for Active; 'I' for Inactive)
REMARK    1  A    between atoms: C_1  and  C_2
REMARK    2  A    between atoms: C_16  and  C_18
REMARK    3  A    between atoms: C_18  and  C_19
REMARK                            x       y       z     vdW  Elec       q    Type
REMARK                         _______ _______ _______ _____ _____    ______ ____
ROOT
ATOM      1  C   UNL     1       2.251   5.052  20.947  0.00  0.00    +0.000 C 
ATOM      2  C   UNL     1       2.691   5.934  19.813  0.00  0.00    +0.000 A 
ATOM      3  N   UNL     1       3.587   5.392  18.959  0.00  0.00    +0.000 NA
ATOM      4  C   UNL     1       3.978   6.105  17.893  0.00  0.00    +0.000 A 
ATOM      5  N   UNL     1       4.785   5.516  16.955  0.00  0.00    +0.000 N 
ATOM      6  C   UNL     1       5.313   6.310  15.848  0.00  0.00    +0.000 C 
ATOM      7  C   UNL     1       5.505   5.385  14.635  0.00  0.00    +0.000 C 
ATOM      8  O   UNL     1       6.329   4.248  14.953  0.00  0.00    +0.000 OA
ATOM      9  C   UNL     1       5.747   3.490  16.029  0.00  0.00    +0.000 C 
ATOM     10  C   UNL     1       5.584   4.344  17.298  0.00  0.00    +0.000 C 
ATOM     11  N   UNL     1       3.522   7.339  17.654  0.00  0.00    +0.000 NA
ATOM     12  C   UNL     1       2.631   7.876  18.514  0.00  0.00    +0.000 A 
ATOM     13  C   UNL     1       2.177   7.208  19.640  0.00  0.00    +0.000 A 
ATOM     14  C   UNL     1       1.148   7.811  20.551  0.00  0.00    +0.000 C 
ATOM     15  N   UNL     1       0.934   9.237  20.301  0.00  0.00    +0.000 N 
ATOM     16  C   UNL     1       0.858  10.101  21.379  0.00  0.00    +0.000 C 
ATOM     17  O   UNL     1       0.982   9.697  22.539  0.00  0.00    +0.000 OA
ATOM     18  C   UNL     1       0.858   9.604  18.888  0.00  0.00    +0.000 C 
ATOM     19  C   UNL     1       2.170   9.271  18.190  0.00  0.00    +0.000 C 
ENDROOT
BRANCH  16  20
ATOM     20  C   UNL     1       0.610  11.578  21.136  0.00  0.00    +0.000 C 
BRANCH  20  21
ATOM     21  C   UNL     1      -0.783  12.012  21.507  0.00  0.00    +0.000 A 
ATOM     22  C   UNL     1      -1.189  12.035  22.842  0.00  0.00    +0.000 A 
ATOM     23  C   UNL     1      -2.508  12.363  23.142  0.00  0.00    +0.000 A 
ATOM     24  C   UNL     1      -3.388  12.653  22.108  0.00  0.00    +0.000 A 
ATOM     25  C   UNL     1      -2.906  12.614  20.811  0.00  0.00    +0.000 A 
ATOM     26  N   UNL     1      -1.628  12.307  20.488  0.00  0.00    +0.000 NA
ENDBRANCH  20  21
ENDBRANCH  16  20
TORSDOF 2
ENDMDL
MODEL 2
REMARK VINA RESULT:      -7.6      1.810      2.852
REMARK  Name = 
REMARK  3 active torsions:
REMARK  status: ('A' for Active; 'I' for Inactive)
REMARK    1  A    between atoms: C_1  and  C_2
REMARK    2  A    between atoms: C_16  and  C_18
REMARK    3  A    between atoms: C_18  and  C_19
REMARK                            x       y       z     vdW  Elec       q    Type
REMARK                         _______ _______ _______ _____ _____    ______ ____
ROOT
ATOM      1  C   UNL     1       2.208   5.661  21.037  0.00  0.00    +0.000 C 
ATOM      2  C   UNL     1       2.620   6.419  19.808  0.00  0.00    +0.000 A 
ATOM      3  N   UNL     1       3.544   5.817  19.028  0.00  0.00    +0.000 NA
ATOM      4  C   UNL     1       3.914   6.414  17.885  0.00  0.00    +0.000 A 
ATOM      5  N   UNL     1       4.752   5.753  17.026  0.00  0.00    +0.000 N 
ATOM      6  C   UNL     1       5.256   6.431  15.833  0.00  0.00    +0.000 C 
ATOM      7  C   UNL     1       5.496   5.376  14.741  0.00  0.00    +0.000 C 
ATOM      8  O   UNL     1       6.364   4.322  15.194  0.00  0.00    +0.000 OA
ATOM      9  C   UNL     1       5.805   3.673  16.352  0.00  0.00    +0.000 C 
ATOM     10  C   UNL     1       5.596   4.665  17.510  0.00  0.00    +0.000 C 
ATOM     11  N   UNL     1       3.408   7.591  17.498  0.00  0.00    +0.000 NA
ATOM     12  C   UNL     1       2.489   8.188  18.285  0.00  0.00    +0.000 A 
ATOM     13  C   UNL     1       2.055   7.640  19.482  0.00  0.00    +0.000 A 
ATOM     14  C   UNL     1       0.994   8.303  20.311  0.00  0.00    +0.000 C 
ATOM     15  N   UNL     1       0.722   9.679  19.893  0.00  0.00    +0.000 N 
ATOM     16  C   UNL     1       0.602  10.662  20.859  0.00  0.00    +0.000 C 
ATOM     17  O   UNL     1       0.733  10.405  22.059  0.00  0.00    +0.000 OA
ATOM     18  C   UNL     1       0.642   9.872  18.445  0.00  0.00    +0.000 C 
ATOM     19  C   UNL     1       1.973   9.513  17.796  0.00  0.00    +0.000 C 
ENDROOT
BRANCH  16  20
ATOM     20  C   UNL     1       0.294  12.087  20.440  0.00  0.00    +0.000 C 
BRANCH  20  21
ATOM     21  C   UNL     1       1.529  12.922  20.230  0.00  0.00    +0.000 A 
ATOM     22  C   UNL     1       2.001  13.180  18.942  0.00  0.00    +0.000 A 
ATOM     23  C   UNL     1       3.191  13.886  18.788  0.00  0.00    +0.000 A 
ATOM     24  C   UNL     1       3.880  14.311  19.916  0.00  0.00    +0.000 A 
ATOM     25  C   UNL     1       3.341  14.020  21.157  0.00  0.00    +0.000 A 
ATOM     26  N   UNL     1       2.184  13.343  21.340  0.00  0.00    +0.000 NA
ENDBRANCH  20  21
ENDBRANCH  16  20
TORSDOF 2
ENDMDL
MODEL 3
REMARK VINA RESULT:      -7.3      2.884      8.830
REMARK  Name = 
REMARK  3 active torsions:
REMARK  status: ('A' for Active; 'I' for Inactive)
REMARK    1  A    between atoms: C_1  and  C_2
REMARK    2  A    between atoms: C_16  and  C_18
REMARK    3  A    between atoms: C_18  and  C_19
REMARK                            x       y       z     vdW  Elec       q    Type
REMARK                         _______ _______ _______ _____ _____    ______ ____
ROOT
ATOM      1  C   UNL     1       0.287   9.356  23.039  0.00  0.00    +0.000 C 
ATOM      2  C   UNL     1       0.393   9.841  21.621  0.00  0.00    +0.000 A 
ATOM      3  N   UNL     1      -0.112  11.071  21.381  0.00  0.00    +0.000 NA
ATOM      4  C   UNL     1       0.001  11.588  20.149  0.00  0.00    +0.000 A 
ATOM      5  N   UNL     1      -0.391  12.882  19.929  0.00  0.00    +0.000 N 
ATOM      6  C   UNL     1      -0.382  13.425  18.572  0.00  0.00    +0.000 C 
ATOM      7  C   UNL     1      -0.122  14.938  18.656  0.00  0.00    +0.000 C 
ATOM      8  O   UNL     1      -1.068  15.598  19.517  0.00  0.00    +0.000 OA
ATOM      9  C   UNL     1      -1.014  15.042  20.844  0.00  0.00    +0.000 C 
ATOM     10  C   UNL     1      -1.327  13.535  20.838  0.00  0.00    +0.000 C 
ATOM     11  N   UNL     1       0.586  10.922  19.147  0.00  0.00    +0.000 NA
ATOM     12  C   UNL     1       1.084   9.692  19.393  0.00  0.00    +0.000 A 
ATOM     13  C   UNL     1       1.006   9.085  20.637  0.00  0.00    +0.000 A 
ATOM     14  C   UNL     1       1.613   7.737  20.892  0.00  0.00    +0.000 C 
ATOM     15  N   UNL     1       1.992   7.041  19.662  0.00  0.00    +0.000 N 
ATOM     16  C   UNL     1       1.676   5.701  19.527  0.00  0.00    +0.000 C 
ATOM     17  O   UNL     1       1.072   5.088  20.413  0.00  0.00    +0.000 OA
ATOM     18  C   UNL     1       2.652   7.881  18.664  0.00  0.00    +0.000 C 
ATOM     19  C   UNL     1       1.715   8.997  18.218  0.00  0.00    +0.000 C 
ENDROOT
BRANCH  16  20
ATOM     20  C   UNL     1       2.086   4.960  18.268  0.00  0.00    +0.000 C 
BRANCH  20  21
ATOM     21  C   UNL     1       2.889   3.717  18.547  0.00  0.00    +0.000 A 
ATOM     22  C   UNL     1       2.627   2.532  17.859  0.00  0.00    +0.000 A 
ATOM     23  C   UNL     1       3.333   1.382  18.200  0.00  0.00    +0.000 A 
ATOM     24  C   UNL     1       4.274   1.440  19.219  0.00  0.00    +0.000 A 
ATOM     25  C   UNL     1       4.479   2.655  19.849  0.00  0.00    +0.000 A 
ATOM     26  N   UNL     1       3.815   3.792  19.535  0.00  0.00    +0.000 NA
ENDBRANCH  20  21
ENDBRANCH  16  20
TORSDOF 2
ENDMDL
MODEL 4
REMARK VINA RESULT:      -7.2      2.416      8.707
REMARK  Name = 
REMARK  3 active torsions:
REMARK  status: ('A' for Active; 'I' for Inactive)
REMARK    1  A    between atoms: C_1  and  C_2
REMARK    2  A    between atoms: C_16  and  C_18
REMARK    3  A    between atoms: C_18  and  C_19
REMARK                            x       y       z     vdW  Elec       q    Type
REMARK                         _______ _______ _______ _____ _____    ______ ____
ROOT
ATOM      1  C   UNL     1       0.410   9.257  22.940  0.00  0.00    +0.000 C 
ATOM      2  C   UNL     1       0.483   9.769  21.530  0.00  0.00    +0.000 A 
ATOM      3  N   UNL     1      -0.063  10.987  21.318  0.00  0.00    +0.000 NA
ATOM      4  C   UNL     1       0.019  11.528  20.093  0.00  0.00    +0.000 A 
ATOM      5  N   UNL     1      -0.415  12.813  19.900  0.00  0.00    +0.000 N 
ATOM      6  C   UNL     1      -0.440  13.379  18.553  0.00  0.00    +0.000 C 
ATOM      7  C   UNL     1      -0.225  14.897  18.661  0.00  0.00    +0.000 C 
ATOM      8  O   UNL     1      -1.179  15.513  19.545  0.00  0.00    +0.000 OA
ATOM      9  C   UNL     1      -1.091  14.937  20.861  0.00  0.00    +0.000 C 
ATOM     10  C   UNL     1      -1.358  13.422  20.833  0.00  0.00    +0.000 C 
ATOM     11  N   UNL     1       0.610  10.898  19.073  0.00  0.00    +0.000 NA
ATOM     12  C   UNL     1       1.148   9.679  19.291  0.00  0.00    +0.000 A 
ATOM     13  C   UNL     1       1.105   9.049  20.524  0.00  0.00    +0.000 A 
ATOM     14  C   UNL     1       1.757   7.716  20.749  0.00  0.00    +0.000 C 
ATOM     15  N   UNL     1       2.140   7.053  19.502  0.00  0.00    +0.000 N 
ATOM     16  C   UNL     1       1.863   5.706  19.348  0.00  0.00    +0.000 C 
ATOM     17  O   UNL     1       1.290   5.060  20.230  0.00  0.00    +0.000 OA
ATOM     18  C   UNL     1       2.761   7.930  18.511  0.00  0.00    +0.000 C 
ATOM     19  C   UNL     1       1.785   9.024  18.096  0.00  0.00    +0.000 C 
ENDROOT
BRANCH  16  20
ATOM     20  C   UNL     1       2.279   5.000  18.071  0.00  0.00    +0.000 C 
BRANCH  20  21
ATOM     21  C   UNL     1       3.772   4.888  17.916  0.00  0.00    +0.000 A 
ATOM     22  C   UNL     1       4.354   4.846  16.649  0.00  0.00    +0.000 A 
ATOM     23  C   UNL     1       5.730   4.661  16.542  0.00  0.00    +0.000 A 
ATOM     24  C   UNL     1       6.487   4.515  17.697  0.00  0.00    +0.000 A 
ATOM     25  C   UNL     1       5.835   4.574  18.916  0.00  0.00    +0.000 A 
ATOM     26  N   UNL     1       4.501   4.762  19.053  0.00  0.00    +0.000 NA
ENDBRANCH  20  21
ENDBRANCH  16  20
TORSDOF 2
ENDMDL
MODEL 5
REMARK VINA RESULT:      -7.1      2.371      9.297
REMARK  Name = 
REMARK  3 active torsions:
REMARK  status: ('A' for Active; 'I' for Inactive)
REMARK    1  A    between atoms: C_1  and  C_2
REMARK    2  A    between atoms: C_16  and  C_18
REMARK    3  A    between atoms: C_18  and  C_19
REMARK                            x       y       z     vdW  Elec       q    Type
REMARK                         _______ _______ _______ _____ _____    ______ ____
ROOT
ATOM      1  C   UNL     1       0.335   9.402  23.873  0.00  0.00    +0.000 C 
ATOM      2  C   UNL     1      -0.173   9.986  22.585  0.00  0.00    +0.000 A 
ATOM      3  N   UNL     1      -1.175  10.885  22.702  0.00  0.00    +0.000 NA
ATOM      4  C   UNL     1      -1.637  11.486  21.596  0.00  0.00    +0.000 A 
ATOM      5  N   UNL     1      -2.560  12.491  21.717  0.00  0.00    +0.000 N 
ATOM      6  C   UNL     1      -3.158  13.079  20.521  0.00  0.00    +0.000 C 
ATOM      7  C   UNL     1      -3.515  14.543  20.826  0.00  0.00    +0.000 C 
ATOM      8  O   UNL     1      -4.356  14.660  21.988  0.00  0.00    +0.000 OA
ATOM      9  C   UNL     1      -3.706  14.089  23.139  0.00  0.00    +0.000 C 
ATOM     10  C   UNL     1      -3.376  12.602  22.922  0.00  0.00    +0.000 C 
ATOM     11  N   UNL     1      -1.148  11.217  20.380  0.00  0.00    +0.000 NA
ATOM     12  C   UNL     1      -0.151  10.314  20.271  0.00  0.00    +0.000 A 
ATOM     13  C   UNL     1       0.381   9.646  21.363  0.00  0.00    +0.000 A 
ATOM     14  C   UNL     1       1.524   8.685  21.216  0.00  0.00    +0.000 C 
ATOM     15  N   UNL     1       1.780   8.314  19.824  0.00  0.00    +0.000 N 
ATOM     16  C   UNL     1       2.005   6.984  19.515  0.00  0.00    +0.000 C 
ATOM     17  O   UNL     1       1.979   6.108  20.384  0.00  0.00    +0.000 OA
ATOM     18  C   UNL     1       1.732   9.428  18.877  0.00  0.00    +0.000 C 
ATOM     19  C   UNL     1       0.341  10.051  18.874  0.00  0.00    +0.000 C 
ENDROOT
BRANCH  16  20
ATOM     20  C   UNL     1       2.298   6.590  18.079  0.00  0.00    +0.000 C 
BRANCH  20  21
ATOM     21  C   UNL     1       2.749   5.160  17.939  0.00  0.00    +0.000 A 
ATOM     22  C   UNL     1       1.823   4.144  17.700  0.00  0.00    +0.000 A 
ATOM     23  C   UNL     1       2.264   2.825  17.657  0.00  0.00    +0.000 A 
ATOM     24  C   UNL     1       3.610   2.551  17.859  0.00  0.00    +0.000 A 
ATOM     25  C   UNL     1       4.465   3.617  18.084  0.00  0.00    +0.000 A 
ATOM     26  N   UNL     1       4.069   4.910  18.123  0.00  0.00    +0.000 NA
ENDBRANCH  20  21
ENDBRANCH  16  20
TORSDOF 2
ENDMDL
MODEL 6
REMARK VINA RESULT:      -7.0      1.030      1.094
REMARK  Name = 
REMARK  3 active torsions:
REMARK  status: ('A' for Active; 'I' for Inactive)
REMARK    1  A    between atoms: C_1  and  C_2
REMARK    2  A    between atoms: C_16  and  C_18
REMARK    3  A    between atoms: C_18  and  C_19
REMARK                            x       y       z     vdW  Elec       q    Type
REMARK                         _______ _______ _______ _____ _____    ______ ____
ROOT
ATOM      1  C   UNL     1       1.708   5.802  20.834  0.00  0.00    +0.000 C 
ATOM      2  C   UNL     1       2.314   6.566  19.691  0.00  0.00    +0.000 A 
ATOM      3  N   UNL     1       3.228   5.896  18.955  0.00  0.00    +0.000 NA
ATOM      4  C   UNL     1       3.767   6.501  17.885  0.00  0.00    +0.000 A 
ATOM      5  N   UNL     1       4.595   5.787  17.060  0.00  0.00    +0.000 N 
ATOM      6  C   UNL     1       5.279   6.458  15.957  0.00  0.00    +0.000 C 
ATOM      7  C   UNL     1       5.491   5.439  14.826  0.00  0.00    +0.000 C 
ATOM      8  O   UNL     1       6.186   4.265  15.284  0.00  0.00    +0.000 OA
ATOM      9  C   UNL     1       5.454   3.632  16.350  0.00  0.00    +0.000 C 
ATOM     10  C   UNL     1       5.259   4.582  17.545  0.00  0.00    +0.000 C 
ATOM     11  N   UNL     1       3.438   7.748  17.531  0.00  0.00    +0.000 NA
ATOM     12  C   UNL     1       2.528   8.412  18.274  0.00  0.00    +0.000 A 
ATOM     13  C   UNL     1       1.927   7.862  19.395  0.00  0.00    +0.000 A 
ATOM     14  C   UNL     1       0.881   8.606  20.172  0.00  0.00    +0.000 C 
ATOM     15  N   UNL     1       0.811  10.024  19.817  0.00  0.00    +0.000 N 
ATOM     16  C   UNL     1       0.720  10.964  20.829  0.00  0.00    +0.000 C 
ATOM     17  O   UNL     1       0.712  10.632  22.018  0.00  0.00    +0.000 OA
ATOM     18  C   UNL     1       0.884  10.299  18.383  0.00  0.00    +0.000 C 
ATOM     19  C   UNL     1       2.217   9.814  17.825  0.00  0.00    +0.000 C 
ENDROOT
BRANCH  16  20
ATOM     20  C   UNL     1       0.620  12.436  20.474  0.00  0.00    +0.000 C 
BRANCH  20  21
ATOM     21  C   UNL     1      -0.775  12.985  20.618  0.00  0.00    +0.000 A 
ATOM     22  C   UNL     1      -0.988  14.244  21.179  0.00  0.00    +0.000 A 
ATOM     23  C   UNL     1      -2.294  14.686  21.372  0.00  0.00    +0.000 A 
ATOM     24  C   UNL     1      -3.351  13.862  21.007  0.00  0.00    +0.000 A 
ATOM     25  C   UNL     1      -3.055  12.630  20.451  0.00  0.00    +0.000 A 
ATOM     26  N   UNL     1      -1.797  12.176  20.243  0.00  0.00    +0.000 NA
ENDBRANCH  20  21
ENDBRANCH  16  20
TORSDOF 2
ENDMDL
MODEL 7
REMARK VINA RESULT:      -7.0      1.867      2.525
REMARK  Name = 
REMARK  3 active torsions:
REMARK  status: ('A' for Active; 'I' for Inactive)
REMARK    1  A    between atoms: C_1  and  C_2
REMARK    2  A    between atoms: C_16  and  C_18
REMARK    3  A    between atoms: C_18  and  C_19
REMARK                            x       y       z     vdW  Elec       q    Type
REMARK                         _______ _______ _______ _____ _____    ______ ____
ROOT
ATOM      1  C   UNL     1       1.926   5.877  21.049  0.00  0.00    +0.000 C 
ATOM      2  C   UNL     1       2.413   6.608  19.830  0.00  0.00    +0.000 A 
ATOM      3  N   UNL     1       3.345   5.965  19.092  0.00  0.00    +0.000 NA
ATOM      4  C   UNL     1       3.782   6.538  17.961  0.00  0.00    +0.000 A 
ATOM      5  N   UNL     1       4.628   5.838  17.141  0.00  0.00    +0.000 N 
ATOM      6  C   UNL     1       5.203   6.486  15.964  0.00  0.00    +0.000 C 
ATOM      7  C   UNL     1       5.447   5.413  14.890  0.00  0.00    +0.000 C 
ATOM      8  O   UNL     1       6.256   4.331  15.387  0.00  0.00    +0.000 OA
ATOM      9  C   UNL     1       5.629   3.715  16.526  0.00  0.00    +0.000 C 
ATOM     10  C   UNL     1       5.411   4.724  17.667  0.00  0.00    +0.000 C 
ATOM     11  N   UNL     1       3.335   7.728  17.545  0.00  0.00    +0.000 NA
ATOM     12  C   UNL     1       2.409   8.366  18.290  0.00  0.00    +0.000 A 
ATOM     13  C   UNL     1       1.907   7.846  19.473  0.00  0.00    +0.000 A 
ATOM     14  C   UNL     1       0.840   8.556  20.253  0.00  0.00    +0.000 C 
ATOM     15  N   UNL     1       0.636   9.936  19.814  0.00  0.00    +0.000 N 
ATOM     16  C   UNL     1       0.515  10.932  20.767  0.00  0.00    +0.000 C 
ATOM     17  O   UNL     1       0.589  10.681  21.973  0.00  0.00    +0.000 OA
ATOM     18  C   UNL     1       0.621  10.118  18.363  0.00  0.00    +0.000 C 
ATOM     19  C   UNL     1       1.962   9.705  17.770  0.00  0.00    +0.000 C 
ENDROOT
BRANCH  16  20
ATOM     20  C   UNL     1       0.276  12.364  20.325  0.00  0.00    +0.000 C 
BRANCH  20  21
ATOM     21  C   UNL     1       1.274  13.334  20.900  0.00  0.00    +0.000 A 
ATOM     22  C   UNL     1       0.856  14.368  21.739  0.00  0.00    +0.000 A 
ATOM     23  C   UNL     1       1.794  15.295  22.187  0.00  0.00    +0.000 A 
ATOM     24  C   UNL     1       3.117  15.172  21.783  0.00  0.00    +0.000 A 
ATOM     25  C   UNL     1       3.450  14.114  20.955  0.00  0.00    +0.000 A 
ATOM     26  N   UNL     1       2.565  13.193  20.510  0.00  0.00    +0.000 NA
ENDBRANCH  20  21
ENDBRANCH  16  20
TORSDOF 2
ENDMDL
MODEL 8
REMARK VINA RESULT:      -6.9      3.409      5.220
REMARK  Name = 
REMARK  3 active torsions:
REMARK  status: ('A' for Active; 'I' for Inactive)
REMARK    1  A    between atoms: C_1  and  C_2
REMARK    2  A    between atoms: C_16  and  C_18
REMARK    3  A    between atoms: C_18  and  C_19
REMARK                            x       y       z     vdW  Elec       q    Type
REMARK                         _______ _______ _______ _____ _____    ______ ____
ROOT
ATOM      1  C   UNL     1       0.048   9.392  23.205  0.00  0.00    +0.000 C 
ATOM      2  C   UNL     1       0.647   9.309  21.830  0.00  0.00    +0.000 A 
ATOM      3  N   UNL     1       1.101   8.092  21.458  0.00  0.00    +0.000 NA
ATOM      4  C   UNL     1       1.596   7.937  20.221  0.00  0.00    +0.000 A 
ATOM      5  N   UNL     1       1.938   6.682  19.791  0.00  0.00    +0.000 N 
ATOM      6  C   UNL     1       2.583   6.508  18.491  0.00  0.00    +0.000 C 
ATOM      7  C   UNL     1       2.194   5.128  17.937  0.00  0.00    +0.000 C 
ATOM      8  O   UNL     1       2.505   4.070  18.863  0.00  0.00    +0.000 OA
ATOM      9  C   UNL     1       1.822   4.279  20.113  0.00  0.00    +0.000 C 
ATOM     10  C   UNL     1       2.215   5.621  20.755  0.00  0.00    +0.000 C 
ATOM     11  N   UNL     1       1.666   8.948  19.348  0.00  0.00    +0.000 NA
ATOM     12  C   UNL     1       1.215  10.162  19.729  0.00  0.00    +0.000 A 
ATOM     13  C   UNL     1       0.692  10.408  20.989  0.00  0.00    +0.000 A 
ATOM     14  C   UNL     1       0.152  11.756  21.366  0.00  0.00    +0.000 C 
ATOM     15  N   UNL     1       0.519  12.803  20.411  0.00  0.00    +0.000 N 
ATOM     16  C   UNL     1       0.968  14.020  20.892  0.00  0.00    +0.000 C 
ATOM     17  O   UNL     1       1.078  14.234  22.103  0.00  0.00    +0.000 OA
ATOM     18  C   UNL     1       0.399  12.417  19.006  0.00  0.00    +0.000 C 
ATOM     19  C   UNL     1       1.337  11.254  18.703  0.00  0.00    +0.000 C 
ENDROOT
BRANCH  16  20
ATOM     20  C   UNL     1       1.326  15.124  19.914  0.00  0.00    +0.000 C 
BRANCH  20  21
ATOM     21  C   UNL     1       2.786  15.138  19.547  0.00  0.00    +0.000 A 
ATOM     22  C   UNL     1       3.195  14.831  18.249  0.00  0.00    +0.000 A 
ATOM     23  C   UNL     1       4.557  14.775  17.965  0.00  0.00    +0.000 A 
ATOM     24  C   UNL     1       5.473  15.018  18.980  0.00  0.00    +0.000 A 
ATOM     25  C   UNL     1       4.985  15.322  20.239  0.00  0.00    +0.000 A 
ATOM     26  N   UNL     1       3.669  15.393  20.544  0.00  0.00    +0.000 NA
ENDBRANCH  20  21
ENDBRANCH  16  20
TORSDOF 2
ENDMDL
MODEL 9
REMARK VINA RESULT:      -6.8      2.092      3.582
REMARK  Name = 
REMARK  3 active torsions:
REMARK  status: ('A' for Active; 'I' for Inactive)
REMARK    1  A    between atoms: C_1  and  C_2
REMARK    2  A    between atoms: C_16  and  C_18
REMARK    3  A    between atoms: C_18  and  C_19
REMARK                            x       y       z     vdW  Elec       q    Type
REMARK                         _______ _______ _______ _____ _____    ______ ____
ROOT
ATOM      1  C   UNL     1       1.978  10.085  17.816  0.00  0.00    +0.000 C 
ATOM      2  C   UNL     1       1.758   9.028  18.862  0.00  0.00    +0.000 A 
ATOM      3  N   UNL     1       2.186   7.787  18.543  0.00  0.00    +0.000 NA
ATOM      4  C   UNL     1       2.071   6.809  19.454  0.00  0.00    +0.000 A 
ATOM      5  N   UNL     1       2.619   5.582  19.189  0.00  0.00    +0.000 N 
ATOM      6  C   UNL     1       2.406   4.474  20.118  0.00  0.00    +0.000 C 
ATOM      7  C   UNL     1       3.622   3.536  20.042  0.00  0.00    +0.000 C 
ATOM      8  O   UNL     1       3.877   3.097  18.695  0.00  0.00    +0.000 OA
ATOM      9  C   UNL     1       4.106   4.227  17.833  0.00  0.00    +0.000 C 
ATOM     10  C   UNL     1       2.897   5.178  17.815  0.00  0.00    +0.000 C 
ATOM     11  N   UNL     1       1.535   7.019  20.661  0.00  0.00    +0.000 NA
ATOM     12  C   UNL     1       1.105   8.260  20.970  0.00  0.00    +0.000 A 
ATOM     13  C   UNL     1       1.185   9.324  20.086  0.00  0.00    +0.000 A 
ATOM     14  C   UNL     1       0.744  10.705  20.477  0.00  0.00    +0.000 C 
ATOM     15  N   UNL     1      -0.034  10.725  21.716  0.00  0.00    +0.000 N 
ATOM     16  C   UNL     1      -1.188  11.486  21.770  0.00  0.00    +0.000 C 
ATOM     17  O   UNL     1      -1.580  12.133  20.795  0.00  0.00    +0.000 OA
ATOM     18  C   UNL     1       0.497   9.877  22.783  0.00  0.00    +0.000 C 
ATOM     19  C   UNL     1       0.502   8.420  22.339  0.00  0.00    +0.000 C 
ENDROOT
BRANCH  16  20
ATOM     20  C   UNL     1      -1.990  11.536  23.058  0.00  0.00    +0.000 C 
BRANCH  20  21
ATOM     21  C   UNL     1      -2.969  12.679  23.100  0.00  0.00    +0.000 A 
ATOM     22  C   UNL     1      -2.572  13.937  23.555  0.00  0.00    +0.000 A 
ATOM     23  C   UNL     1      -3.523  14.949  23.658  0.00  0.00    +0.000 A 
ATOM     24  C   UNL     1      -4.841  14.680  23.313  0.00  0.00    +0.000 A 
ATOM     25  C   UNL     1      -5.151  13.408  22.865  0.00  0.00    +0.000 A 
ATOM     26  N   UNL     1      -4.249  12.407  22.746  0.00  0.00    +0.000 NA
ENDBRANCH  20  21
ENDBRANCH  16  20
TORSDOF 2
ENDMDL
