MODEL 1
REMARK VINA RESULT:      -8.2      0.000      0.000
REMARK  Name = 
REMARK  10 active torsions:
REMARK  status: ('A' for Active; 'I' for Inactive)
REMARK    1  A    between atoms: C_2  and  O_3
REMARK    2  A    between atoms: C_2  and  C_4
REMARK    3  A    between atoms: C_4  and  C_5
REMARK    4  A    between atoms: C_5  and  C_6
REMARK    5  A    between atoms: C_6  and  C_7
REMARK    6  A    between atoms: C_7  and  O_8
REMARK    7  A    between atoms: O_8  and  C_9
REMARK    8  A    between atoms: C_13  and  C_14
REMARK    9  A    between atoms: C_16  and  C_17
REMARK   10  A    between atoms: C_23  and  C_24
REMARK                            x       y       z     vdW  Elec       q    Type
REMARK                         _______ _______ _______ _____ _____    ______ ____
ROOT
ATOM      1  C   UNL     1       2.549   8.190  18.140  0.00  0.00    +0.000 A 
ATOM      2  N   UNL     1       3.728   7.977  17.593  0.00  0.00    +0.000 NA
ATOM      3  C   UNL     1       3.838   6.602  17.556  0.00  0.00    +0.000 A 
ATOM      4  C   UNL     1       2.727   6.021  18.146  0.00  0.00    +0.000 A 
ATOM      5  O   UNL     1       1.887   7.047  18.503  0.00  0.00    +0.000 OA
ENDROOT
BRANCH   1  10
ATOM      6  C   UNL     1      -0.102  10.692  19.134  0.00  0.00    +0.000 A 
ATOM      7  C   UNL     1       0.486  11.881  18.703  0.00  0.00    +0.000 A 
ATOM      8  C   UNL     1       1.762  11.872  18.141  0.00  0.00    +0.000 A 
ATOM      9  C   UNL     1       2.443  10.664  17.980  0.00  0.00    +0.000 A 
ATOM     10  C   UNL     1       1.855   9.454  18.379  0.00  0.00    +0.000 A 
ATOM     11  C   UNL     1       0.579   9.485  18.962  0.00  0.00    +0.000 A 
BRANCH   6  12
ATOM     12  O   UNL     1      -1.363  10.814  19.648  0.00  0.00    +0.000 OA
BRANCH  12  13
ATOM     13  C   UNL     1      -2.112  11.951  19.214  0.00  0.00    +0.000 C 
BRANCH  13  14
ATOM     14  C   UNL     1      -3.313  11.461  18.409  0.00  0.00    +0.000 C 
BRANCH  14  15
ATOM     15  C   UNL     1      -2.917  10.323  17.457  0.00  0.00    +0.000 C 
BRANCH  15  16
ATOM     16  C   UNL     1      -2.368  10.831  16.127  0.00  0.00    +0.000 C 
BRANCH  16  18
ATOM     17  O   UNL     1      -2.666   9.923  13.896  0.00  0.00    +0.000 OA
ATOM     18  C   UNL     1      -3.155  10.328  14.939  0.00  0.00    +0.000 C 
BRANCH  18  19
ATOM     19  O   UNL     1      -4.492  10.400  15.129  0.00  0.00    +0.000 OA
ATOM     20  H   UNL     1      -4.910   9.546  15.345  0.00  0.00    +0.000 HD
ENDBRANCH  18  19
ENDBRANCH  16  18
ENDBRANCH  15  16
ENDBRANCH  14  15
ENDBRANCH  13  14
ENDBRANCH  12  13
ENDBRANCH   6  12
ENDBRANCH   1  10
BRANCH   3  21
ATOM     21  C   UNL     1       4.986   5.932  16.975  0.00  0.00    +0.000 A 
ATOM     22  C   UNL     1       5.955   5.370  17.815  0.00  0.00    +0.000 A 
ATOM     23  C   UNL     1       7.044   4.677  17.281  0.00  0.00    +0.000 A 
ATOM     24  C   UNL     1       7.174   4.544  15.898  0.00  0.00    +0.000 A 
ATOM     25  C   UNL     1       6.233   5.124  15.051  0.00  0.00    +0.000 A 
ATOM     26  C   UNL     1       5.155   5.832  15.586  0.00  0.00    +0.000 A 
ENDBRANCH   3  21
BRANCH   4  27
ATOM     27  C   UNL     1       2.269   4.678  18.485  0.00  0.00    +0.000 A 
ATOM     28  C   UNL     1       1.507   4.448  19.641  0.00  0.00    +0.000 A 
ATOM     29  C   UNL     1       1.116   3.158  20.002  0.00  0.00    +0.000 A 
ATOM     30  C   UNL     1       1.451   2.078  19.191  0.00  0.00    +0.000 A 
ATOM     31  C   UNL     1       2.178   2.289  18.022  0.00  0.00    +0.000 A 
ATOM     32  C   UNL     1       2.588   3.580  17.673  0.00  0.00    +0.000 A 
ENDBRANCH   4  27
TORSDOF 10
ENDMDL
MODEL 2
REMARK VINA RESULT:      -8.2      0.433      1.002
REMARK  Name = 
REMARK  10 active torsions:
REMARK  status: ('A' for Active; 'I' for Inactive)
REMARK    1  A    between atoms: C_2  and  O_3
REMARK    2  A    between atoms: C_2  and  C_4
REMARK    3  A    between atoms: C_4  and  C_5
REMARK    4  A    between atoms: C_5  and  C_6
REMARK    5  A    between atoms: C_6  and  C_7
REMARK    6  A    between atoms: C_7  and  O_8
REMARK    7  A    between atoms: O_8  and  C_9
REMARK    8  A    between atoms: C_13  and  C_14
REMARK    9  A    between atoms: C_16  and  C_17
REMARK   10  A    between atoms: C_23  and  C_24
REMARK                            x       y       z     vdW  Elec       q    Type
REMARK                         _______ _______ _______ _____ _____    ______ ____
ROOT
ATOM      1  C   UNL     1       2.488   8.289  18.255  0.00  0.00    +0.000 A 
ATOM      2  N   UNL     1       3.670   8.042  17.730  0.00  0.00    +0.000 NA
ATOM      3  C   UNL     1       3.757   6.665  17.732  0.00  0.00    +0.000 A 
ATOM      4  C   UNL     1       2.628   6.119  18.321  0.00  0.00    +0.000 A 
ATOM      5  O   UNL     1       1.801   7.168  18.638  0.00  0.00    +0.000 OA
ENDROOT
BRANCH   1  10
ATOM      6  C   UNL     1      -0.111  10.865  19.198  0.00  0.00    +0.000 A 
ATOM      7  C   UNL     1       0.474  12.025  18.690  0.00  0.00    +0.000 A 
ATOM      8  C   UNL     1       1.732  11.974  18.092  0.00  0.00    +0.000 A 
ATOM      9  C   UNL     1       2.398  10.753  17.973  0.00  0.00    +0.000 A 
ATOM     10  C   UNL     1       1.812   9.571  18.450  0.00  0.00    +0.000 A 
ATOM     11  C   UNL     1       0.554   9.644  19.068  0.00  0.00    +0.000 A 
BRANCH   6  12
ATOM     12  O   UNL     1      -1.355  11.025  19.743  0.00  0.00    +0.000 OA
BRANCH  12  13
ATOM     13  C   UNL     1      -2.402  11.364  18.830  0.00  0.00    +0.000 C 
BRANCH  13  14
ATOM     14  C   UNL     1      -2.659  10.165  17.921  0.00  0.00    +0.000 C 
BRANCH  14  15
ATOM     15  C   UNL     1      -3.572  10.542  16.746  0.00  0.00    +0.000 C 
BRANCH  15  16
ATOM     16  C   UNL     1      -2.791  10.914  15.489  0.00  0.00    +0.000 C 
BRANCH  16  18
ATOM     17  O   UNL     1      -2.437   9.716  13.408  0.00  0.00    +0.000 OA
ATOM     18  C   UNL     1      -3.198  10.097  14.285  0.00  0.00    +0.000 C 
BRANCH  18  19
ATOM     19  O   UNL     1      -4.526   9.846  14.247  0.00  0.00    +0.000 OA
ATOM     20  H   UNL     1      -5.079  10.644  14.159  0.00  0.00    +0.000 HD
ENDBRANCH  18  19
ENDBRANCH  16  18
ENDBRANCH  15  16
ENDBRANCH  14  15
ENDBRANCH  13  14
ENDBRANCH  12  13
ENDBRANCH   6  12
ENDBRANCH   1  10
BRANCH   3  21
ATOM     21  C   UNL     1       4.901   5.960  17.185  0.00  0.00    +0.000 A 
ATOM     22  C   UNL     1       5.040   5.845  15.797  0.00  0.00    +0.000 A 
ATOM     23  C   UNL     1       6.158   5.215  15.245  0.00  0.00    +0.000 A 
ATOM     24  C   UNL     1       7.144   4.689  16.079  0.00  0.00    +0.000 A 
ATOM     25  C   UNL     1       7.003   4.770  17.462  0.00  0.00    +0.000 A 
ATOM     26  C   UNL     1       5.876   5.385  18.013  0.00  0.00    +0.000 A 
ENDBRANCH   3  21
BRANCH   4  27
ATOM     27  C   UNL     1       2.142   4.793  18.690  0.00  0.00    +0.000 A 
ATOM     28  C   UNL     1       1.560   4.563  19.945  0.00  0.00    +0.000 A 
ATOM     29  C   UNL     1       1.147   3.286  20.326  0.00  0.00    +0.000 A 
ATOM     30  C   UNL     1       1.278   2.220  19.440  0.00  0.00    +0.000 A 
ATOM     31  C   UNL     1       1.822   2.435  18.176  0.00  0.00    +0.000 A 
ATOM     32  C   UNL     1       2.255   3.711  17.804  0.00  0.00    +0.000 A 
ENDBRANCH   4  27
TORSDOF 10
ENDMDL
MODEL 3
REMARK VINA RESULT:      -8.1      0.798      1.450
REMARK  Name = 
REMARK  10 active torsions:
REMARK  status: ('A' for Active; 'I' for Inactive)
REMARK    1  A    between atoms: C_2  and  O_3
REMARK    2  A    between atoms: C_2  and  C_4
REMARK    3  A    between atoms: C_4  and  C_5
REMARK    4  A    between atoms: C_5  and  C_6
REMARK    5  A    between atoms: C_6  and  C_7
REMARK    6  A    between atoms: C_7  and  O_8
REMARK    7  A    between atoms: O_8  and  C_9
REMARK    8  A    between atoms: C_13  and  C_14
REMARK    9  A    between atoms: C_16  and  C_17
REMARK   10  A    between atoms: C_23  and  C_24
REMARK                            x       y       z     vdW  Elec       q    Type
REMARK                         _______ _______ _______ _____ _____    ______ ____
ROOT
ATOM      1  C   UNL     1       2.265   8.494  18.474  0.00  0.00    +0.000 A 
ATOM      2  N   UNL     1       3.353   8.192  17.797  0.00  0.00    +0.000 NA
ATOM      3  C   UNL     1       3.492   6.830  17.973  0.00  0.00    +0.000 A 
ATOM      4  C   UNL     1       2.497   6.356  18.812  0.00  0.00    +0.000 A 
ATOM      5  O   UNL     1       1.693   7.427  19.117  0.00  0.00    +0.000 OA
ENDROOT
BRANCH   1  10
ATOM      6  C   UNL     1      -0.377  11.092  19.216  0.00  0.00    +0.000 A 
ATOM      7  C   UNL     1       0.239  12.239  18.717  0.00  0.00    +0.000 A 
ATOM      8  C   UNL     1       1.528  12.175  18.191  0.00  0.00    +0.000 A 
ATOM      9  C   UNL     1       2.197  10.950  18.135  0.00  0.00    +0.000 A 
ATOM     10  C   UNL     1       1.582   9.780  18.604  0.00  0.00    +0.000 A 
ATOM     11  C   UNL     1       0.292   9.868  19.149  0.00  0.00    +0.000 A 
BRANCH   6  12
ATOM     12  O   UNL     1      -1.649  11.265  19.687  0.00  0.00    +0.000 OA
BRANCH  12  13
ATOM     13  C   UNL     1      -2.644  11.576  18.708  0.00  0.00    +0.000 C 
BRANCH  13  14
ATOM     14  C   UNL     1      -2.943  10.312  17.904  0.00  0.00    +0.000 C 
BRANCH  14  15
ATOM     15  C   UNL     1      -3.629  10.649  16.573  0.00  0.00    +0.000 C 
BRANCH  15  16
ATOM     16  C   UNL     1      -2.651  10.699  15.402  0.00  0.00    +0.000 C 
BRANCH  16  18
ATOM     17  O   UNL     1      -2.533   9.734  13.179  0.00  0.00    +0.000 OA
ATOM     18  C   UNL     1      -3.198  10.041  14.156  0.00  0.00    +0.000 C 
BRANCH  18  19
ATOM     19  O   UNL     1      -4.535   9.848  14.210  0.00  0.00    +0.000 OA
ATOM     20  H   UNL     1      -4.871   9.642  15.102  0.00  0.00    +0.000 HD
ENDBRANCH  18  19
ENDBRANCH  16  18
ENDBRANCH  15  16
ENDBRANCH  14  15
ENDBRANCH  13  14
ENDBRANCH  12  13
ENDBRANCH   6  12
ENDBRANCH   1  10
BRANCH   3  21
ATOM     21  C   UNL     1       4.556   6.073  17.342  0.00  0.00    +0.000 A 
ATOM     22  C   UNL     1       4.886   6.328  16.005  0.00  0.00    +0.000 A 
ATOM     23  C   UNL     1       5.940   5.647  15.391  0.00  0.00    +0.000 A 
ATOM     24  C   UNL     1       6.670   4.699  16.109  0.00  0.00    +0.000 A 
ATOM     25  C   UNL     1       6.332   4.414  17.430  0.00  0.00    +0.000 A 
ATOM     26  C   UNL     1       5.267   5.083  18.037  0.00  0.00    +0.000 A 
ENDBRANCH   3  21
BRANCH   4  27
ATOM     27  C   UNL     1       2.128   5.089  19.434  0.00  0.00    +0.000 A 
ATOM     28  C   UNL     1       1.571   4.049  18.674  0.00  0.00    +0.000 A 
ATOM     29  C   UNL     1       1.161   2.857  19.274  0.00  0.00    +0.000 A 
ATOM     30  C   UNL     1       1.337   2.671  20.642  0.00  0.00    +0.000 A 
ATOM     31  C   UNL     1       1.920   3.678  21.408  0.00  0.00    +0.000 A 
ATOM     32  C   UNL     1       2.310   4.880  20.809  0.00  0.00    +0.000 A 
ENDBRANCH   4  27
TORSDOF 10
ENDMDL
MODEL 4
REMARK VINA RESULT:      -8.0      0.559      1.030
REMARK  Name = 
REMARK  10 active torsions:
REMARK  status: ('A' for Active; 'I' for Inactive)
REMARK    1  A    between atoms: C_2  and  O_3
REMARK    2  A    between atoms: C_2  and  C_4
REMARK    3  A    between atoms: C_4  and  C_5
REMARK    4  A    between atoms: C_5  and  C_6
REMARK    5  A    between atoms: C_6  and  C_7
REMARK    6  A    between atoms: C_7  and  O_8
REMARK    7  A    between atoms: O_8  and  C_9
REMARK    8  A    between atoms: C_13  and  C_14
REMARK    9  A    between atoms: C_16  and  C_17
REMARK   10  A    between atoms: C_23  and  C_24
REMARK                            x       y       z     vdW  Elec       q    Type
REMARK                         _______ _______ _______ _____ _____    ______ ____
ROOT
ATOM      1  C   UNL     1       2.452   8.391  18.266  0.00  0.00    +0.000 A 
ATOM      2  N   UNL     1       3.621   8.148  17.709  0.00  0.00    +0.000 NA
ATOM      3  C   UNL     1       3.720   6.771  17.725  0.00  0.00    +0.000 A 
ATOM      4  C   UNL     1       2.615   6.223  18.355  0.00  0.00    +0.000 A 
ATOM      5  O   UNL     1       1.787   7.269  18.684  0.00  0.00    +0.000 OA
ENDROOT
BRANCH   1  10
ATOM      6  C   UNL     1      -0.191  10.947  19.136  0.00  0.00    +0.000 A 
ATOM      7  C   UNL     1       0.432  12.122  18.712  0.00  0.00    +0.000 A 
ATOM      8  C   UNL     1       1.726  12.085  18.197  0.00  0.00    +0.000 A 
ATOM      9  C   UNL     1       2.393  10.864  18.074  0.00  0.00    +0.000 A 
ATOM     10  C   UNL     1       1.771   9.669  18.466  0.00  0.00    +0.000 A 
ATOM     11  C   UNL     1       0.475   9.728  19.002  0.00  0.00    +0.000 A 
BRANCH   6  12
ATOM     12  O   UNL     1      -1.467  11.096  19.603  0.00  0.00    +0.000 OA
BRANCH  12  13
ATOM     13  C   UNL     1      -2.355  11.855  18.778  0.00  0.00    +0.000 C 
BRANCH  13  14
ATOM     14  C   UNL     1      -3.433  10.919  18.237  0.00  0.00    +0.000 C 
BRANCH  14  15
ATOM     15  C   UNL     1      -2.817   9.780  17.413  0.00  0.00    +0.000 C 
BRANCH  15  16
ATOM     16  C   UNL     1      -3.561   9.531  16.104  0.00  0.00    +0.000 C 
BRANCH  16  18
ATOM     17  O   UNL     1      -2.629   9.954  13.904  0.00  0.00    +0.000 OA
ATOM     18  C   UNL     1      -3.046  10.384  14.968  0.00  0.00    +0.000 C 
BRANCH  18  19
ATOM     19  O   UNL     1      -3.059  11.704  15.257  0.00  0.00    +0.000 OA
ATOM     20  H   UNL     1      -3.141  11.902  16.208  0.00  0.00    +0.000 HD
ENDBRANCH  18  19
ENDBRANCH  16  18
ENDBRANCH  15  16
ENDBRANCH  14  15
ENDBRANCH  13  14
ENDBRANCH  12  13
ENDBRANCH   6  12
ENDBRANCH   1  10
BRANCH   3  21
ATOM     21  C   UNL     1       4.853   6.070  17.153  0.00  0.00    +0.000 A 
ATOM     22  C   UNL     1       5.780   5.450  18.001  0.00  0.00    +0.000 A 
ATOM     23  C   UNL     1       6.852   4.726  17.473  0.00  0.00    +0.000 A 
ATOM     24  C   UNL     1       7.009   4.622  16.091  0.00  0.00    +0.000 A 
ATOM     25  C   UNL     1       6.112   5.259  15.237  0.00  0.00    +0.000 A 
ATOM     26  C   UNL     1       5.050   5.997  15.766  0.00  0.00    +0.000 A 
ENDBRANCH   3  21
BRANCH   4  27
ATOM     27  C   UNL     1       2.152   4.898  18.755  0.00  0.00    +0.000 A 
ATOM     28  C   UNL     1       2.142   3.833  17.841  0.00  0.00    +0.000 A 
ATOM     29  C   UNL     1       1.645   2.580  18.200  0.00  0.00    +0.000 A 
ATOM     30  C   UNL     1       1.181   2.360  19.494  0.00  0.00    +0.000 A 
ATOM     31  C   UNL     1       1.214   3.395  20.425  0.00  0.00    +0.000 A 
ATOM     32  C   UNL     1       1.692   4.657  20.058  0.00  0.00    +0.000 A 
ENDBRANCH   4  27
TORSDOF 10
ENDMDL
MODEL 5
REMARK VINA RESULT:      -7.9      2.112      3.636
REMARK  Name = 
REMARK  10 active torsions:
REMARK  status: ('A' for Active; 'I' for Inactive)
REMARK    1  A    between atoms: C_2  and  O_3
REMARK    2  A    between atoms: C_2  and  C_4
REMARK    3  A    between atoms: C_4  and  C_5
REMARK    4  A    between atoms: C_5  and  C_6
REMARK    5  A    between atoms: C_6  and  C_7
REMARK    6  A    between atoms: C_7  and  O_8
REMARK    7  A    between atoms: O_8  and  C_9
REMARK    8  A    between atoms: C_13  and  C_14
REMARK    9  A    between atoms: C_16  and  C_17
REMARK   10  A    between atoms: C_23  and  C_24
REMARK                            x       y       z     vdW  Elec       q    Type
REMARK                         _______ _______ _______ _____ _____    ______ ____
ROOT
ATOM      1  C   UNL     1       2.586   8.636  18.127  0.00  0.00    +0.000 A 
ATOM      2  N   UNL     1       3.725   8.288  17.564  0.00  0.00    +0.000 NA
ATOM      3  C   UNL     1       3.734   6.910  17.651  0.00  0.00    +0.000 A 
ATOM      4  C   UNL     1       2.608   6.469  18.326  0.00  0.00    +0.000 A 
ATOM      5  O   UNL     1       1.857   7.583  18.614  0.00  0.00    +0.000 OA
ENDROOT
BRANCH   1  10
ATOM      6  C   UNL     1       0.121  11.401  18.871  0.00  0.00    +0.000 A 
ATOM      7  C   UNL     1       0.828  12.512  18.411  0.00  0.00    +0.000 A 
ATOM      8  C   UNL     1       2.121  12.366  17.910  0.00  0.00    +0.000 A 
ATOM      9  C   UNL     1       2.701  11.098  17.842  0.00  0.00    +0.000 A 
ATOM     10  C   UNL     1       1.994   9.965  18.271  0.00  0.00    +0.000 A 
ATOM     11  C   UNL     1       0.702  10.134  18.791  0.00  0.00    +0.000 A 
BRANCH   6  12
ATOM     12  O   UNL     1      -1.146  11.656  19.319  0.00  0.00    +0.000 OA
BRANCH  12  13
ATOM     13  C   UNL     1      -1.569  10.911  20.464  0.00  0.00    +0.000 C 
BRANCH  13  14
ATOM     14  C   UNL     1      -1.102  11.646  21.718  0.00  0.00    +0.000 C 
BRANCH  14  15
ATOM     15  C   UNL     1      -0.637  10.660  22.800  0.00  0.00    +0.000 C 
BRANCH  15  16
ATOM     16  C   UNL     1      -0.325   9.275  22.239  0.00  0.00    +0.000 C 
BRANCH  16  18
ATOM     17  O   UNL     1       1.976   9.516  22.973  0.00  0.00    +0.000 OA
ATOM     18  C   UNL     1       1.150   8.951  22.272  0.00  0.00    +0.000 C 
BRANCH  18  19
ATOM     19  O   UNL     1       1.490   7.970  21.406  0.00  0.00    +0.000 OA
ATOM     20  H   UNL     1       2.377   7.595  21.558  0.00  0.00    +0.000 HD
ENDBRANCH  18  19
ENDBRANCH  16  18
ENDBRANCH  15  16
ENDBRANCH  14  15
ENDBRANCH  13  14
ENDBRANCH  12  13
ENDBRANCH   6  12
ENDBRANCH   1  10
BRANCH   3  21
ATOM     21  C   UNL     1       4.807   6.107  17.097  0.00  0.00    +0.000 A 
ATOM     22  C   UNL     1       5.006   6.082  15.711  0.00  0.00    +0.000 A 
ATOM     23  C   UNL     1       6.063   5.356  15.157  0.00  0.00    +0.000 A 
ATOM     24  C   UNL     1       6.928   4.643  15.986  0.00  0.00    +0.000 A 
ATOM     25  C   UNL     1       6.724   4.635  17.364  0.00  0.00    +0.000 A 
ATOM     26  C   UNL     1       5.656   5.347  17.915  0.00  0.00    +0.000 A 
ENDBRANCH   3  21
BRANCH   4  27
ATOM     27  C   UNL     1       2.067   5.200  18.801  0.00  0.00    +0.000 A 
ATOM     28  C   UNL     1       1.718   4.183  17.899  0.00  0.00    +0.000 A 
ATOM     29  C   UNL     1       1.145   2.991  18.343  0.00  0.00    +0.000 A 
ATOM     30  C   UNL     1       0.944   2.780  19.704  0.00  0.00    +0.000 A 
ATOM     31  C   UNL     1       1.315   3.764  20.618  0.00  0.00    +0.000 A 
ATOM     32  C   UNL     1       1.869   4.967  20.170  0.00  0.00    +0.000 A 
ENDBRANCH   4  27
TORSDOF 10
ENDMDL
MODEL 6
REMARK VINA RESULT:      -7.9      2.313      8.531
REMARK  Name = 
REMARK  10 active torsions:
REMARK  status: ('A' for Active; 'I' for Inactive)
REMARK    1  A    between atoms: C_2  and  O_3
REMARK    2  A    between atoms: C_2  and  C_4
REMARK    3  A    between atoms: C_4  and  C_5
REMARK    4  A    between atoms: C_5  and  C_6
REMARK    5  A    between atoms: C_6  and  C_7
REMARK    6  A    between atoms: C_7  and  O_8
REMARK    7  A    between atoms: O_8  and  C_9
REMARK    8  A    between atoms: C_13  and  C_14
REMARK    9  A    between atoms: C_16  and  C_17
REMARK   10  A    between atoms: C_23  and  C_24
REMARK                            x       y       z     vdW  Elec       q    Type
REMARK                         _______ _______ _______ _____ _____    ______ ____
ROOT
ATOM      1  C   UNL     1       1.329   9.252  18.713  0.00  0.00    +0.000 A 
ATOM      2  N   UNL     1       1.477  10.326  19.462  0.00  0.00    +0.000 NA
ATOM      3  C   UNL     1       0.292  11.015  19.299  0.00  0.00    +0.000 A 
ATOM      4  C   UNL     1      -0.523  10.351  18.396  0.00  0.00    +0.000 A 
ATOM      5  O   UNL     1       0.139   9.203  18.036  0.00  0.00    +0.000 OA
ENDROOT
BRANCH   1  10
ATOM      6  C   UNL     1       3.113   5.969  19.274  0.00  0.00    +0.000 A 
ATOM      7  C   UNL     1       4.065   6.012  18.256  0.00  0.00    +0.000 A 
ATOM      8  C   UNL     1       4.090   7.080  17.360  0.00  0.00    +0.000 A 
ATOM      9  C   UNL     1       3.176   8.127  17.499  0.00  0.00    +0.000 A 
ATOM     10  C   UNL     1       2.231   8.116  18.536  0.00  0.00    +0.000 A 
ATOM     11  C   UNL     1       2.208   7.023  19.416  0.00  0.00    +0.000 A 
BRANCH   6  12
ATOM     12  O   UNL     1       3.194   4.889  20.109  0.00  0.00    +0.000 OA
BRANCH  12  13
ATOM     13  C   UNL     1       2.197   4.807  21.130  0.00  0.00    +0.000 C 
BRANCH  13  14
ATOM     14  C   UNL     1       1.482   3.464  21.001  0.00  0.00    +0.000 C 
BRANCH  14  15
ATOM     15  C   UNL     1       0.736   3.357  19.663  0.00  0.00    +0.000 C 
BRANCH  15  16
ATOM     16  C   UNL     1       1.116   2.106  18.876  0.00  0.00    +0.000 C 
BRANCH  16  18
ATOM     17  O   UNL     1       2.212   3.235  17.028  0.00  0.00    +0.000 OA
ATOM     18  C   UNL     1       2.223   2.358  17.878  0.00  0.00    +0.000 C 
BRANCH  18  19
ATOM     19  O   UNL     1       3.242   1.476  17.993  0.00  0.00    +0.000 OA
ATOM     20  H   UNL     1       3.191   0.726  17.372  0.00  0.00    +0.000 HD
ENDBRANCH  18  19
ENDBRANCH  16  18
ENDBRANCH  15  16
ENDBRANCH  14  15
ENDBRANCH  13  14
ENDBRANCH  12  13
ENDBRANCH   6  12
ENDBRANCH   1  10
BRANCH   3  21
ATOM     21  C   UNL     1       0.015  12.254  20.000  0.00  0.00    +0.000 A 
ATOM     22  C   UNL     1       0.037  13.465  19.295  0.00  0.00    +0.000 A 
ATOM     23  C   UNL     1      -0.276  14.666  19.936  0.00  0.00    +0.000 A 
ATOM     24  C   UNL     1      -0.608  14.667  21.291  0.00  0.00    +0.000 A 
ATOM     25  C   UNL     1      -0.605  13.473  22.010  0.00  0.00    +0.000 A 
ATOM     26  C   UNL     1      -0.275  12.276  21.372  0.00  0.00    +0.000 A 
ENDBRANCH   3  21
BRANCH   4  27
ATOM     27  C   UNL     1      -1.815  10.567  17.754  0.00  0.00    +0.000 A 
ATOM     28  C   UNL     1      -2.096  10.012  16.497  0.00  0.00    +0.000 A 
ATOM     29  C   UNL     1      -3.307  10.264  15.851  0.00  0.00    +0.000 A 
ATOM     30  C   UNL     1      -4.275  11.049  16.470  0.00  0.00    +0.000 A 
ATOM     31  C   UNL     1      -4.028  11.583  17.733  0.00  0.00    +0.000 A 
ATOM     32  C   UNL     1      -2.806  11.347  18.369  0.00  0.00    +0.000 A 
ENDBRANCH   4  27
TORSDOF 10
ENDMDL
MODEL 7
REMARK VINA RESULT:      -7.9      1.534      2.151
REMARK  Name = 
REMARK  10 active torsions:
REMARK  status: ('A' for Active; 'I' for Inactive)
REMARK    1  A    between atoms: C_2  and  O_3
REMARK    2  A    between atoms: C_2  and  C_4
REMARK    3  A    between atoms: C_4  and  C_5
REMARK    4  A    between atoms: C_5  and  C_6
REMARK    5  A    between atoms: C_6  and  C_7
REMARK    6  A    between atoms: C_7  and  O_8
REMARK    7  A    between atoms: O_8  and  C_9
REMARK    8  A    between atoms: C_13  and  C_14
REMARK    9  A    between atoms: C_16  and  C_17
REMARK   10  A    between atoms: C_23  and  C_24
REMARK                            x       y       z     vdW  Elec       q    Type
REMARK                         _______ _______ _______ _____ _____    ______ ____
ROOT
ATOM      1  C   UNL     1       2.388   8.316  18.188  0.00  0.00    +0.000 A 
ATOM      2  N   UNL     1       3.582   8.101  17.677  0.00  0.00    +0.000 NA
ATOM      3  C   UNL     1       3.709   6.726  17.687  0.00  0.00    +0.000 A 
ATOM      4  C   UNL     1       2.590   6.151  18.267  0.00  0.00    +0.000 A 
ATOM      5  O   UNL     1       1.729   7.177  18.570  0.00  0.00    +0.000 OA
ENDROOT
BRANCH   1  10
ATOM      6  C   UNL     1      -0.377  10.812  18.828  0.00  0.00    +0.000 A 
ATOM      7  C   UNL     1       0.292  12.011  18.580  0.00  0.00    +0.000 A 
ATOM      8  C   UNL     1       1.648  12.007  18.260  0.00  0.00    +0.000 A 
ATOM      9  C   UNL     1       2.336  10.796  18.156  0.00  0.00    +0.000 A 
ATOM     10  C   UNL     1       1.673   9.579  18.371  0.00  0.00    +0.000 A 
ATOM     11  C   UNL     1       0.312   9.603  18.713  0.00  0.00    +0.000 A 
BRANCH   6  12
ATOM     12  O   UNL     1      -1.709  10.930  19.110  0.00  0.00    +0.000 OA
BRANCH  12  13
ATOM     13  C   UNL     1      -2.522  11.504  18.083  0.00  0.00    +0.000 C 
BRANCH  13  14
ATOM     14  C   UNL     1      -3.643  10.523  17.748  0.00  0.00    +0.000 C 
BRANCH  14  15
ATOM     15  C   UNL     1      -4.963  11.258  17.479  0.00  0.00    +0.000 C 
BRANCH  15  16
ATOM     16  C   UNL     1      -5.537  11.916  18.731  0.00  0.00    +0.000 C 
BRANCH  16  18
ATOM     17  O   UNL     1      -6.665  11.000  20.675  0.00  0.00    +0.000 OA
ATOM     18  C   UNL     1      -6.513  11.024  19.464  0.00  0.00    +0.000 C 
BRANCH  18  19
ATOM     19  O   UNL     1      -7.201  10.207  18.634  0.00  0.00    +0.000 OA
ATOM     20  H   UNL     1      -6.736   9.378  18.418  0.00  0.00    +0.000 HD
ENDBRANCH  18  19
ENDBRANCH  16  18
ENDBRANCH  15  16
ENDBRANCH  14  15
ENDBRANCH  13  14
ENDBRANCH  12  13
ENDBRANCH   6  12
ENDBRANCH   1  10
BRANCH   3  21
ATOM     21  C   UNL     1       4.878   6.052  17.155  0.00  0.00    +0.000 A 
ATOM     22  C   UNL     1       5.832   5.529  18.037  0.00  0.00    +0.000 A 
ATOM     23  C   UNL     1       6.942   4.833  17.552  0.00  0.00    +0.000 A 
ATOM     24  C   UNL     1       7.108   4.658  16.178  0.00  0.00    +0.000 A 
ATOM     25  C   UNL     1       6.182   5.199  15.289  0.00  0.00    +0.000 A 
ATOM     26  C   UNL     1       5.083   5.911  15.775  0.00  0.00    +0.000 A 
ENDBRANCH   3  21
BRANCH   4  27
ATOM     27  C   UNL     1       2.138   4.814  18.636  0.00  0.00    +0.000 A 
ATOM     28  C   UNL     1       1.571   4.568  19.896  0.00  0.00    +0.000 A 
ATOM     29  C   UNL     1       1.191   3.280  20.277  0.00  0.00    +0.000 A 
ATOM     30  C   UNL     1       1.340   2.219  19.388  0.00  0.00    +0.000 A 
ATOM     31  C   UNL     1       1.869   2.449  18.120  0.00  0.00    +0.000 A 
ATOM     32  C   UNL     1       2.269   3.736  17.748  0.00  0.00    +0.000 A 
ENDBRANCH   4  27
TORSDOF 10
ENDMDL
MODEL 8
REMARK VINA RESULT:      -7.8      1.028      1.381
REMARK  Name = 
REMARK  10 active torsions:
REMARK  status: ('A' for Active; 'I' for Inactive)
REMARK    1  A    between atoms: C_2  and  O_3
REMARK    2  A    between atoms: C_2  and  C_4
REMARK    3  A    between atoms: C_4  and  C_5
REMARK    4  A    between atoms: C_5  and  C_6
REMARK    5  A    between atoms: C_6  and  C_7
REMARK    6  A    between atoms: C_7  and  O_8
REMARK    7  A    between atoms: O_8  and  C_9
REMARK    8  A    between atoms: C_13  and  C_14
REMARK    9  A    between atoms: C_16  and  C_17
REMARK   10  A    between atoms: C_23  and  C_24
REMARK                            x       y       z     vdW  Elec       q    Type
REMARK                         _______ _______ _______ _____ _____    ______ ____
ROOT
ATOM      1  C   UNL     1       2.359   8.435  18.347  0.00  0.00    +0.000 A 
ATOM      2  N   UNL     1       3.486   8.189  17.711  0.00  0.00    +0.000 NA
ATOM      3  C   UNL     1       3.647   6.823  17.829  0.00  0.00    +0.000 A 
ATOM      4  C   UNL     1       2.624   6.289  18.596  0.00  0.00    +0.000 A 
ATOM      5  O   UNL     1       1.782   7.327  18.911  0.00  0.00    +0.000 OA
ENDROOT
BRANCH   1  10
ATOM      6  C   UNL     1      -0.422  10.991  18.431  0.00  0.00    +0.000 A 
ATOM      7  C   UNL     1       0.304  12.159  18.670  0.00  0.00    +0.000 A 
ATOM      8  C   UNL     1       1.684  12.104  18.856  0.00  0.00    +0.000 A 
ATOM      9  C   UNL     1       2.349  10.879  18.773  0.00  0.00    +0.000 A 
ATOM     10  C   UNL     1       1.641   9.699  18.502  0.00  0.00    +0.000 A 
ATOM     11  C   UNL     1       0.249   9.771  18.339  0.00  0.00    +0.000 A 
BRANCH   6  12
ATOM     12  O   UNL     1      -1.765  11.164  18.241  0.00  0.00    +0.000 OA
BRANCH  12  13
ATOM     13  C   UNL     1      -2.328  10.511  17.099  0.00  0.00    +0.000 C 
BRANCH  13  14
ATOM     14  C   UNL     1      -3.335  11.457  16.450  0.00  0.00    +0.000 C 
BRANCH  14  15
ATOM     15  C   UNL     1      -3.873  10.878  15.134  0.00  0.00    +0.000 C 
BRANCH  15  16
ATOM     16  C   UNL     1      -2.846  10.014  14.407  0.00  0.00    +0.000 C 
BRANCH  16  18
ATOM     17  O   UNL     1      -4.316   9.873  12.481  0.00  0.00    +0.000 OA
ATOM     18  C   UNL     1      -3.192   9.795  12.952  0.00  0.00    +0.000 C 
BRANCH  18  19
ATOM     19  O   UNL     1      -2.117   9.462  12.203  0.00  0.00    +0.000 OA
ATOM     20  H   UNL     1      -2.287   9.460  11.243  0.00  0.00    +0.000 HD
ENDBRANCH  18  19
ENDBRANCH  16  18
ENDBRANCH  15  16
ENDBRANCH  14  15
ENDBRANCH  13  14
ENDBRANCH  12  13
ENDBRANCH   6  12
ENDBRANCH   1  10
BRANCH   3  21
ATOM     21  C   UNL     1       4.758   6.119  17.218  0.00  0.00    +0.000 A 
ATOM     22  C   UNL     1       5.584   5.314  18.012  0.00  0.00    +0.000 A 
ATOM     23  C   UNL     1       6.630   4.586  17.439  0.00  0.00    +0.000 A 
ATOM     24  C   UNL     1       6.862   4.663  16.066  0.00  0.00    +0.000 A 
ATOM     25  C   UNL     1       6.066   5.483  15.270  0.00  0.00    +0.000 A 
ATOM     26  C   UNL     1       5.032   6.224  15.847  0.00  0.00    +0.000 A 
ENDBRANCH   3  21
BRANCH   4  27
ATOM     27  C   UNL     1       2.255   4.986  19.139  0.00  0.00    +0.000 A 
ATOM     28  C   UNL     1       2.237   4.763  20.524  0.00  0.00    +0.000 A 
ATOM     29  C   UNL     1       1.944   3.503  21.048  0.00  0.00    +0.000 A 
ATOM     30  C   UNL     1       1.627   2.451  20.193  0.00  0.00    +0.000 A 
ATOM     31  C   UNL     1       1.606   2.661  18.816  0.00  0.00    +0.000 A 
ATOM     32  C   UNL     1       1.922   3.919  18.292  0.00  0.00    +0.000 A 
ENDBRANCH   4  27
TORSDOF 10
ENDMDL
MODEL 9
REMARK VINA RESULT:      -7.8      1.800      2.406
REMARK  Name = 
REMARK  10 active torsions:
REMARK  status: ('A' for Active; 'I' for Inactive)
REMARK    1  A    between atoms: C_2  and  O_3
REMARK    2  A    between atoms: C_2  and  C_4
REMARK    3  A    between atoms: C_4  and  C_5
REMARK    4  A    between atoms: C_5  and  C_6
REMARK    5  A    between atoms: C_6  and  C_7
REMARK    6  A    between atoms: C_7  and  O_8
REMARK    7  A    between atoms: O_8  and  C_9
REMARK    8  A    between atoms: C_13  and  C_14
REMARK    9  A    between atoms: C_16  and  C_17
REMARK   10  A    between atoms: C_23  and  C_24
REMARK                            x       y       z     vdW  Elec       q    Type
REMARK                         _______ _______ _______ _____ _____    ______ ____
ROOT
ATOM      1  C   UNL     1       2.244   8.544  18.228  0.00  0.00    +0.000 A 
ATOM      2  N   UNL     1       3.427   8.303  17.699  0.00  0.00    +0.000 NA
ATOM      3  C   UNL     1       3.563   6.933  17.793  0.00  0.00    +0.000 A 
ATOM      4  C   UNL     1       2.465   6.389  18.438  0.00  0.00    +0.000 A 
ATOM      5  O   UNL     1       1.605   7.428  18.699  0.00  0.00    +0.000 OA
ENDROOT
BRANCH   1  10
ATOM      6  C   UNL     1      -0.557  11.066  18.491  0.00  0.00    +0.000 A 
ATOM      7  C   UNL     1       0.162  12.261  18.442  0.00  0.00    +0.000 A 
ATOM      8  C   UNL     1       1.554  12.242  18.378  0.00  0.00    +0.000 A 
ATOM      9  C   UNL     1       2.233  11.023  18.332  0.00  0.00    +0.000 A 
ATOM     10  C   UNL     1       1.526   9.811  18.349  0.00  0.00    +0.000 A 
ATOM     11  C   UNL     1       0.125   9.849  18.434  0.00  0.00    +0.000 A 
BRANCH   6  12
ATOM     12  O   UNL     1      -1.917  11.200  18.529  0.00  0.00    +0.000 OA
BRANCH  12  13
ATOM     13  C   UNL     1      -2.572  11.329  17.264  0.00  0.00    +0.000 C 
BRANCH  13  14
ATOM     14  C   UNL     1      -3.937  10.651  17.356  0.00  0.00    +0.000 C 
BRANCH  14  15
ATOM     15  C   UNL     1      -4.845  11.361  18.369  0.00  0.00    +0.000 C 
BRANCH  15  16
ATOM     16  C   UNL     1      -6.327  11.103  18.114  0.00  0.00    +0.000 C 
BRANCH  16  18
ATOM     17  O   UNL     1      -6.766   9.085  19.388  0.00  0.00    +0.000 OA
ATOM     18  C   UNL     1      -6.971  10.274  19.201  0.00  0.00    +0.000 C 
BRANCH  18  19
ATOM     19  O   UNL     1      -7.847  10.981  19.950  0.00  0.00    +0.000 OA
ATOM     20  H   UNL     1      -8.205  11.771  19.504  0.00  0.00    +0.000 HD
ENDBRANCH  18  19
ENDBRANCH  16  18
ENDBRANCH  15  16
ENDBRANCH  14  15
ENDBRANCH  13  14
ENDBRANCH  12  13
ENDBRANCH   6  12
ENDBRANCH   1  10
BRANCH   3  21
ATOM     21  C   UNL     1       4.723   6.233  17.274  0.00  0.00    +0.000 A 
ATOM     22  C   UNL     1       5.587   5.578  18.161  0.00  0.00    +0.000 A 
ATOM     23  C   UNL     1       6.682   4.855  17.682  0.00  0.00    +0.000 A 
ATOM     24  C   UNL     1       6.927   4.788  16.310  0.00  0.00    +0.000 A 
ATOM     25  C   UNL     1       6.093   5.460  15.420  0.00  0.00    +0.000 A 
ATOM     26  C   UNL     1       5.008   6.197  15.901  0.00  0.00    +0.000 A 
ENDBRANCH   3  21
BRANCH   4  27
ATOM     27  C   UNL     1       2.033   5.076  18.904  0.00  0.00    +0.000 A 
ATOM     28  C   UNL     1       1.832   4.021  18.000  0.00  0.00    +0.000 A 
ATOM     29  C   UNL     1       1.361   2.781  18.432  0.00  0.00    +0.000 A 
ATOM     30  C   UNL     1       1.118   2.562  19.785  0.00  0.00    +0.000 A 
ATOM     31  C   UNL     1       1.344   3.586  20.703  0.00  0.00    +0.000 A 
ATOM     32  C   UNL     1       1.794   4.835  20.265  0.00  0.00    +0.000 A 
ENDBRANCH   4  27
TORSDOF 10
ENDMDL
