MODEL 1
REMARK VINA RESULT:      -7.0      0.000      0.000
REMARK  Name = 
REMARK  8 active torsions:
REMARK  status: ('A' for Active; 'I' for Inactive)
REMARK    1  A    between atoms: C_1  and  C_2
REMARK    2  A    between atoms: C_5  and  S_6
REMARK    3  A    between atoms: S_6  and  C_7
REMARK    4  A    between atoms: C_7  and  C_9
REMARK    5  A    between atoms: C_9  and  O_10
REMARK    6  A    between atoms: O_10  and  C_11
REMARK    7  A    between atoms: C_14  and  C_15
REMARK    8  A    between atoms: C_16  and  C_17
REMARK                            x       y       z     vdW  Elec       q    Type
REMARK                         _______ _______ _______ _____ _____    ______ ____
ROOT
ATOM      1  C   UNL     1       5.024   6.046  16.246  0.00  0.00    +0.000 C 
ATOM      2  O   UNL     1       5.278   6.619  15.193  0.00  0.00    +0.000 OA
ENDROOT
BRANCH   1   3
ATOM      3  S   UNL     1       5.221   4.297  16.439  0.00  0.00    +0.000 S 
BRANCH   3   8
ATOM      4  C   UNL     1       0.906   3.159  20.610  0.00  0.00    +0.000 C 
ATOM      5  C   UNL     1       1.982   3.412  19.593  0.00  0.00    +0.000 A 
ATOM      6  C   UNL     1       3.335   3.386  19.950  0.00  0.00    +0.000 A 
ATOM      7  C   UNL     1       4.329   3.629  18.992  0.00  0.00    +0.000 A 
ATOM      8  C   UNL     1       3.987   3.893  17.664  0.00  0.00    +0.000 A 
ATOM      9  C   UNL     1       2.634   3.931  17.311  0.00  0.00    +0.000 A 
ATOM     10  C   UNL     1       1.640   3.689  18.266  0.00  0.00    +0.000 A 
ENDBRANCH   3   8
ENDBRANCH   1   3
BRANCH   1  11
ATOM     11  C   UNL     1       4.578   6.764  17.511  0.00  0.00    +0.000 C 
BRANCH  11  12
ATOM     12  O   UNL     1       3.359   7.457  17.269  0.00  0.00    +0.000 OA
BRANCH  12  13
ATOM     13  C   UNL     1       2.600   7.777  18.363  0.00  0.00    +0.000 A 
ATOM     14  C   UNL     1       2.505   7.036  19.536  0.00  0.00    +0.000 A 
ATOM     15  C   UNL     1       1.699   7.485  20.587  0.00  0.00    +0.000 A 
ATOM     16  C   UNL     1       0.969   8.680  20.487  0.00  0.00    +0.000 A 
ATOM     17  C   UNL     1       0.114   9.106  21.647  0.00  0.00    +0.000 C 
ATOM     18  C   UNL     1       1.058   9.435  19.303  0.00  0.00    +0.000 A 
ATOM     19  C   UNL     1       0.326  10.734  19.100  0.00  0.00    +0.000 C 
ATOM     20  C   UNL     1       1.875   8.967  18.254  0.00  0.00    +0.000 A 
ENDBRANCH  12  13
ENDBRANCH  11  12
ENDBRANCH   1  11
TORSDOF 5
ENDMDL
MODEL 2
REMARK VINA RESULT:      -6.9      1.782      3.895
REMARK  Name = 
REMARK  8 active torsions:
REMARK  status: ('A' for Active; 'I' for Inactive)
REMARK    1  A    between atoms: C_1  and  C_2
REMARK    2  A    between atoms: C_5  and  S_6
REMARK    3  A    between atoms: S_6  and  C_7
REMARK    4  A    between atoms: C_7  and  C_9
REMARK    5  A    between atoms: C_9  and  O_10
REMARK    6  A    between atoms: O_10  and  C_11
REMARK    7  A    between atoms: C_14  and  C_15
REMARK    8  A    between atoms: C_16  and  C_17
REMARK                            x       y       z     vdW  Elec       q    Type
REMARK                         _______ _______ _______ _____ _____    ______ ____
ROOT
ATOM      1  C   UNL     1       1.995   3.856  18.293  0.00  0.00    +0.000 C 
ATOM      2  O   UNL     1       1.241   4.078  17.354  0.00  0.00    +0.000 OA
ENDROOT
BRANCH   1   3
ATOM      3  S   UNL     1       3.498   2.939  18.102  0.00  0.00    +0.000 S 
BRANCH   3   8
ATOM      4  C   UNL     1       7.554   7.461  17.473  0.00  0.00    +0.000 C 
ATOM      5  C   UNL     1       6.567   6.337  17.599  0.00  0.00    +0.000 A 
ATOM      6  C   UNL     1       5.677   6.036  16.561  0.00  0.00    +0.000 A 
ATOM      7  C   UNL     1       4.756   4.987  16.695  0.00  0.00    +0.000 A 
ATOM      8  C   UNL     1       4.716   4.220  17.862  0.00  0.00    +0.000 A 
ATOM      9  C   UNL     1       5.598   4.531  18.903  0.00  0.00    +0.000 A 
ATOM     10  C   UNL     1       6.517   5.578  18.772  0.00  0.00    +0.000 A 
ENDBRANCH   3   8
ENDBRANCH   1   3
BRANCH   1  11
ATOM     11  C   UNL     1       1.768   4.387  19.701  0.00  0.00    +0.000 C 
BRANCH  11  12
ATOM     12  O   UNL     1       2.682   5.444  19.973  0.00  0.00    +0.000 OA
BRANCH  12  13
ATOM     13  C   UNL     1       2.306   6.703  19.589  0.00  0.00    +0.000 A 
ATOM     14  C   UNL     1       2.527   7.275  18.341  0.00  0.00    +0.000 A 
ATOM     15  C   UNL     1       2.077   8.573  18.074  0.00  0.00    +0.000 A 
ATOM     16  C   UNL     1       1.403   9.325  19.048  0.00  0.00    +0.000 A 
ATOM     17  C   UNL     1       0.952  10.718  18.704  0.00  0.00    +0.000 C 
ATOM     18  C   UNL     1       1.177   8.754  20.314  0.00  0.00    +0.000 A 
ATOM     19  C   UNL     1       0.454   9.472  21.421  0.00  0.00    +0.000 C 
ATOM     20  C   UNL     1       1.636   7.446  20.565  0.00  0.00    +0.000 A 
ENDBRANCH  12  13
ENDBRANCH  11  12
ENDBRANCH   1  11
TORSDOF 5
ENDMDL
MODEL 3
REMARK VINA RESULT:      -6.9      2.654      5.567
REMARK  Name = 
REMARK  8 active torsions:
REMARK  status: ('A' for Active; 'I' for Inactive)
REMARK    1  A    between atoms: C_1  and  C_2
REMARK    2  A    between atoms: C_5  and  S_6
REMARK    3  A    between atoms: S_6  and  C_7
REMARK    4  A    between atoms: C_7  and  C_9
REMARK    5  A    between atoms: C_9  and  O_10
REMARK    6  A    between atoms: O_10  and  C_11
REMARK    7  A    between atoms: C_14  and  C_15
REMARK    8  A    between atoms: C_16  and  C_17
REMARK                            x       y       z     vdW  Elec       q    Type
REMARK                         _______ _______ _______ _____ _____    ______ ____
ROOT
ATOM      1  C   UNL     1       2.869   2.493  20.912  0.00  0.00    +0.000 C 
ATOM      2  O   UNL     1       2.711   2.576  22.124  0.00  0.00    +0.000 OA
ENDROOT
BRANCH   1   3
ATOM      3  S   UNL     1       1.549   2.777  19.767  0.00  0.00    +0.000 S 
BRANCH   3   8
ATOM      4  C   UNL     1       2.573   8.550  18.055  0.00  0.00    +0.000 C 
ATOM      5  C   UNL     1       2.300   7.141  18.498  0.00  0.00    +0.000 A 
ATOM      6  C   UNL     1       2.363   6.782  19.849  0.00  0.00    +0.000 A 
ATOM      7  C   UNL     1       2.111   5.462  20.248  0.00  0.00    +0.000 A 
ATOM      8  C   UNL     1       1.785   4.484  19.305  0.00  0.00    +0.000 A 
ATOM      9  C   UNL     1       1.735   4.842  17.953  0.00  0.00    +0.000 A 
ATOM     10  C   UNL     1       1.987   6.159  17.553  0.00  0.00    +0.000 A 
ENDBRANCH   3   8
ENDBRANCH   1   3
BRANCH   1  11
ATOM     11  C   UNL     1       4.210   2.203  20.254  0.00  0.00    +0.000 C 
BRANCH  11  12
ATOM     12  O   UNL     1       4.181   2.621  18.894  0.00  0.00    +0.000 OA
BRANCH  12  13
ATOM     13  C   UNL     1       4.906   3.736  18.572  0.00  0.00    +0.000 A 
ATOM     14  C   UNL     1       5.576   4.561  19.470  0.00  0.00    +0.000 A 
ATOM     15  C   UNL     1       6.294   5.667  19.005  0.00  0.00    +0.000 A 
ATOM     16  C   UNL     1       6.355   5.975  17.637  0.00  0.00    +0.000 A 
ATOM     17  C   UNL     1       7.137   7.182  17.199  0.00  0.00    +0.000 C 
ATOM     18  C   UNL     1       5.680   5.146  16.722  0.00  0.00    +0.000 A 
ATOM     19  C   UNL     1       5.692   5.382  15.236  0.00  0.00    +0.000 C 
ATOM     20  C   UNL     1       4.960   4.036  17.208  0.00  0.00    +0.000 A 
ENDBRANCH  12  13
ENDBRANCH  11  12
ENDBRANCH   1  11
TORSDOF 5
ENDMDL
MODEL 4
REMARK VINA RESULT:      -6.7      2.511      6.079
REMARK  Name = 
REMARK  8 active torsions:
REMARK  status: ('A' for Active; 'I' for Inactive)
REMARK    1  A    between atoms: C_1  and  C_2
REMARK    2  A    between atoms: C_5  and  S_6
REMARK    3  A    between atoms: S_6  and  C_7
REMARK    4  A    between atoms: C_7  and  C_9
REMARK    5  A    between atoms: C_9  and  O_10
REMARK    6  A    between atoms: O_10  and  C_11
REMARK    7  A    between atoms: C_14  and  C_15
REMARK    8  A    between atoms: C_16  and  C_17
REMARK                            x       y       z     vdW  Elec       q    Type
REMARK                         _______ _______ _______ _____ _____    ______ ____
ROOT
ATOM      1  C   UNL     1       1.669   3.364  19.937  0.00  0.00    +0.000 C 
ATOM      2  O   UNL     1       0.541   3.285  19.468  0.00  0.00    +0.000 OA
ENDROOT
BRANCH   1   3
ATOM      3  S   UNL     1       2.117   4.610  21.113  0.00  0.00    +0.000 S 
BRANCH   3   8
ATOM      4  C   UNL     1       1.956   9.773  17.855  0.00  0.00    +0.000 C 
ATOM      5  C   UNL     1       1.963   8.507  18.663  0.00  0.00    +0.000 A 
ATOM      6  C   UNL     1       1.470   8.482  19.972  0.00  0.00    +0.000 A 
ATOM      7  C   UNL     1       1.488   7.294  20.717  0.00  0.00    +0.000 A 
ATOM      8  C   UNL     1       1.993   6.115  20.163  0.00  0.00    +0.000 A 
ATOM      9  C   UNL     1       2.498   6.146  18.859  0.00  0.00    +0.000 A 
ATOM     10  C   UNL     1       2.481   7.330  18.114  0.00  0.00    +0.000 A 
ENDBRANCH   3   8
ENDBRANCH   1   3
BRANCH   1  11
ATOM     11  C   UNL     1       2.787   2.382  19.619  0.00  0.00    +0.000 C 
BRANCH  11  12
ATOM     12  O   UNL     1       4.050   3.008  19.815  0.00  0.00    +0.000 OA
BRANCH  12  13
ATOM     13  C   UNL     1       4.660   3.535  18.709  0.00  0.00    +0.000 A 
ATOM     14  C   UNL     1       4.323   3.267  17.386  0.00  0.00    +0.000 A 
ATOM     15  C   UNL     1       5.022   3.886  16.344  0.00  0.00    +0.000 A 
ATOM     16  C   UNL     1       6.074   4.778  16.601  0.00  0.00    +0.000 A 
ATOM     17  C   UNL     1       6.793   5.405  15.440  0.00  0.00    +0.000 C 
ATOM     18  C   UNL     1       6.423   5.053  17.937  0.00  0.00    +0.000 A 
ATOM     19  C   UNL     1       7.526   6.003  18.319  0.00  0.00    +0.000 C 
ATOM     20  C   UNL     1       5.708   4.421  18.974  0.00  0.00    +0.000 A 
ENDBRANCH  12  13
ENDBRANCH  11  12
ENDBRANCH   1  11
TORSDOF 5
ENDMDL
MODEL 5
REMARK VINA RESULT:      -6.6      5.380      6.457
REMARK  Name = 
REMARK  8 active torsions:
REMARK  status: ('A' for Active; 'I' for Inactive)
REMARK    1  A    between atoms: C_1  and  C_2
REMARK    2  A    between atoms: C_5  and  S_6
REMARK    3  A    between atoms: S_6  and  C_7
REMARK    4  A    between atoms: C_7  and  C_9
REMARK    5  A    between atoms: C_9  and  O_10
REMARK    6  A    between atoms: O_10  and  C_11
REMARK    7  A    between atoms: C_14  and  C_15
REMARK    8  A    between atoms: C_16  and  C_17
REMARK                            x       y       z     vdW  Elec       q    Type
REMARK                         _______ _______ _______ _____ _____    ______ ____
ROOT
ATOM      1  C   UNL     1       7.473   7.080  17.712  0.00  0.00    +0.000 C 
ATOM      2  O   UNL     1       6.863   7.404  16.701  0.00  0.00    +0.000 OA
ENDROOT
BRANCH   1   3
ATOM      3  S   UNL     1       7.461   5.420  18.330  0.00  0.00    +0.000 S 
BRANCH   3   8
ATOM      4  C   UNL     1       1.527   4.061  17.838  0.00  0.00    +0.000 C 
ATOM      5  C   UNL     1       2.986   4.383  17.990  0.00  0.00    +0.000 A 
ATOM      6  C   UNL     1       3.457   5.106  19.092  0.00  0.00    +0.000 A 
ATOM      7  C   UNL     1       4.821   5.404  19.217  0.00  0.00    +0.000 A 
ATOM      8  C   UNL     1       5.734   4.980  18.249  0.00  0.00    +0.000 A 
ATOM      9  C   UNL     1       5.260   4.268  17.141  0.00  0.00    +0.000 A 
ATOM     10  C   UNL     1       3.898   3.970  17.014  0.00  0.00    +0.000 A 
ENDBRANCH   3   8
ENDBRANCH   1   3
BRANCH   1  11
ATOM     11  C   UNL     1       8.350   8.032  18.511  0.00  0.00    +0.000 C 
BRANCH  11  12
ATOM     12  O   UNL     1       8.396   9.301  17.867  0.00  0.00    +0.000 OA
BRANCH  12  13
ATOM     13  C   UNL     1       9.068  10.302  18.517  0.00  0.00    +0.000 A 
ATOM     14  C   UNL     1       9.282  10.385  19.888  0.00  0.00    +0.000 A 
ATOM     15  C   UNL     1       9.999  11.459  20.423  0.00  0.00    +0.000 A 
ATOM     16  C   UNL     1      10.513  12.474  19.602  0.00  0.00    +0.000 A 
ATOM     17  C   UNL     1      11.269  13.608  20.236  0.00  0.00    +0.000 C 
ATOM     18  C   UNL     1      10.301  12.399  18.213  0.00  0.00    +0.000 A 
ATOM     19  C   UNL     1      10.820  13.428  17.245  0.00  0.00    +0.000 C 
ATOM     20  C   UNL     1       9.575  11.309  17.691  0.00  0.00    +0.000 A 
ENDBRANCH  12  13
ENDBRANCH  11  12
ENDBRANCH   1  11
TORSDOF 5
ENDMDL
MODEL 6
REMARK VINA RESULT:      -6.6      0.888      1.366
REMARK  Name = 
REMARK  8 active torsions:
REMARK  status: ('A' for Active; 'I' for Inactive)
REMARK    1  A    between atoms: C_1  and  C_2
REMARK    2  A    between atoms: C_5  and  S_6
REMARK    3  A    between atoms: S_6  and  C_7
REMARK    4  A    between atoms: C_7  and  C_9
REMARK    5  A    between atoms: C_9  and  O_10
REMARK    6  A    between atoms: O_10  and  C_11
REMARK    7  A    between atoms: C_14  and  C_15
REMARK    8  A    between atoms: C_16  and  C_17
REMARK                            x       y       z     vdW  Elec       q    Type
REMARK                         _______ _______ _______ _____ _____    ______ ____
ROOT
ATOM      1  C   UNL     1       5.850   5.957  16.544  0.00  0.00    +0.000 C 
ATOM      2  O   UNL     1       6.113   5.959  15.347  0.00  0.00    +0.000 OA
ENDROOT
BRANCH   1   3
ATOM      3  S   UNL     1       6.228   4.580  17.590  0.00  0.00    +0.000 S 
BRANCH   3   8
ATOM      4  C   UNL     1       0.818   2.133  19.020  0.00  0.00    +0.000 C 
ATOM      5  C   UNL     1       2.133   2.760  18.656  0.00  0.00    +0.000 A 
ATOM      6  C   UNL     1       2.388   3.200  17.351  0.00  0.00    +0.000 A 
ATOM      7  C   UNL     1       3.622   3.779  17.024  0.00  0.00    +0.000 A 
ATOM      8  C   UNL     1       4.615   3.933  17.993  0.00  0.00    +0.000 A 
ATOM      9  C   UNL     1       4.364   3.481  19.294  0.00  0.00    +0.000 A 
ATOM     10  C   UNL     1       3.133   2.903  19.623  0.00  0.00    +0.000 A 
ENDBRANCH   3   8
ENDBRANCH   1   3
BRANCH   1  11
ATOM     11  C   UNL     1       5.234   7.140  17.275  0.00  0.00    +0.000 C 
BRANCH  11  12
ATOM     12  O   UNL     1       3.837   7.199  17.010  0.00  0.00    +0.000 OA
BRANCH  12  13
ATOM     13  C   UNL     1       3.019   7.526  18.057  0.00  0.00    +0.000 A 
ATOM     14  C   UNL     1       2.834   6.775  19.214  0.00  0.00    +0.000 A 
ATOM     15  C   UNL     1       1.975   7.233  20.218  0.00  0.00    +0.000 A 
ATOM     16  C   UNL     1       1.281   8.445  20.087  0.00  0.00    +0.000 A 
ATOM     17  C   UNL     1       0.365   8.880  21.197  0.00  0.00    +0.000 C 
ATOM     18  C   UNL     1       1.461   9.210  18.920  0.00  0.00    +0.000 A 
ATOM     19  C   UNL     1       0.772  10.528  18.687  0.00  0.00    +0.000 C 
ATOM     20  C   UNL     1       2.330   8.734  17.918  0.00  0.00    +0.000 A 
ENDBRANCH  12  13
ENDBRANCH  11  12
ENDBRANCH   1  11
TORSDOF 5
ENDMDL
MODEL 7
REMARK VINA RESULT:      -6.6      2.284      4.228
REMARK  Name = 
REMARK  8 active torsions:
REMARK  status: ('A' for Active; 'I' for Inactive)
REMARK    1  A    between atoms: C_1  and  C_2
REMARK    2  A    between atoms: C_5  and  S_6
REMARK    3  A    between atoms: S_6  and  C_7
REMARK    4  A    between atoms: C_7  and  C_9
REMARK    5  A    between atoms: C_9  and  O_10
REMARK    6  A    between atoms: O_10  and  C_11
REMARK    7  A    between atoms: C_14  and  C_15
REMARK    8  A    between atoms: C_16  and  C_17
REMARK                            x       y       z     vdW  Elec       q    Type
REMARK                         _______ _______ _______ _____ _____    ______ ____
ROOT
ATOM      1  C   UNL     1       2.792   2.962  20.170  0.00  0.00    +0.000 C 
ATOM      2  O   UNL     1       3.285   2.453  21.169  0.00  0.00    +0.000 OA
ENDROOT
BRANCH   1   3
ATOM      3  S   UNL     1       3.313   2.527  18.535  0.00  0.00    +0.000 S 
BRANCH   3   8
ATOM      4  C   UNL     1       7.293   7.014  17.383  0.00  0.00    +0.000 C 
ATOM      5  C   UNL     1       6.326   5.894  17.641  0.00  0.00    +0.000 A 
ATOM      6  C   UNL     1       5.509   5.395  16.621  0.00  0.00    +0.000 A 
ATOM      7  C   UNL     1       4.607   4.352  16.877  0.00  0.00    +0.000 A 
ATOM      8  C   UNL     1       4.513   3.790  18.152  0.00  0.00    +0.000 A 
ATOM      9  C   UNL     1       5.322   4.299  19.174  0.00  0.00    +0.000 A 
ATOM     10  C   UNL     1       6.223   5.340  18.920  0.00  0.00    +0.000 A 
ENDBRANCH   3   8
ENDBRANCH   1   3
BRANCH   1  11
ATOM     11  C   UNL     1       1.650   3.966  20.210  0.00  0.00    +0.000 C 
BRANCH  11  12
ATOM     12  O   UNL     1       1.995   5.059  21.054  0.00  0.00    +0.000 OA
BRANCH  12  13
ATOM     13  C   UNL     1       1.829   6.317  20.541  0.00  0.00    +0.000 A 
ATOM     14  C   UNL     1       1.131   7.358  21.144  0.00  0.00    +0.000 A 
ATOM     15  C   UNL     1       1.048   8.604  20.514  0.00  0.00    +0.000 A 
ATOM     16  C   UNL     1       1.654   8.834  19.269  0.00  0.00    +0.000 A 
ATOM     17  C   UNL     1       1.522  10.192  18.638  0.00  0.00    +0.000 C 
ATOM     18  C   UNL     1       2.360   7.786  18.652  0.00  0.00    +0.000 A 
ATOM     19  C   UNL     1       3.055   7.932  17.325  0.00  0.00    +0.000 C 
ATOM     20  C   UNL     1       2.434   6.536  19.300  0.00  0.00    +0.000 A 
ENDBRANCH  12  13
ENDBRANCH  11  12
ENDBRANCH   1  11
TORSDOF 5
ENDMDL
MODEL 8
REMARK VINA RESULT:      -6.6      3.404      5.585
REMARK  Name = 
REMARK  8 active torsions:
REMARK  status: ('A' for Active; 'I' for Inactive)
REMARK    1  A    between atoms: C_1  and  C_2
REMARK    2  A    between atoms: C_5  and  S_6
REMARK    3  A    between atoms: S_6  and  C_7
REMARK    4  A    between atoms: C_7  and  C_9
REMARK    5  A    between atoms: C_9  and  O_10
REMARK    6  A    between atoms: O_10  and  C_11
REMARK    7  A    between atoms: C_14  and  C_15
REMARK    8  A    between atoms: C_16  and  C_17
REMARK                            x       y       z     vdW  Elec       q    Type
REMARK                         _______ _______ _______ _____ _____    ______ ____
ROOT
ATOM      1  C   UNL     1       7.639   5.037  18.076  0.00  0.00    +0.000 C 
ATOM      2  O   UNL     1       8.417   4.129  17.808  0.00  0.00    +0.000 OA
ENDROOT
BRANCH   1   3
ATOM      3  S   UNL     1       7.143   6.239  16.874  0.00  0.00    +0.000 S 
BRANCH   3   8
ATOM      4  C   UNL     1       5.492   3.013  11.958  0.00  0.00    +0.000 C 
ATOM      5  C   UNL     1       5.893   3.780  13.186  0.00  0.00    +0.000 A 
ATOM      6  C   UNL     1       5.075   3.806  14.322  0.00  0.00    +0.000 A 
ATOM      7  C   UNL     1       5.460   4.531  15.458  0.00  0.00    +0.000 A 
ATOM      8  C   UNL     1       6.667   5.233  15.480  0.00  0.00    +0.000 A 
ATOM      9  C   UNL     1       7.477   5.216  14.339  0.00  0.00    +0.000 A 
ATOM     10  C   UNL     1       7.094   4.493  13.203  0.00  0.00    +0.000 A 
ENDBRANCH   3   8
ENDBRANCH   1   3
BRANCH   1  11
ATOM     11  C   UNL     1       6.970   5.203  19.432  0.00  0.00    +0.000 C 
BRANCH  11  12
ATOM     12  O   UNL     1       5.628   5.647  19.258  0.00  0.00    +0.000 OA
BRANCH  12  13
ATOM     13  C   UNL     1       4.663   4.681  19.161  0.00  0.00    +0.000 A 
ATOM     14  C   UNL     1       4.735   3.399  19.695  0.00  0.00    +0.000 A 
ATOM     15  C   UNL     1       3.667   2.511  19.534  0.00  0.00    +0.000 A 
ATOM     16  C   UNL     1       2.509   2.882  18.832  0.00  0.00    +0.000 A 
ATOM     17  C   UNL     1       1.398   1.880  18.684  0.00  0.00    +0.000 C 
ATOM     18  C   UNL     1       2.429   4.176  18.287  0.00  0.00    +0.000 A 
ATOM     19  C   UNL     1       1.229   4.675  17.528  0.00  0.00    +0.000 C 
ATOM     20  C   UNL     1       3.514   5.059  18.459  0.00  0.00    +0.000 A 
ENDBRANCH  12  13
ENDBRANCH  11  12
ENDBRANCH   1  11
TORSDOF 5
ENDMDL
MODEL 9
REMARK VINA RESULT:      -6.5      5.418      6.417
REMARK  Name = 
REMARK  8 active torsions:
REMARK  status: ('A' for Active; 'I' for Inactive)
REMARK    1  A    between atoms: C_1  and  C_2
REMARK    2  A    between atoms: C_5  and  S_6
REMARK    3  A    between atoms: S_6  and  C_7
REMARK    4  A    between atoms: C_7  and  C_9
REMARK    5  A    between atoms: C_9  and  O_10
REMARK    6  A    between atoms: O_10  and  C_11
REMARK    7  A    between atoms: C_14  and  C_15
REMARK    8  A    between atoms: C_16  and  C_17
REMARK                            x       y       z     vdW  Elec       q    Type
REMARK                         _______ _______ _______ _____ _____    ______ ____
ROOT
ATOM      1  C   UNL     1       7.565   7.161  17.778  0.00  0.00    +0.000 C 
ATOM      2  O   UNL     1       7.037   7.460  16.714  0.00  0.00    +0.000 OA
ENDROOT
BRANCH   1   3
ATOM      3  S   UNL     1       7.453   5.531  18.462  0.00  0.00    +0.000 S 
BRANCH   3   8
ATOM      4  C   UNL     1       1.566   3.991  17.939  0.00  0.00    +0.000 C 
ATOM      5  C   UNL     1       3.012   4.384  18.038  0.00  0.00    +0.000 A 
ATOM      6  C   UNL     1       3.914   4.089  17.010  0.00  0.00    +0.000 A 
ATOM      7  C   UNL     1       5.262   4.457  17.118  0.00  0.00    +0.000 A 
ATOM      8  C   UNL     1       5.728   5.130  18.250  0.00  0.00    +0.000 A 
ATOM      9  C   UNL     1       4.827   5.413  19.283  0.00  0.00    +0.000 A 
ATOM     10  C   UNL     1       3.481   5.046  19.177  0.00  0.00    +0.000 A 
ENDBRANCH   3   8
ENDBRANCH   1   3
BRANCH   1  11
ATOM     11  C   UNL     1       8.418   8.118  18.596  0.00  0.00    +0.000 C 
BRANCH  11  12
ATOM     12  O   UNL     1       8.496   9.379  17.939  0.00  0.00    +0.000 OA
BRANCH  12  13
ATOM     13  C   UNL     1       9.065  10.409  18.637  0.00  0.00    +0.000 A 
ATOM     14  C   UNL     1       9.354  10.411  19.998  0.00  0.00    +0.000 A 
ATOM     15  C   UNL     1       9.951  11.530  20.587  0.00  0.00    +0.000 A 
ATOM     16  C   UNL     1      10.266  12.670  19.833  0.00  0.00    +0.000 A 
ATOM     17  C   UNL     1      10.899  13.846  20.524  0.00  0.00    +0.000 C 
ATOM     18  C   UNL     1       9.975  12.678  18.456  0.00  0.00    +0.000 A 
ATOM     19  C   UNL     1      10.284  13.845  17.557  0.00  0.00    +0.000 C 
ATOM     20  C   UNL     1       9.374  11.542  17.878  0.00  0.00    +0.000 A 
ENDBRANCH  12  13
ENDBRANCH  11  12
ENDBRANCH   1  11
TORSDOF 5
ENDMDL
