MODEL 1
REMARK VINA RESULT:      -6.6      0.000      0.000
REMARK  Name = 
REMARK  7 active torsions:
REMARK  status: ('A' for Active; 'I' for Inactive)
REMARK    1  A    between atoms: C_1  and  C_2
REMARK    2  A    between atoms: N_4  and  C_5
REMARK    3  A    between atoms: C_6  and  C_7
REMARK    4  A    between atoms: C_8  and  C_9
REMARK    5  A    between atoms: C_13  and  N_14
REMARK    6  A    between atoms: C_15  and  C_17
REMARK    7  A    between atoms: C_17  and  C_18
REMARK                            x       y       z     vdW  Elec       q    Type
REMARK                         _______ _______ _______ _____ _____    ______ ____
ROOT
ATOM      1  C   UNL     1      -1.365  10.420  19.022  0.00  0.00    +0.000 C 
ATOM      2  O   UNL     1      -2.683  10.927  18.706  0.00  0.00    +0.000 OA
ATOM      3  C   UNL     1      -2.935  10.679  17.316  0.00  0.00    +0.000 C 
ATOM      4  C   UNL     1      -1.783   9.844  16.792  0.00  0.00    +0.000 C 
ATOM      5  C   UNL     1      -0.639  10.294  17.676  0.00  0.00    +0.000 C 
ENDROOT
BRANCH   1  13
ATOM      6  C   UNL     1      -0.124   9.327  21.796  0.00  0.00    +0.000 C 
ATOM      7  C   UNL     1      -0.134  10.724  21.295  0.00  0.00    +0.000 A 
ATOM      8  N   UNL     1       0.392  11.694  22.046  0.00  0.00    +0.000 NA
ATOM      9  N   UNL     1       0.208  12.809  21.321  0.00  0.00    +0.000 N 
ATOM     10  C   UNL     1       0.584  14.079  21.897  0.00  0.00    +0.000 C 
ATOM     11  C   UNL     1      -0.372  12.580  20.099  0.00  0.00    +0.000 A 
ATOM     12  C   UNL     1      -0.620  13.639  19.088  0.00  0.00    +0.000 C 
ATOM     13  C   UNL     1      -0.659  11.222  20.067  0.00  0.00    +0.000 A 
ENDBRANCH   1  13
BRANCH   5  14
ATOM     14  N   UNL     1       0.459   9.343  17.661  0.00  0.00    +0.000 N 
ATOM     15  C   UNL     1       1.768   9.740  17.858  0.00  0.00    +0.000 C 
ATOM     16  O   UNL     1       2.109  10.909  17.978  0.00  0.00    +0.000 OA
ATOM     17  H   UNL     1       0.242   8.354  17.662  0.00  0.00    +0.000 HD
BRANCH  15  18
ATOM     18  C   UNL     1       2.736   8.576  17.929  0.00  0.00    +0.000 C 
BRANCH  18  19
ATOM     19  C   UNL     1       2.067   7.298  18.423  0.00  0.00    +0.000 C 
ATOM     20  C   UNL     1       2.206   7.014  19.936  0.00  0.00    +0.000 C 
ATOM     21  C   UNL     1       2.574   5.513  19.976  0.00  0.00    +0.000 C 
ATOM     22  C   UNL     1       4.062   5.369  19.633  0.00  0.00    +0.000 C 
ATOM     23  C   UNL     1       4.103   5.769  18.150  0.00  0.00    +0.000 C 
ATOM     24  C   UNL     1       2.615   5.993  17.801  0.00  0.00    +0.000 C 
ATOM     25  C   UNL     1       1.929   4.963  18.702  0.00  0.00    +0.000 C 
ENDBRANCH  18  19
ENDBRANCH  15  18
ENDBRANCH   5  14
TORSDOF 4
ENDMDL
MODEL 2
REMARK VINA RESULT:      -6.4      1.611      2.231
REMARK  Name = 
REMARK  7 active torsions:
REMARK  status: ('A' for Active; 'I' for Inactive)
REMARK    1  A    between atoms: C_1  and  C_2
REMARK    2  A    between atoms: N_4  and  C_5
REMARK    3  A    between atoms: C_6  and  C_7
REMARK    4  A    between atoms: C_8  and  C_9
REMARK    5  A    between atoms: C_13  and  N_14
REMARK    6  A    between atoms: C_15  and  C_17
REMARK    7  A    between atoms: C_17  and  C_18
REMARK                            x       y       z     vdW  Elec       q    Type
REMARK                         _______ _______ _______ _____ _____    ______ ____
ROOT
ATOM      1  C   UNL     1      -0.508  11.542  19.415  0.00  0.00    +0.000 C 
ATOM      2  O   UNL     1      -1.507  12.267  18.658  0.00  0.00    +0.000 OA
ATOM      3  C   UNL     1      -1.908  11.447  17.551  0.00  0.00    +0.000 C 
ATOM      4  C   UNL     1      -1.239  10.097  17.724  0.00  0.00    +0.000 C 
ATOM      5  C   UNL     1       0.031  10.467  18.463  0.00  0.00    +0.000 C 
ENDROOT
BRANCH   1  13
ATOM      6  C   UNL     1      -0.621  12.874  22.355  0.00  0.00    +0.000 C 
ATOM      7  C   UNL     1       0.444  13.025  21.331  0.00  0.00    +0.000 A 
ATOM      8  N   UNL     1       1.490  13.813  21.584  0.00  0.00    +0.000 NA
ATOM      9  N   UNL     1       2.237  13.738  20.470  0.00  0.00    +0.000 N 
ATOM     10  C   UNL     1       3.417  14.564  20.371  0.00  0.00    +0.000 C 
ATOM     11  C   UNL     1       1.729  12.882  19.526  0.00  0.00    +0.000 A 
ATOM     12  C   UNL     1       2.402  12.577  18.238  0.00  0.00    +0.000 C 
ATOM     13  C   UNL     1       0.520  12.431  20.037  0.00  0.00    +0.000 A 
ENDBRANCH   1  13
BRANCH   5  14
ATOM     14  N   UNL     1       0.626   9.315  19.117  0.00  0.00    +0.000 N 
ATOM     15  C   UNL     1       1.739   8.680  18.599  0.00  0.00    +0.000 C 
ATOM     16  O   UNL     1       2.253   8.980  17.530  0.00  0.00    +0.000 OA
ATOM     17  H   UNL     1       0.314   9.072  20.049  0.00  0.00    +0.000 HD
BRANCH  15  18
ATOM     18  C   UNL     1       2.271   7.585  19.503  0.00  0.00    +0.000 C 
BRANCH  18  19
ATOM     19  C   UNL     1       2.816   6.399  18.714  0.00  0.00    +0.000 C 
ATOM     20  C   UNL     1       1.767   5.590  17.918  0.00  0.00    +0.000 C 
ATOM     21  C   UNL     1       2.145   4.124  18.236  0.00  0.00    +0.000 C 
ATOM     22  C   UNL     1       1.610   3.778  19.632  0.00  0.00    +0.000 C 
ATOM     23  C   UNL     1       2.488   4.643  20.549  0.00  0.00    +0.000 C 
ATOM     24  C   UNL     1       3.487   5.300  19.570  0.00  0.00    +0.000 C 
ATOM     25  C   UNL     1       3.647   4.205  18.513  0.00  0.00    +0.000 C 
ENDBRANCH  18  19
ENDBRANCH  15  18
ENDBRANCH   5  14
TORSDOF 4
ENDMDL
MODEL 3
REMARK VINA RESULT:      -6.2      3.647      7.983
REMARK  Name = 
REMARK  7 active torsions:
REMARK  status: ('A' for Active; 'I' for Inactive)
REMARK    1  A    between atoms: C_1  and  C_2
REMARK    2  A    between atoms: N_4  and  C_5
REMARK    3  A    between atoms: C_6  and  C_7
REMARK    4  A    between atoms: C_8  and  C_9
REMARK    5  A    between atoms: C_13  and  N_14
REMARK    6  A    between atoms: C_15  and  C_17
REMARK    7  A    between atoms: C_17  and  C_18
REMARK                            x       y       z     vdW  Elec       q    Type
REMARK                         _______ _______ _______ _____ _____    ______ ____
ROOT
ATOM      1  C   UNL     1       3.590   3.866  17.121  0.00  0.00    +0.000 C 
ATOM      2  O   UNL     1       3.445   2.442  17.337  0.00  0.00    +0.000 OA
ATOM      3  C   UNL     1       2.199   2.218  18.011  0.00  0.00    +0.000 C 
ATOM      4  C   UNL     1       1.476   3.549  18.076  0.00  0.00    +0.000 C 
ATOM      5  C   UNL     1       2.627   4.532  18.113  0.00  0.00    +0.000 C 
ENDROOT
BRANCH   1  13
ATOM      6  C   UNL     1       5.638   4.180  14.644  0.00  0.00    +0.000 C 
ATOM      7  C   UNL     1       5.904   4.446  16.080  0.00  0.00    +0.000 A 
ATOM      8  N   UNL     1       7.122   4.836  16.461  0.00  0.00    +0.000 NA
ATOM      9  N   UNL     1       7.024   4.969  17.794  0.00  0.00    +0.000 N 
ATOM     10  C   UNL     1       8.214   5.293  18.545  0.00  0.00    +0.000 C 
ATOM     11  C   UNL     1       5.764   4.729  18.278  0.00  0.00    +0.000 A 
ATOM     12  C   UNL     1       5.385   4.875  19.707  0.00  0.00    +0.000 C 
ATOM     13  C   UNL     1       5.009   4.331  17.184  0.00  0.00    +0.000 A 
ENDBRANCH   1  13
BRANCH   5  14
ATOM     14  N   UNL     1       2.202   5.871  17.745  0.00  0.00    +0.000 N 
ATOM     15  C   UNL     1       2.339   6.941  18.610  0.00  0.00    +0.000 C 
ATOM     16  O   UNL     1       2.746   6.834  19.758  0.00  0.00    +0.000 OA
ATOM     17  H   UNL     1       1.945   6.051  16.782  0.00  0.00    +0.000 HD
BRANCH  15  18
ATOM     18  C   UNL     1       1.950   8.265  17.981  0.00  0.00    +0.000 C 
BRANCH  18  19
ATOM     19  C   UNL     1       1.780   9.368  19.019  0.00  0.00    +0.000 C 
ATOM     20  C   UNL     1       0.890   9.011  20.232  0.00  0.00    +0.000 C 
ATOM     21  C   UNL     1      -0.006  10.262  20.385  0.00  0.00    +0.000 C 
ATOM     22  C   UNL     1      -1.116  10.195  19.328  0.00  0.00    +0.000 C 
ATOM     23  C   UNL     1      -0.340  10.396  18.017  0.00  0.00    +0.000 C 
ATOM     24  C   UNL     1       1.105  10.657  18.495  0.00  0.00    +0.000 C 
ATOM     25  C   UNL     1       0.864  11.386  19.820  0.00  0.00    +0.000 C 
ENDBRANCH  18  19
ENDBRANCH  15  18
ENDBRANCH   5  14
TORSDOF 4
ENDMDL
MODEL 4
REMARK VINA RESULT:      -6.2      0.932      1.307
REMARK  Name = 
REMARK  7 active torsions:
REMARK  status: ('A' for Active; 'I' for Inactive)
REMARK    1  A    between atoms: C_1  and  C_2
REMARK    2  A    between atoms: N_4  and  C_5
REMARK    3  A    between atoms: C_6  and  C_7
REMARK    4  A    between atoms: C_8  and  C_9
REMARK    5  A    between atoms: C_13  and  N_14
REMARK    6  A    between atoms: C_15  and  C_17
REMARK    7  A    between atoms: C_17  and  C_18
REMARK                            x       y       z     vdW  Elec       q    Type
REMARK                         _______ _______ _______ _____ _____    ______ ____
ROOT
ATOM      1  C   UNL     1      -1.247  11.078  19.107  0.00  0.00    +0.000 C 
ATOM      2  O   UNL     1      -2.330  11.759  18.430  0.00  0.00    +0.000 OA
ATOM      3  C   UNL     1      -2.541  11.115  17.166  0.00  0.00    +0.000 C 
ATOM      4  C   UNL     1      -1.651   9.888  17.131  0.00  0.00    +0.000 C 
ATOM      5  C   UNL     1      -0.493  10.313  18.011  0.00  0.00    +0.000 C 
ENDROOT
BRANCH   1  13
ATOM      6  C   UNL     1       0.011  10.417  22.007  0.00  0.00    +0.000 C 
ATOM      7  C   UNL     1       0.117  11.683  21.239  0.00  0.00    +0.000 A 
ATOM      8  N   UNL     1       0.773  12.718  21.768  0.00  0.00    +0.000 NA
ATOM      9  N   UNL     1       0.666  13.685  20.842  0.00  0.00    +0.000 N 
ATOM     10  C   UNL     1       1.194  14.995  21.144  0.00  0.00    +0.000 C 
ATOM     11  C   UNL     1       0.007  13.286  19.707  0.00  0.00    +0.000 A 
ATOM     12  C   UNL     1      -0.182  14.150  18.513  0.00  0.00    +0.000 C 
ATOM     13  C   UNL     1      -0.415  11.987  19.952  0.00  0.00    +0.000 A 
ENDBRANCH   1  13
BRANCH   5  14
ATOM     14  N   UNL     1       0.273   9.172  18.479  0.00  0.00    +0.000 N 
ATOM     15  C   UNL     1       1.620   9.037  18.203  0.00  0.00    +0.000 C 
ATOM     16  O   UNL     1       2.244   9.810  17.490  0.00  0.00    +0.000 OA
ATOM     17  H   UNL     1      -0.154   8.545  19.151  0.00  0.00    +0.000 HD
BRANCH  15  18
ATOM     18  C   UNL     1       2.250   7.842  18.891  0.00  0.00    +0.000 C 
BRANCH  18  19
ATOM     19  C   UNL     1       2.661   6.757  17.902  0.00  0.00    +0.000 C 
ATOM     20  C   UNL     1       1.862   5.437  17.992  0.00  0.00    +0.000 C 
ATOM     21  C   UNL     1       2.966   4.357  17.925  0.00  0.00    +0.000 C 
ATOM     22  C   UNL     1       3.628   4.255  19.306  0.00  0.00    +0.000 C 
ATOM     23  C   UNL     1       4.365   5.598  19.422  0.00  0.00    +0.000 C 
ATOM     24  C   UNL     1       4.118   6.260  18.048  0.00  0.00    +0.000 C 
ATOM     25  C   UNL     1       4.075   5.042  17.123  0.00  0.00    +0.000 C 
ENDBRANCH  18  19
ENDBRANCH  15  18
ENDBRANCH   5  14
TORSDOF 4
ENDMDL
MODEL 5
REMARK VINA RESULT:      -6.1      2.297      3.716
REMARK  Name = 
REMARK  7 active torsions:
REMARK  status: ('A' for Active; 'I' for Inactive)
REMARK    1  A    between atoms: C_1  and  C_2
REMARK    2  A    between atoms: N_4  and  C_5
REMARK    3  A    between atoms: C_6  and  C_7
REMARK    4  A    between atoms: C_8  and  C_9
REMARK    5  A    between atoms: C_13  and  N_14
REMARK    6  A    between atoms: C_15  and  C_17
REMARK    7  A    between atoms: C_17  and  C_18
REMARK                            x       y       z     vdW  Elec       q    Type
REMARK                         _______ _______ _______ _____ _____    ______ ____
ROOT
ATOM      1  C   UNL     1      -0.499  11.892  18.592  0.00  0.00    +0.000 C 
ATOM      2  O   UNL     1      -0.128  13.289  18.516  0.00  0.00    +0.000 OA
ATOM      3  C   UNL     1       1.091  13.467  19.250  0.00  0.00    +0.000 C 
ATOM      4  C   UNL     1       1.571  12.090  19.667  0.00  0.00    +0.000 C 
ATOM      5  C   UNL     1       0.270  11.327  19.794  0.00  0.00    +0.000 C 
ENDROOT
BRANCH   1  13
ATOM      6  C   UNL     1      -2.193   9.942  16.653  0.00  0.00    +0.000 C 
ATOM      7  C   UNL     1      -2.710  10.822  17.731  0.00  0.00    +0.000 A 
ATOM      8  N   UNL     1      -4.024  10.881  17.956  0.00  0.00    +0.000 NA
ATOM      9  N   UNL     1      -4.148  11.762  18.962  0.00  0.00    +0.000 N 
ATOM     10  C   UNL     1      -5.474  12.136  19.395  0.00  0.00    +0.000 C 
ATOM     11  C   UNL     1      -2.947  12.233  19.429  0.00  0.00    +0.000 A 
ATOM     12  C   UNL     1      -2.815  13.165  20.578  0.00  0.00    +0.000 C 
ATOM     13  C   UNL     1      -1.978  11.674  18.608  0.00  0.00    +0.000 A 
ENDBRANCH   1  13
BRANCH   5  14
ATOM     14  N   UNL     1       0.483   9.891  19.762  0.00  0.00    +0.000 N 
ATOM     15  C   UNL     1       0.960   9.203  20.862  0.00  0.00    +0.000 C 
ATOM     16  O   UNL     1       1.308   9.746  21.901  0.00  0.00    +0.000 OA
ATOM     17  H   UNL     1       0.129   9.366  18.972  0.00  0.00    +0.000 HD
BRANCH  15  18
ATOM     18  C   UNL     1       0.988   7.701  20.654  0.00  0.00    +0.000 C 
BRANCH  18  19
ATOM     19  C   UNL     1       2.305   7.226  20.051  0.00  0.00    +0.000 C 
ATOM     20  C   UNL     1       2.428   7.376  18.517  0.00  0.00    +0.000 C 
ATOM     21  C   UNL     1       3.023   6.017  18.081  0.00  0.00    +0.000 C 
ATOM     22  C   UNL     1       1.895   4.977  18.066  0.00  0.00    +0.000 C 
ATOM     23  C   UNL     1       1.561   4.826  19.558  0.00  0.00    +0.000 C 
ATOM     24  C   UNL     1       2.610   5.724  20.251  0.00  0.00    +0.000 C 
ATOM     25  C   UNL     1       3.812   5.571  19.315  0.00  0.00    +0.000 C 
ENDBRANCH  18  19
ENDBRANCH  15  18
ENDBRANCH   5  14
TORSDOF 4
ENDMDL
MODEL 6
REMARK VINA RESULT:      -6.1      1.215      1.315
REMARK  Name = 
REMARK  7 active torsions:
REMARK  status: ('A' for Active; 'I' for Inactive)
REMARK    1  A    between atoms: C_1  and  C_2
REMARK    2  A    between atoms: N_4  and  C_5
REMARK    3  A    between atoms: C_6  and  C_7
REMARK    4  A    between atoms: C_8  and  C_9
REMARK    5  A    between atoms: C_13  and  N_14
REMARK    6  A    between atoms: C_15  and  C_17
REMARK    7  A    between atoms: C_17  and  C_18
REMARK                            x       y       z     vdW  Elec       q    Type
REMARK                         _______ _______ _______ _____ _____    ______ ____
ROOT
ATOM      1  C   UNL     1      -1.200  11.373  19.629  0.00  0.00    +0.000 C 
ATOM      2  O   UNL     1      -2.239  11.986  18.829  0.00  0.00    +0.000 OA
ATOM      3  C   UNL     1      -2.276  11.322  17.559  0.00  0.00    +0.000 C 
ATOM      4  C   UNL     1      -1.320  10.146  17.638  0.00  0.00    +0.000 C 
ATOM      5  C   UNL     1      -0.291  10.643  18.632  0.00  0.00    +0.000 C 
ENDROOT
BRANCH   1  13
ATOM      6  C   UNL     1      -1.125  11.253  22.856  0.00  0.00    +0.000 C 
ATOM      7  C   UNL     1      -0.510  12.275  21.971  0.00  0.00    +0.000 A 
ATOM      8  N   UNL     1       0.140  13.306  22.513  0.00  0.00    +0.000 NA
ATOM      9  N   UNL     1       0.548  14.031  21.458  0.00  0.00    +0.000 N 
ATOM     10  C   UNL     1       1.213  15.290  21.699  0.00  0.00    +0.000 C 
ATOM     11  C   UNL     1       0.226  13.468  20.249  0.00  0.00    +0.000 A 
ATOM     12  C   UNL     1       0.623  14.041  18.938  0.00  0.00    +0.000 C 
ATOM     13  C   UNL     1      -0.517  12.334  20.547  0.00  0.00    +0.000 A 
ENDBRANCH   1  13
BRANCH   5  14
ATOM     14  N   UNL     1       0.482   9.550  19.197  0.00  0.00    +0.000 N 
ATOM     15  C   UNL     1       1.587   9.031  18.550  0.00  0.00    +0.000 C 
ATOM     16  O   UNL     1       1.948   9.387  17.437  0.00  0.00    +0.000 OA
ATOM     17  H   UNL     1       0.298   9.271  20.153  0.00  0.00    +0.000 HD
BRANCH  15  18
ATOM     18  C   UNL     1       2.318   7.986  19.371  0.00  0.00    +0.000 C 
BRANCH  18  19
ATOM     19  C   UNL     1       2.030   6.569  18.889  0.00  0.00    +0.000 C 
ATOM     20  C   UNL     1       2.109   5.468  19.971  0.00  0.00    +0.000 C 
ATOM     21  C   UNL     1       2.915   4.349  19.272  0.00  0.00    +0.000 C 
ATOM     22  C   UNL     1       4.400   4.731  19.302  0.00  0.00    +0.000 C 
ATOM     23  C   UNL     1       4.454   5.938  18.354  0.00  0.00    +0.000 C 
ATOM     24  C   UNL     1       3.008   6.034  17.817  0.00  0.00    +0.000 C 
ATOM     25  C   UNL     1       2.592   4.561  17.791  0.00  0.00    +0.000 C 
ENDBRANCH  18  19
ENDBRANCH  15  18
ENDBRANCH   5  14
TORSDOF 4
ENDMDL
MODEL 7
REMARK VINA RESULT:      -6.1      3.466      7.829
REMARK  Name = 
REMARK  7 active torsions:
REMARK  status: ('A' for Active; 'I' for Inactive)
REMARK    1  A    between atoms: C_1  and  C_2
REMARK    2  A    between atoms: N_4  and  C_5
REMARK    3  A    between atoms: C_6  and  C_7
REMARK    4  A    between atoms: C_8  and  C_9
REMARK    5  A    between atoms: C_13  and  N_14
REMARK    6  A    between atoms: C_15  and  C_17
REMARK    7  A    between atoms: C_17  and  C_18
REMARK                            x       y       z     vdW  Elec       q    Type
REMARK                         _______ _______ _______ _____ _____    ______ ____
ROOT
ATOM      1  C   UNL     1       3.645   4.513  17.051  0.00  0.00    +0.000 C 
ATOM      2  O   UNL     1       3.475   3.077  17.117  0.00  0.00    +0.000 OA
ATOM      3  C   UNL     1       2.196   2.806  17.707  0.00  0.00    +0.000 C 
ATOM      4  C   UNL     1       1.484   4.135  17.869  0.00  0.00    +0.000 C 
ATOM      5  C   UNL     1       2.641   5.093  18.057  0.00  0.00    +0.000 C 
ENDROOT
BRANCH   1  13
ATOM      6  C   UNL     1       5.802   5.076  14.714  0.00  0.00    +0.000 C 
ATOM      7  C   UNL     1       6.007   5.175  16.181  0.00  0.00    +0.000 A 
ATOM      8  N   UNL     1       7.210   5.503  16.655  0.00  0.00    +0.000 NA
ATOM      9  N   UNL     1       7.056   5.487  17.989  0.00  0.00    +0.000 N 
ATOM     10  C   UNL     1       8.215   5.708  18.822  0.00  0.00    +0.000 C 
ATOM     11  C   UNL     1       5.774   5.211  18.389  0.00  0.00    +0.000 A 
ATOM     12  C   UNL     1       5.334   5.200  19.808  0.00  0.00    +0.000 C 
ATOM     13  C   UNL     1       5.064   4.948  17.225  0.00  0.00    +0.000 A 
ENDBRANCH   1  13
BRANCH   5  14
ATOM     14  N   UNL     1       2.248   6.468  17.803  0.00  0.00    +0.000 N 
ATOM     15  C   UNL     1       2.190   7.406  18.817  0.00  0.00    +0.000 C 
ATOM     16  O   UNL     1       2.384   7.141  19.995  0.00  0.00    +0.000 OA
ATOM     17  H   UNL     1       2.166   6.779  16.843  0.00  0.00    +0.000 HD
BRANCH  15  18
ATOM     18  C   UNL     1       1.881   8.803  18.314  0.00  0.00    +0.000 C 
BRANCH  18  19
ATOM     19  C   UNL     1       0.611   9.372  18.937  0.00  0.00    +0.000 C 
ATOM     20  C   UNL     1      -0.367  10.051  17.951  0.00  0.00    +0.000 C 
ATOM     21  C   UNL     1      -0.755  11.354  18.688  0.00  0.00    +0.000 C 
ATOM     22  C   UNL     1       0.389  12.363  18.521  0.00  0.00    +0.000 C 
ATOM     23  C   UNL     1       1.515  11.731  19.355  0.00  0.00    +0.000 C 
ATOM     24  C   UNL     1       0.841  10.489  19.980  0.00  0.00    +0.000 C 
ATOM     25  C   UNL     1      -0.598  10.979  20.163  0.00  0.00    +0.000 C 
ENDBRANCH  18  19
ENDBRANCH  15  18
ENDBRANCH   5  14
TORSDOF 4
ENDMDL
MODEL 8
REMARK VINA RESULT:      -6.0      3.333      7.440
REMARK  Name = 
REMARK  7 active torsions:
REMARK  status: ('A' for Active; 'I' for Inactive)
REMARK    1  A    between atoms: C_1  and  C_2
REMARK    2  A    between atoms: N_4  and  C_5
REMARK    3  A    between atoms: C_6  and  C_7
REMARK    4  A    between atoms: C_8  and  C_9
REMARK    5  A    between atoms: C_13  and  N_14
REMARK    6  A    between atoms: C_15  and  C_17
REMARK    7  A    between atoms: C_17  and  C_18
REMARK                            x       y       z     vdW  Elec       q    Type
REMARK                         _______ _______ _______ _____ _____    ______ ____
ROOT
ATOM      1  C   UNL     1       3.591   4.593  17.396  0.00  0.00    +0.000 C 
ATOM      2  O   UNL     1       3.428   3.157  17.317  0.00  0.00    +0.000 OA
ATOM      3  C   UNL     1       2.050   2.849  17.569  0.00  0.00    +0.000 C 
ATOM      4  C   UNL     1       1.303   4.166  17.654  0.00  0.00    +0.000 C 
ATOM      5  C   UNL     1       2.372   5.102  18.177  0.00  0.00    +0.000 C 
ENDROOT
BRANCH   1  13
ATOM      6  C   UNL     1       5.105   3.384  19.980  0.00  0.00    +0.000 C 
ATOM      7  C   UNL     1       5.568   4.474  19.084  0.00  0.00    +0.000 A 
ATOM      8  N   UNL     1       6.726   5.085  19.340  0.00  0.00    +0.000 NA
ATOM      9  N   UNL     1       6.834   6.008  18.370  0.00  0.00    +0.000 N 
ATOM     10  C   UNL     1       7.948   6.926  18.408  0.00  0.00    +0.000 C 
ATOM     11  C   UNL     1       5.804   5.973  17.464  0.00  0.00    +0.000 A 
ATOM     12  C   UNL     1       5.728   6.846  16.265  0.00  0.00    +0.000 C 
ATOM     13  C   UNL     1       4.923   5.007  17.930  0.00  0.00    +0.000 A 
ENDBRANCH   1  13
BRANCH   5  14
ATOM     14  N   UNL     1       2.032   6.494  17.938  0.00  0.00    +0.000 N 
ATOM     15  C   UNL     1       2.161   7.453  18.924  0.00  0.00    +0.000 C 
ATOM     16  O   UNL     1       2.489   7.200  20.075  0.00  0.00    +0.000 OA
ATOM     17  H   UNL     1       1.846   6.791  16.988  0.00  0.00    +0.000 HD
BRANCH  15  18
ATOM     18  C   UNL     1       1.874   8.857  18.427  0.00  0.00    +0.000 C 
BRANCH  18  19
ATOM     19  C   UNL     1       0.591   9.428  19.022  0.00  0.00    +0.000 C 
ATOM     20  C   UNL     1      -0.367  10.104  18.014  0.00  0.00    +0.000 C 
ATOM     21  C   UNL     1      -0.769  11.409  18.739  0.00  0.00    +0.000 C 
ATOM     22  C   UNL     1       0.379  12.418  18.592  0.00  0.00    +0.000 C 
ATOM     23  C   UNL     1       1.487  11.789  19.450  0.00  0.00    +0.000 C 
ATOM     24  C   UNL     1       0.800  10.549  20.066  0.00  0.00    +0.000 C 
ATOM     25  C   UNL     1      -0.641  11.040  20.218  0.00  0.00    +0.000 C 
ENDBRANCH  18  19
ENDBRANCH  15  18
ENDBRANCH   5  14
TORSDOF 4
ENDMDL
MODEL 9
REMARK VINA RESULT:      -6.0      3.040      7.447
REMARK  Name = 
REMARK  7 active torsions:
REMARK  status: ('A' for Active; 'I' for Inactive)
REMARK    1  A    between atoms: C_1  and  C_2
REMARK    2  A    between atoms: N_4  and  C_5
REMARK    3  A    between atoms: C_6  and  C_7
REMARK    4  A    between atoms: C_8  and  C_9
REMARK    5  A    between atoms: C_13  and  N_14
REMARK    6  A    between atoms: C_15  and  C_17
REMARK    7  A    between atoms: C_17  and  C_18
REMARK                            x       y       z     vdW  Elec       q    Type
REMARK                         _______ _______ _______ _____ _____    ______ ____
ROOT
ATOM      1  C   UNL     1       4.545   5.353  19.112  0.00  0.00    +0.000 C 
ATOM      2  O   UNL     1       5.635   4.401  19.082  0.00  0.00    +0.000 OA
ATOM      3  C   UNL     1       6.646   4.908  18.200  0.00  0.00    +0.000 C 
ATOM      4  C   UNL     1       6.226   6.307  17.790  0.00  0.00    +0.000 C 
ATOM      5  C   UNL     1       4.715   6.213  17.853  0.00  0.00    +0.000 C 
ENDROOT
BRANCH   1  13
ATOM      6  C   UNL     1       2.111   6.403  20.957  0.00  0.00    +0.000 C 
ATOM      7  C   UNL     1       2.150   5.181  20.116  0.00  0.00    +0.000 A 
ATOM      8  N   UNL     1       1.096   4.363  20.099  0.00  0.00    +0.000 NA
ATOM      9  N   UNL     1       1.460   3.371  19.270  0.00  0.00    +0.000 N 
ATOM     10  C   UNL     1       0.568   2.248  19.101  0.00  0.00    +0.000 C 
ATOM     11  C   UNL     1       2.698   3.553  18.709  0.00  0.00    +0.000 A 
ATOM     12  C   UNL     1       3.297   2.632  17.710  0.00  0.00    +0.000 C 
ATOM     13  C   UNL     1       3.206   4.711  19.282  0.00  0.00    +0.000 A 
ENDBRANCH   1  13
BRANCH   5  14
ATOM     14  N   UNL     1       4.098   7.526  17.923  0.00  0.00    +0.000 N 
ATOM     15  C   UNL     1       2.752   7.711  17.669  0.00  0.00    +0.000 C 
ATOM     16  O   UNL     1       2.006   6.817  17.296  0.00  0.00    +0.000 OA
ATOM     17  H   UNL     1       4.632   8.292  18.316  0.00  0.00    +0.000 HD
BRANCH  15  18
ATOM     18  C   UNL     1       2.292   9.133  17.921  0.00  0.00    +0.000 C 
BRANCH  18  19
ATOM     19  C   UNL     1       0.966   9.186  18.672  0.00  0.00    +0.000 C 
ATOM     20  C   UNL     1      -0.240   9.710  17.858  0.00  0.00    +0.000 C 
ATOM     21  C   UNL     1      -0.921  10.692  18.840  0.00  0.00    +0.000 C 
ATOM     22  C   UNL     1      -0.128  12.005  18.841  0.00  0.00    +0.000 C 
ATOM     23  C   UNL     1       1.193  11.595  19.511  0.00  0.00    +0.000 C 
ATOM     24  C   UNL     1       0.951  10.121  19.904  0.00  0.00    +0.000 C 
ATOM     25  C   UNL     1      -0.548  10.127  20.212  0.00  0.00    +0.000 C 
ENDBRANCH  18  19
ENDBRANCH  15  18
ENDBRANCH   5  14
TORSDOF 4
ENDMDL
