MODEL 1
REMARK VINA RESULT:      -6.6      0.000      0.000
REMARK  Name = 
REMARK  3 active torsions:
REMARK  status: ('A' for Active; 'I' for Inactive)
REMARK    1  A    between atoms: C_4  and  C_5
REMARK    2  A    between atoms: C_5  and  N_6
REMARK    3  A    between atoms: C_13  and  C_14
REMARK                            x       y       z     vdW  Elec       q    Type
REMARK                         _______ _______ _______ _____ _____    ______ ____
ROOT
ATOM      1  N   UNL     1       4.543   5.733  16.417  0.00  0.00    +0.000 NA
ATOM      2  C   UNL     1       4.178   4.447  17.053  0.00  0.00    +0.000 C 
ATOM      3  C   UNL     1       2.676   4.275  17.318  0.00  0.00    +0.000 C 
ATOM      4  C   UNL     1       2.224   4.922  18.606  0.00  0.00    +0.000 A 
ATOM      5  N   UNL     1       1.790   4.078  19.568  0.00  0.00    +0.000 NA
ATOM      6  C   UNL     1       1.387   4.628  20.712  0.00  0.00    +0.000 A 
ATOM      7  N   UNL     1       1.438   5.930  21.003  0.00  0.00    +0.000 NA
ATOM      8  C   UNL     1       1.863   6.781  20.038  0.00  0.00    +0.000 A 
ATOM      9  C   UNL     1       2.273   6.305  18.782  0.00  0.00    +0.000 A 
ATOM     10  C   UNL     1       2.754   7.149  17.627  0.00  0.00    +0.000 C 
ATOM     11  C   UNL     1       4.238   6.918  17.254  0.00  0.00    +0.000 C 
ENDROOT
BRANCH   8  12
ATOM     12  C   UNL     1       1.885   8.251  20.443  0.00  0.00    +0.000 C 
ATOM     13  C   UNL     1       1.238   8.544  21.795  0.00  0.00    +0.000 C 
ATOM     14  C   UNL     1      -0.187   8.951  21.471  0.00  0.00    +0.000 C 
ATOM     15  O   UNL     1      -0.205   9.414  20.119  0.00  0.00    +0.000 OA
ATOM     16  C   UNL     1       1.071   9.157  19.518  0.00  0.00    +0.000 C 
ENDBRANCH   8  12
BRANCH   1  17
ATOM     17  C   UNL     1       5.988   5.745  16.047  0.00  0.00    +0.000 C 
BRANCH  17  21
ATOM     18  C   UNL     1       8.295   7.560  18.494  0.00  0.00    +0.000 A 
ATOM     19  C   UNL     1       8.286   6.379  19.202  0.00  0.00    +0.000 A 
ATOM     20  S   UNL     1       7.337   5.182  18.434  0.00  0.00    +0.000 S 
ATOM     21  C   UNL     1       6.917   6.234  17.140  0.00  0.00    +0.000 A 
ATOM     22  C   UNL     1       7.487   7.483  17.317  0.00  0.00    +0.000 A 
ENDBRANCH  17  21
ENDBRANCH   1  17
TORSDOF 3
ENDMDL
MODEL 2
REMARK VINA RESULT:      -6.6      3.467      6.790
REMARK  Name = 
REMARK  3 active torsions:
REMARK  status: ('A' for Active; 'I' for Inactive)
REMARK    1  A    between atoms: C_4  and  C_5
REMARK    2  A    between atoms: C_5  and  N_6
REMARK    3  A    between atoms: C_13  and  C_14
REMARK                            x       y       z     vdW  Elec       q    Type
REMARK                         _______ _______ _______ _____ _____    ______ ____
ROOT
ATOM      1  N   UNL     1       2.205   7.814  19.534  0.00  0.00    +0.000 NA
ATOM      2  C   UNL     1       1.734   6.464  19.920  0.00  0.00    +0.000 C 
ATOM      3  C   UNL     1       2.859   5.461  20.215  0.00  0.00    +0.000 C 
ATOM      4  C   UNL     1       3.407   4.803  18.972  0.00  0.00    +0.000 A 
ATOM      5  N   UNL     1       3.186   3.474  18.864  0.00  0.00    +0.000 NA
ATOM      6  C   UNL     1       3.662   2.873  17.773  0.00  0.00    +0.000 A 
ATOM      7  N   UNL     1       4.277   3.487  16.759  0.00  0.00    +0.000 NA
ATOM      8  C   UNL     1       4.509   4.817  16.868  0.00  0.00    +0.000 A 
ATOM      9  C   UNL     1       4.082   5.538  17.996  0.00  0.00    +0.000 A 
ATOM     10  C   UNL     1       4.290   7.012  18.239  0.00  0.00    +0.000 C 
ATOM     11  C   UNL     1       2.980   7.835  18.270  0.00  0.00    +0.000 C 
ENDROOT
BRANCH   8  12
ATOM     12  C   UNL     1       5.222   5.444  15.674  0.00  0.00    +0.000 C 
ATOM     13  C   UNL     1       5.306   4.543  14.444  0.00  0.00    +0.000 C 
ATOM     14  C   UNL     1       6.662   3.871  14.538  0.00  0.00    +0.000 C 
ATOM     15  O   UNL     1       7.495   4.695  15.357  0.00  0.00    +0.000 OA
ATOM     16  C   UNL     1       6.699   5.743  15.928  0.00  0.00    +0.000 C 
ENDBRANCH   8  12
BRANCH   1  17
ATOM     17  C   UNL     1       1.057   8.760  19.429  0.00  0.00    +0.000 C 
BRANCH  17  21
ATOM     18  C   UNL     1       0.133   9.599  23.040  0.00  0.00    +0.000 A 
ATOM     19  C   UNL     1      -0.565  10.655  22.496  0.00  0.00    +0.000 A 
ATOM     20  S   UNL     1      -0.454  10.683  20.791  0.00  0.00    +0.000 S 
ATOM     21  C   UNL     1       0.542   9.280  20.755  0.00  0.00    +0.000 A 
ATOM     22  C   UNL     1       0.789   8.821  22.037  0.00  0.00    +0.000 A 
ENDBRANCH  17  21
ENDBRANCH   1  17
TORSDOF 3
ENDMDL
MODEL 3
REMARK VINA RESULT:      -6.5      3.702      6.252
REMARK  Name = 
REMARK  3 active torsions:
REMARK  status: ('A' for Active; 'I' for Inactive)
REMARK    1  A    between atoms: C_4  and  C_5
REMARK    2  A    between atoms: C_5  and  N_6
REMARK    3  A    between atoms: C_13  and  C_14
REMARK                            x       y       z     vdW  Elec       q    Type
REMARK                         _______ _______ _______ _____ _____    ______ ____
ROOT
ATOM      1  N   UNL     1       1.400   7.831  19.787  0.00  0.00    +0.000 NA
ATOM      2  C   UNL     1       1.092   8.186  21.191  0.00  0.00    +0.000 C 
ATOM      3  C   UNL     1      -0.205   8.987  21.372  0.00  0.00    +0.000 C 
ATOM      4  C   UNL     1      -0.022  10.469  21.146  0.00  0.00    +0.000 A 
ATOM      5  N   UNL     1      -0.196  11.256  22.230  0.00  0.00    +0.000 NA
ATOM      6  C   UNL     1      -0.039  12.567  22.052  0.00  0.00    +0.000 A 
ATOM      7  N   UNL     1       0.335  13.152  20.911  0.00  0.00    +0.000 NA
ATOM      8  C   UNL     1       0.500  12.368  19.820  0.00  0.00    +0.000 A 
ATOM      9  C   UNL     1       0.321  10.977  19.892  0.00  0.00    +0.000 A 
ATOM     10  C   UNL     1       0.463  10.002  18.749  0.00  0.00    +0.000 C 
ATOM     11  C   UNL     1       1.636   9.006  18.914  0.00  0.00    +0.000 C 
ENDROOT
BRANCH   8  12
ATOM     12  C   UNL     1       0.920  13.110  18.554  0.00  0.00    +0.000 C 
ATOM     13  C   UNL     1       2.388  12.930  18.174  0.00  0.00    +0.000 C 
ATOM     14  C   UNL     1       3.101  14.128  18.770  0.00  0.00    +0.000 C 
ATOM     15  O   UNL     1       2.129  15.162  18.949  0.00  0.00    +0.000 OA
ATOM     16  C   UNL     1       0.826  14.631  18.673  0.00  0.00    +0.000 C 
ENDBRANCH   8  12
BRANCH   1  17
ATOM     17  C   UNL     1       2.578   6.919  19.722  0.00  0.00    +0.000 C 
BRANCH  17  21
ATOM     18  C   UNL     1       1.687   3.290  20.518  0.00  0.00    +0.000 A 
ATOM     19  C   UNL     1       1.660   3.115  19.153  0.00  0.00    +0.000 A 
ATOM     20  S   UNL     1       2.039   4.558  18.317  0.00  0.00    +0.000 S 
ATOM     21  C   UNL     1       2.240   5.443  19.779  0.00  0.00    +0.000 A 
ATOM     22  C   UNL     1       1.999   4.637  20.879  0.00  0.00    +0.000 A 
ENDBRANCH  17  21
ENDBRANCH   1  17
TORSDOF 3
ENDMDL
MODEL 4
REMARK VINA RESULT:      -6.4      2.887      4.471
REMARK  Name = 
REMARK  3 active torsions:
REMARK  status: ('A' for Active; 'I' for Inactive)
REMARK    1  A    between atoms: C_4  and  C_5
REMARK    2  A    between atoms: C_5  and  N_6
REMARK    3  A    between atoms: C_13  and  C_14
REMARK                            x       y       z     vdW  Elec       q    Type
REMARK                         _______ _______ _______ _____ _____    ______ ____
ROOT
ATOM      1  N   UNL     1       5.777   4.472  16.319  0.00  0.00    +0.000 NA
ATOM      2  C   UNL     1       5.182   5.762  15.899  0.00  0.00    +0.000 C 
ATOM      3  C   UNL     1       5.224   6.858  16.972  0.00  0.00    +0.000 C 
ATOM      4  C   UNL     1       4.081   6.770  17.955  0.00  0.00    +0.000 A 
ATOM      5  N   UNL     1       3.198   7.792  17.925  0.00  0.00    +0.000 NA
ATOM      6  C   UNL     1       2.182   7.733  18.784  0.00  0.00    +0.000 A 
ATOM      7  N   UNL     1       1.935   6.721  19.621  0.00  0.00    +0.000 NA
ATOM      8  C   UNL     1       2.824   5.699  19.661  0.00  0.00    +0.000 A 
ATOM      9  C   UNL     1       3.951   5.684  18.823  0.00  0.00    +0.000 A 
ATOM     10  C   UNL     1       5.013   4.614  18.782  0.00  0.00    +0.000 C 
ATOM     11  C   UNL     1       5.064   3.829  17.449  0.00  0.00    +0.000 C 
ENDROOT
BRANCH   8  12
ATOM     12  C   UNL     1       2.478   4.587  20.645  0.00  0.00    +0.000 C 
ATOM     13  C   UNL     1       3.059   3.221  20.286  0.00  0.00    +0.000 C 
ATOM     14  C   UNL     1       1.954   2.507  19.531  0.00  0.00    +0.000 C 
ATOM     15  O   UNL     1       0.715   3.110  19.911  0.00  0.00    +0.000 OA
ATOM     16  C   UNL     1       0.984   4.268  20.713  0.00  0.00    +0.000 C 
ENDBRANCH   8  12
BRANCH   1  17
ATOM     17  C   UNL     1       5.842   3.524  15.170  0.00  0.00    +0.000 C 
BRANCH  17  21
ATOM     18  C   UNL     1       7.877   5.292  12.461  0.00  0.00    +0.000 A 
ATOM     19  C   UNL     1       7.229   4.451  11.585  0.00  0.00    +0.000 A 
ATOM     20  S   UNL     1       6.128   3.418  12.387  0.00  0.00    +0.000 S 
ATOM     21  C   UNL     1       6.511   4.080  13.928  0.00  0.00    +0.000 A 
ATOM     22  C   UNL     1       7.479   5.062  13.814  0.00  0.00    +0.000 A 
ENDBRANCH  17  21
ENDBRANCH   1  17
TORSDOF 3
ENDMDL
MODEL 5
REMARK VINA RESULT:      -6.4      1.896      2.849
REMARK  Name = 
REMARK  3 active torsions:
REMARK  status: ('A' for Active; 'I' for Inactive)
REMARK    1  A    between atoms: C_4  and  C_5
REMARK    2  A    between atoms: C_5  and  N_6
REMARK    3  A    between atoms: C_13  and  C_14
REMARK                            x       y       z     vdW  Elec       q    Type
REMARK                         _______ _______ _______ _____ _____    ______ ____
ROOT
ATOM      1  N   UNL     1       4.613   4.913  16.386  0.00  0.00    +0.000 NA
ATOM      2  C   UNL     1       4.094   3.705  17.068  0.00  0.00    +0.000 C 
ATOM      3  C   UNL     1       2.577   3.714  17.302  0.00  0.00    +0.000 C 
ATOM      4  C   UNL     1       2.174   4.465  18.549  0.00  0.00    +0.000 A 
ATOM      5  N   UNL     1       1.629   3.719  19.535  0.00  0.00    +0.000 NA
ATOM      6  C   UNL     1       1.267   4.362  20.644  0.00  0.00    +0.000 A 
ATOM      7  N   UNL     1       1.457   5.663  20.880  0.00  0.00    +0.000 NA
ATOM      8  C   UNL     1       1.994   6.416  19.890  0.00  0.00    +0.000 A 
ATOM      9  C   UNL     1       2.375   5.841  18.666  0.00  0.00    +0.000 A 
ATOM     10  C   UNL     1       2.969   6.572  17.488  0.00  0.00    +0.000 C 
ATOM     11  C   UNL     1       4.426   6.162  17.164  0.00  0.00    +0.000 C 
ENDROOT
BRANCH   8  12
ATOM     12  C   UNL     1       2.173   7.891  20.232  0.00  0.00    +0.000 C 
ATOM     13  C   UNL     1       1.501   8.325  21.533  0.00  0.00    +0.000 C 
ATOM     14  C   UNL     1       0.153   8.879  21.115  0.00  0.00    +0.000 C 
ATOM     15  O   UNL     1       0.255   9.274  19.745  0.00  0.00    +0.000 OA
ATOM     16  C   UNL     1       1.520   8.840  19.227  0.00  0.00    +0.000 C 
ENDBRANCH   8  12
BRANCH   1  17
ATOM     17  C   UNL     1       6.057   4.748  16.053  0.00  0.00    +0.000 C 
BRANCH  17  21
ATOM     18  C   UNL     1       6.215   3.555  12.427  0.00  0.00    +0.000 A 
ATOM     19  C   UNL     1       7.303   4.392  12.317  0.00  0.00    +0.000 A 
ATOM     20  S   UNL     1       7.650   5.183  13.792  0.00  0.00    +0.000 S 
ATOM     21  C   UNL     1       6.338   4.418  14.601  0.00  0.00    +0.000 A 
ATOM     22  C   UNL     1       5.645   3.588  13.737  0.00  0.00    +0.000 A 
ENDBRANCH  17  21
ENDBRANCH   1  17
TORSDOF 3
ENDMDL
MODEL 6
REMARK VINA RESULT:      -6.3      3.471      5.843
REMARK  Name = 
REMARK  3 active torsions:
REMARK  status: ('A' for Active; 'I' for Inactive)
REMARK    1  A    between atoms: C_4  and  C_5
REMARK    2  A    between atoms: C_5  and  N_6
REMARK    3  A    between atoms: C_13  and  C_14
REMARK                            x       y       z     vdW  Elec       q    Type
REMARK                         _______ _______ _______ _____ _____    ______ ____
ROOT
ATOM      1  N   UNL     1       1.687   7.842  19.467  0.00  0.00    +0.000 NA
ATOM      2  C   UNL     1       1.430   8.086  20.905  0.00  0.00    +0.000 C 
ATOM      3  C   UNL     1       0.050   8.685  21.209  0.00  0.00    +0.000 C 
ATOM      4  C   UNL     1       0.009  10.187  21.054  0.00  0.00    +0.000 A 
ATOM      5  N   UNL     1      -0.197  10.891  22.189  0.00  0.00    +0.000 NA
ATOM      6  C   UNL     1      -0.236  12.217  22.073  0.00  0.00    +0.000 A 
ATOM      7  N   UNL     1      -0.026  12.902  20.946  0.00  0.00    +0.000 NA
ATOM      8  C   UNL     1       0.171  12.199  19.804  0.00  0.00    +0.000 A 
ATOM      9  C   UNL     1       0.192  10.795  19.811  0.00  0.00    +0.000 A 
ATOM     10  C   UNL     1       0.389   9.904  18.609  0.00  0.00    +0.000 C 
ATOM     11  C   UNL     1       1.698   9.078  18.648  0.00  0.00    +0.000 C 
ENDROOT
BRANCH   8  12
ATOM     12  C   UNL     1       0.396  13.050  18.558  0.00  0.00    +0.000 C 
ATOM     13  C   UNL     1       1.863  13.250  18.187  0.00  0.00    +0.000 C 
ATOM     14  C   UNL     1       2.253  14.575  18.813  0.00  0.00    +0.000 C 
ATOM     15  O   UNL     1       1.054  15.330  19.006  0.00  0.00    +0.000 OA
ATOM     16  C   UNL     1      -0.075  14.497  18.708  0.00  0.00    +0.000 C 
ENDBRANCH   8  12
BRANCH   1  17
ATOM     17  C   UNL     1       2.973   7.112  19.280  0.00  0.00    +0.000 C 
BRANCH  17  21
ATOM     18  C   UNL     1       2.021   3.784  17.660  0.00  0.00    +0.000 A 
ATOM     19  C   UNL     1       3.315   3.773  17.188  0.00  0.00    +0.000 A 
ATOM     20  S   UNL     1       4.194   5.145  17.705  0.00  0.00    +0.000 S 
ATOM     21  C   UNL     1       2.847   5.781  18.566  0.00  0.00    +0.000 A 
ATOM     22  C   UNL     1       1.746   4.953  18.435  0.00  0.00    +0.000 A 
ENDBRANCH  17  21
ENDBRANCH   1  17
TORSDOF 3
ENDMDL
MODEL 7
REMARK VINA RESULT:      -6.3      2.214      3.586
REMARK  Name = 
REMARK  3 active torsions:
REMARK  status: ('A' for Active; 'I' for Inactive)
REMARK    1  A    between atoms: C_4  and  C_5
REMARK    2  A    between atoms: C_5  and  N_6
REMARK    3  A    between atoms: C_13  and  C_14
REMARK                            x       y       z     vdW  Elec       q    Type
REMARK                         _______ _______ _______ _____ _____    ______ ____
ROOT
ATOM      1  N   UNL     1       3.942   6.770  17.924  0.00  0.00    +0.000 NA
ATOM      2  C   UNL     1       3.731   6.425  19.348  0.00  0.00    +0.000 C 
ATOM      3  C   UNL     1       2.257   6.353  19.771  0.00  0.00    +0.000 C 
ATOM      4  C   UNL     1       1.673   7.702  20.118  0.00  0.00    +0.000 A 
ATOM      5  N   UNL     1       1.322   7.876  21.411  0.00  0.00    +0.000 NA
ATOM      6  C   UNL     1       0.805   9.060  21.738  0.00  0.00    +0.000 A 
ATOM      7  N   UNL     1       0.668  10.099  20.910  0.00  0.00    +0.000 NA
ATOM      8  C   UNL     1       1.010   9.925  19.611  0.00  0.00    +0.000 A 
ATOM      9  C   UNL     1       1.528   8.701  19.155  0.00  0.00    +0.000 A 
ATOM     10  C   UNL     1       1.933   8.382  17.737  0.00  0.00    +0.000 C 
ATOM     11  C   UNL     1       3.448   8.120  17.559  0.00  0.00    +0.000 C 
ENDROOT
BRANCH   8  12
ATOM     12  C   UNL     1       0.818  11.153  18.727  0.00  0.00    +0.000 C 
ATOM     13  C   UNL     1       2.098  11.939  18.451  0.00  0.00    +0.000 C 
ATOM     14  C   UNL     1       2.116  13.043  19.490  0.00  0.00    +0.000 C 
ATOM     15  O   UNL     1       0.769  13.251  19.921  0.00  0.00    +0.000 OA
ATOM     16  C   UNL     1      -0.066  12.231  19.355  0.00  0.00    +0.000 C 
ENDBRANCH   8  12
BRANCH   1  17
ATOM     17  C   UNL     1       5.384   6.655  17.564  0.00  0.00    +0.000 C 
BRANCH  17  21
ATOM     18  C   UNL     1       5.687   4.549  14.390  0.00  0.00    +0.000 A 
ATOM     19  C   UNL     1       6.696   3.891  15.059  0.00  0.00    +0.000 A 
ATOM     20  S   UNL     1       6.929   4.514  16.634  0.00  0.00    +0.000 S 
ATOM     21  C   UNL     1       5.681   5.682  16.440  0.00  0.00    +0.000 A 
ATOM     22  C   UNL     1       5.118   5.596  15.179  0.00  0.00    +0.000 A 
ENDBRANCH  17  21
ENDBRANCH   1  17
TORSDOF 3
ENDMDL
MODEL 8
REMARK VINA RESULT:      -6.3      3.449      6.772
REMARK  Name = 
REMARK  3 active torsions:
REMARK  status: ('A' for Active; 'I' for Inactive)
REMARK    1  A    between atoms: C_4  and  C_5
REMARK    2  A    between atoms: C_5  and  N_6
REMARK    3  A    between atoms: C_13  and  C_14
REMARK                            x       y       z     vdW  Elec       q    Type
REMARK                         _______ _______ _______ _____ _____    ______ ____
ROOT
ATOM      1  N   UNL     1       2.023   8.375  18.971  0.00  0.00    +0.000 NA
ATOM      2  C   UNL     1       1.547   7.084  19.517  0.00  0.00    +0.000 C 
ATOM      3  C   UNL     1       2.665   6.153  20.008  0.00  0.00    +0.000 C 
ATOM      4  C   UNL     1       3.286   5.337  18.899  0.00  0.00    +0.000 A 
ATOM      5  N   UNL     1       3.086   4.003  18.967  0.00  0.00    +0.000 NA
ATOM      6  C   UNL     1       3.626   3.265  17.998  0.00  0.00    +0.000 A 
ATOM      7  N   UNL     1       4.289   3.742  16.942  0.00  0.00    +0.000 NA
ATOM      8  C   UNL     1       4.501   5.079  16.875  0.00  0.00    +0.000 A 
ATOM      9  C   UNL     1       4.006   5.942  17.867  0.00  0.00    +0.000 A 
ATOM     10  C   UNL     1       4.184   7.439  17.911  0.00  0.00    +0.000 C 
ATOM     11  C   UNL     1       2.865   8.234  17.758  0.00  0.00    +0.000 C 
ENDROOT
BRANCH   8  12
ATOM     12  C   UNL     1       5.271   5.546  15.644  0.00  0.00    +0.000 C 
ATOM     13  C   UNL     1       5.340   4.521  14.515  0.00  0.00    +0.000 C 
ATOM     14  C   UNL     1       6.660   3.801  14.715  0.00  0.00    +0.000 C 
ATOM     15  O   UNL     1       7.512   4.666  15.469  0.00  0.00    +0.000 OA
ATOM     16  C   UNL     1       6.755   5.803  15.908  0.00  0.00    +0.000 C 
ENDBRANCH   8  12
BRANCH   1  17
ATOM     17  C   UNL     1       0.873   9.276  18.674  0.00  0.00    +0.000 C 
BRANCH  17  21
ATOM     18  C   UNL     1      -0.354  11.107  21.795  0.00  0.00    +0.000 A 
ATOM     19  C   UNL     1       0.310  12.197  21.279  0.00  0.00    +0.000 A 
ATOM     20  S   UNL     1       1.050  11.842  19.779  0.00  0.00    +0.000 S 
ATOM     21  C   UNL     1       0.495  10.214  19.803  0.00  0.00    +0.000 A 
ATOM     22  C   UNL     1      -0.228   9.958  20.955  0.00  0.00    +0.000 A 
ENDBRANCH  17  21
ENDBRANCH   1  17
TORSDOF 3
ENDMDL
MODEL 9
REMARK VINA RESULT:      -6.2      3.181      6.367
REMARK  Name = 
REMARK  3 active torsions:
REMARK  status: ('A' for Active; 'I' for Inactive)
REMARK    1  A    between atoms: C_4  and  C_5
REMARK    2  A    between atoms: C_5  and  N_6
REMARK    3  A    between atoms: C_13  and  C_14
REMARK                            x       y       z     vdW  Elec       q    Type
REMARK                         _______ _______ _______ _____ _____    ______ ____
ROOT
ATOM      1  N   UNL     1       1.757   6.626  20.642  0.00  0.00    +0.000 NA
ATOM      2  C   UNL     1       1.420   5.185  20.702  0.00  0.00    +0.000 C 
ATOM      3  C   UNL     1       2.636   4.254  20.794  0.00  0.00    +0.000 C 
ATOM      4  C   UNL     1       3.251   3.947  19.449  0.00  0.00    +0.000 A 
ATOM      5  N   UNL     1       3.162   2.663  19.040  0.00  0.00    +0.000 NA
ATOM      6  C   UNL     1       3.698   2.371  17.856  0.00  0.00    +0.000 A 
ATOM      7  N   UNL     1       4.255   3.254  17.021  0.00  0.00    +0.000 NA
ATOM      8  C   UNL     1       4.354   4.540  17.432  0.00  0.00    +0.000 A 
ATOM      9  C   UNL     1       3.855   4.944  18.681  0.00  0.00    +0.000 A 
ATOM     10  C   UNL     1       3.917   6.339  19.254  0.00  0.00    +0.000 C 
ATOM     11  C   UNL     1       2.531   7.006  19.435  0.00  0.00    +0.000 C 
ENDROOT
BRANCH   8  12
ATOM     12  C   UNL     1       5.007   5.486  16.428  0.00  0.00    +0.000 C 
ATOM     13  C   UNL     1       5.352   4.842  15.087  0.00  0.00    +0.000 C 
ATOM     14  C   UNL     1       6.806   4.428  15.210  0.00  0.00    +0.000 C 
ATOM     15  O   UNL     1       7.400   5.238  16.227  0.00  0.00    +0.000 OA
ATOM     16  C   UNL     1       6.375   6.005  16.872  0.00  0.00    +0.000 C 
ENDBRANCH   8  12
BRANCH   1  17
ATOM     17  C   UNL     1       0.523   7.459  20.721  0.00  0.00    +0.000 C 
BRANCH  17  21
ATOM     18  C   UNL     1       1.019  11.033  19.467  0.00  0.00    +0.000 A 
ATOM     19  C   UNL     1       1.018  11.381  20.799  0.00  0.00    +0.000 A 
ATOM     20  S   UNL     1       0.830  10.018  21.814  0.00  0.00    +0.000 S 
ATOM     21  C   UNL     1       0.740   8.938  20.477  0.00  0.00    +0.000 A 
ATOM     22  C   UNL     1       0.836   9.629  19.281  0.00  0.00    +0.000 A 
ENDBRANCH  17  21
ENDBRANCH   1  17
TORSDOF 3
ENDMDL
