MODEL 1
REMARK VINA RESULT:      -6.9      0.000      0.000
REMARK  Name = 
REMARK  7 active torsions:
REMARK  status: ('A' for Active; 'I' for Inactive)
REMARK    1  A    between atoms: C_1  and  C_2
REMARK    2  A    between atoms: C_2  and  C_3
REMARK    3  A    between atoms: C_2  and  N_4
REMARK    4  A    between atoms: C_5  and  C_7
REMARK    5  A    between atoms: C_7  and  C_8
REMARK    6  A    between atoms: C_12  and  C_14
REMARK    7  A    between atoms: C_14  and  C_15
REMARK                            x       y       z     vdW  Elec       q    Type
REMARK                         _______ _______ _______ _____ _____    ______ ____
ROOT
ATOM      1  C   UNL     1       3.231   5.103  18.272  0.00  0.00    +0.000 C 
ATOM      2  C   UNL     1       3.971   4.684  19.550  0.00  0.00    +0.000 C 
ATOM      3  C   UNL     1       1.865   4.364  18.137  0.00  0.00    +0.000 C 
ATOM      4  C   UNL     1       2.605   3.278  17.361  0.00  0.00    +0.000 C 
ATOM      5  N   UNL     1       3.619   4.308  17.069  0.00  0.00    +0.000 N 
ATOM      6  C   UNL     1       4.879   3.956  16.612  0.00  0.00    +0.000 C 
ATOM      7  O   UNL     1       5.196   2.782  16.427  0.00  0.00    +0.000 OA
ENDROOT
BRANCH   1   9
ATOM      8  N   UNL     1       2.194   7.282  18.979  0.00  0.00    +0.000 N 
ATOM      9  C   UNL     1       3.114   6.676  18.141  0.00  0.00    +0.000 C 
ATOM     10  O   UNL     1       3.814   7.349  17.379  0.00  0.00    +0.000 OA
ATOM     11  H   UNL     1       1.566   6.691  19.508  0.00  0.00    +0.000 HD
BRANCH   8  13
ATOM     12  C   UNL     1       1.233   9.098  17.639  0.00  0.00    +0.000 C 
ATOM     13  C   UNL     1       1.954   8.716  18.932  0.00  0.00    +0.000 C 
ATOM     14  C   UNL     1       1.160   9.171  20.154  0.00  0.00    +0.000 C 
ENDBRANCH   8  13
ENDBRANCH   1   9
BRANCH   6  15
ATOM     15  C   UNL     1       5.806   5.054  16.118  0.00  0.00    +0.000 C 
ATOM     16  C   UNL     1       6.246   5.080  14.658  0.00  0.00    +0.000 C 
ATOM     17  C   UNL     1       5.136   5.987  15.083  0.00  0.00    +0.000 C 
BRANCH  15  18
ATOM     18  C   UNL     1       6.663   5.788  17.201  0.00  0.00    +0.000 A 
ATOM     19  C   UNL     1       7.070   7.130  17.043  0.00  0.00    +0.000 A 
ATOM     20  C   UNL     1       7.909   7.771  17.963  0.00  0.00    +0.000 A 
ATOM     21  C   UNL     1       8.377   7.088  19.077  0.00  0.00    +0.000 A 
ATOM     22  C   UNL     1       7.982   5.773  19.284  0.00  0.00    +0.000 A 
ATOM     23  C   UNL     1       7.131   5.143  18.367  0.00  0.00    +0.000 A 
ENDBRANCH  15  18
ENDBRANCH   6  15
TORSDOF 4
ENDMDL
MODEL 2
REMARK VINA RESULT:      -6.8      2.162      5.591
REMARK  Name = 
REMARK  7 active torsions:
REMARK  status: ('A' for Active; 'I' for Inactive)
REMARK    1  A    between atoms: C_1  and  C_2
REMARK    2  A    between atoms: C_2  and  C_3
REMARK    3  A    between atoms: C_2  and  N_4
REMARK    4  A    between atoms: C_5  and  C_7
REMARK    5  A    between atoms: C_7  and  C_8
REMARK    6  A    between atoms: C_12  and  C_14
REMARK    7  A    between atoms: C_14  and  C_15
REMARK                            x       y       z     vdW  Elec       q    Type
REMARK                         _______ _______ _______ _____ _____    ______ ____
ROOT
ATOM      1  C   UNL     1       3.847   3.277  19.082  0.00  0.00    +0.000 C 
ATOM      2  C   UNL     1       2.932   2.673  18.008  0.00  0.00    +0.000 C 
ATOM      3  C   UNL     1       4.117   2.263  20.235  0.00  0.00    +0.000 C 
ATOM      4  C   UNL     1       2.894   2.842  20.941  0.00  0.00    +0.000 C 
ATOM      5  N   UNL     1       3.112   4.052  20.126  0.00  0.00    +0.000 N 
ATOM      6  C   UNL     1       2.113   5.001  19.982  0.00  0.00    +0.000 C 
ATOM      7  O   UNL     1       1.018   4.877  20.528  0.00  0.00    +0.000 OA
ENDROOT
BRANCH   1   9
ATOM      8  N   UNL     1       5.224   3.919  17.079  0.00  0.00    +0.000 N 
ATOM      9  C   UNL     1       5.165   3.894  18.461  0.00  0.00    +0.000 C 
ATOM     10  O   UNL     1       6.081   4.367  19.141  0.00  0.00    +0.000 OA
ATOM     11  H   UNL     1       4.508   3.427  16.560  0.00  0.00    +0.000 HD
BRANCH   8  13
ATOM     12  C   UNL     1       6.415   3.914  14.934  0.00  0.00    +0.000 C 
ATOM     13  C   UNL     1       6.396   4.418  16.377  0.00  0.00    +0.000 C 
ATOM     14  C   UNL     1       6.445   5.943  16.423  0.00  0.00    +0.000 C 
ENDBRANCH   8  13
ENDBRANCH   1   9
BRANCH   6  15
ATOM     15  C   UNL     1       2.459   6.325  19.320  0.00  0.00    +0.000 C 
ATOM     16  C   UNL     1       3.720   6.445  18.469  0.00  0.00    +0.000 C 
ATOM     17  C   UNL     1       2.408   6.258  17.776  0.00  0.00    +0.000 C 
BRANCH  15  18
ATOM     18  C   UNL     1       1.815   7.608  19.940  0.00  0.00    +0.000 A 
ATOM     19  C   UNL     1       1.488   8.731  19.151  0.00  0.00    +0.000 A 
ATOM     20  C   UNL     1       0.992   9.917  19.705  0.00  0.00    +0.000 A 
ATOM     21  C   UNL     1       0.810  10.025  21.077  0.00  0.00    +0.000 A 
ATOM     22  C   UNL     1       1.097   8.936  21.889  0.00  0.00    +0.000 A 
ATOM     23  C   UNL     1       1.579   7.748  21.325  0.00  0.00    +0.000 A 
ENDBRANCH  15  18
ENDBRANCH   6  15
TORSDOF 4
ENDMDL
MODEL 3
REMARK VINA RESULT:      -6.8      2.176      5.676
REMARK  Name = 
REMARK  7 active torsions:
REMARK  status: ('A' for Active; 'I' for Inactive)
REMARK    1  A    between atoms: C_1  and  C_2
REMARK    2  A    between atoms: C_2  and  C_3
REMARK    3  A    between atoms: C_2  and  N_4
REMARK    4  A    between atoms: C_5  and  C_7
REMARK    5  A    between atoms: C_7  and  C_8
REMARK    6  A    between atoms: C_12  and  C_14
REMARK    7  A    between atoms: C_14  and  C_15
REMARK                            x       y       z     vdW  Elec       q    Type
REMARK                         _______ _______ _______ _____ _____    ______ ____
ROOT
ATOM      1  C   UNL     1       3.872   3.290  19.028  0.00  0.00    +0.000 C 
ATOM      2  C   UNL     1       2.935   2.683  17.974  0.00  0.00    +0.000 C 
ATOM      3  C   UNL     1       4.157   2.283  20.183  0.00  0.00    +0.000 C 
ATOM      4  C   UNL     1       2.949   2.873  20.906  0.00  0.00    +0.000 C 
ATOM      5  N   UNL     1       3.159   4.076  20.079  0.00  0.00    +0.000 N 
ATOM      6  C   UNL     1       2.162   5.029  19.945  0.00  0.00    +0.000 C 
ATOM      7  O   UNL     1       1.076   4.914  20.511  0.00  0.00    +0.000 OA
ENDROOT
BRANCH   1   9
ATOM      8  N   UNL     1       5.222   3.900  16.997  0.00  0.00    +0.000 N 
ATOM      9  C   UNL     1       5.182   3.897  18.380  0.00  0.00    +0.000 C 
ATOM     10  O   UNL     1       6.107   4.379  19.040  0.00  0.00    +0.000 OA
ATOM     11  H   UNL     1       4.499   3.401  16.495  0.00  0.00    +0.000 HD
BRANCH   8  13
ATOM     12  C   UNL     1       6.375   3.876  14.831  0.00  0.00    +0.000 C 
ATOM     13  C   UNL     1       6.385   4.388  16.272  0.00  0.00    +0.000 C 
ATOM     14  C   UNL     1       6.444   5.912  16.308  0.00  0.00    +0.000 C 
ENDBRANCH   8  13
ENDBRANCH   1   9
BRANCH   6  15
ATOM     15  C   UNL     1       2.502   6.346  19.268  0.00  0.00    +0.000 C 
ATOM     16  C   UNL     1       3.737   6.449  18.379  0.00  0.00    +0.000 C 
ATOM     17  C   UNL     1       2.403   6.275  17.727  0.00  0.00    +0.000 C 
BRANCH  15  18
ATOM     18  C   UNL     1       1.893   7.639  19.903  0.00  0.00    +0.000 A 
ATOM     19  C   UNL     1       1.648   7.741  21.289  0.00  0.00    +0.000 A 
ATOM     20  C   UNL     1       1.023   8.858  21.859  0.00  0.00    +0.000 A 
ATOM     21  C   UNL     1       0.614   9.915  21.058  0.00  0.00    +0.000 A 
ATOM     22  C   UNL     1       0.857   9.866  19.691  0.00  0.00    +0.000 A 
ATOM     23  C   UNL     1       1.495   8.752  19.131  0.00  0.00    +0.000 A 
ENDBRANCH  15  18
ENDBRANCH   6  15
TORSDOF 4
ENDMDL
MODEL 4
REMARK VINA RESULT:      -6.8      0.165      1.033
REMARK  Name = 
REMARK  7 active torsions:
REMARK  status: ('A' for Active; 'I' for Inactive)
REMARK    1  A    between atoms: C_1  and  C_2
REMARK    2  A    between atoms: C_2  and  C_3
REMARK    3  A    between atoms: C_2  and  N_4
REMARK    4  A    between atoms: C_5  and  C_7
REMARK    5  A    between atoms: C_7  and  C_8
REMARK    6  A    between atoms: C_12  and  C_14
REMARK    7  A    between atoms: C_14  and  C_15
REMARK                            x       y       z     vdW  Elec       q    Type
REMARK                         _______ _______ _______ _____ _____    ______ ____
ROOT
ATOM      1  C   UNL     1       3.250   5.218  18.399  0.00  0.00    +0.000 C 
ATOM      2  C   UNL     1       4.045   4.792  19.641  0.00  0.00    +0.000 C 
ATOM      3  C   UNL     1       1.873   4.492  18.327  0.00  0.00    +0.000 C 
ATOM      4  C   UNL     1       2.566   3.400  17.517  0.00  0.00    +0.000 C 
ATOM      5  N   UNL     1       3.575   4.421  17.178  0.00  0.00    +0.000 N 
ATOM      6  C   UNL     1       4.809   4.058  16.663  0.00  0.00    +0.000 C 
ATOM      7  O   UNL     1       5.107   2.881  16.463  0.00  0.00    +0.000 OA
ENDROOT
BRANCH   1   9
ATOM      8  N   UNL     1       2.104   7.380  18.976  0.00  0.00    +0.000 N 
ATOM      9  C   UNL     1       3.142   6.792  18.275  0.00  0.00    +0.000 C 
ATOM     10  O   UNL     1       3.942   7.481  17.634  0.00  0.00    +0.000 OA
ATOM     11  H   UNL     1       1.410   6.778  19.398  0.00  0.00    +0.000 HD
BRANCH   8  13
ATOM     12  C   UNL     1       1.124   9.180  17.626  0.00  0.00    +0.000 C 
ATOM     13  C   UNL     1       1.862   8.814  18.914  0.00  0.00    +0.000 C 
ATOM     14  C   UNL     1       1.085   9.283  20.140  0.00  0.00    +0.000 C 
ENDBRANCH   8  13
ENDBRANCH   1   9
BRANCH   6  15
ATOM     15  C   UNL     1       5.722   5.148  16.128  0.00  0.00    +0.000 C 
ATOM     16  C   UNL     1       6.019   5.228  14.633  0.00  0.00    +0.000 C 
ATOM     17  C   UNL     1       4.988   6.148  15.205  0.00  0.00    +0.000 C 
BRANCH  15  18
ATOM     18  C   UNL     1       6.706   5.804  17.151  0.00  0.00    +0.000 A 
ATOM     19  C   UNL     1       7.147   5.118  18.302  0.00  0.00    +0.000 A 
ATOM     20  C   UNL     1       7.958   5.723  19.270  0.00  0.00    +0.000 A 
ATOM     21  C   UNL     1       8.355   7.045  19.123  0.00  0.00    +0.000 A 
ATOM     22  C   UNL     1       7.963   7.751  17.993  0.00  0.00    +0.000 A 
ATOM     23  C   UNL     1       7.164   7.134  17.022  0.00  0.00    +0.000 A 
ENDBRANCH  15  18
ENDBRANCH   6  15
TORSDOF 4
ENDMDL
MODEL 5
REMARK VINA RESULT:      -6.7      1.893      3.306
REMARK  Name = 
REMARK  7 active torsions:
REMARK  status: ('A' for Active; 'I' for Inactive)
REMARK    1  A    between atoms: C_1  and  C_2
REMARK    2  A    between atoms: C_2  and  C_3
REMARK    3  A    between atoms: C_2  and  N_4
REMARK    4  A    between atoms: C_5  and  C_7
REMARK    5  A    between atoms: C_7  and  C_8
REMARK    6  A    between atoms: C_12  and  C_14
REMARK    7  A    between atoms: C_14  and  C_15
REMARK                            x       y       z     vdW  Elec       q    Type
REMARK                         _______ _______ _______ _____ _____    ______ ____
ROOT
ATOM      1  C   UNL     1       2.193   4.195  19.455  0.00  0.00    +0.000 C 
ATOM      2  C   UNL     1       2.290   4.546  20.946  0.00  0.00    +0.000 C 
ATOM      3  C   UNL     1       1.270   2.961  19.219  0.00  0.00    +0.000 C 
ATOM      4  C   UNL     1       2.515   2.088  19.351  0.00  0.00    +0.000 C 
ATOM      5  N   UNL     1       3.284   3.291  18.981  0.00  0.00    +0.000 N 
ATOM      6  C   UNL     1       4.649   3.360  19.209  0.00  0.00    +0.000 C 
ATOM      7  O   UNL     1       5.268   2.426  19.717  0.00  0.00    +0.000 OA
ENDROOT
BRANCH   1   9
ATOM      8  N   UNL     1       2.218   6.678  19.063  0.00  0.00    +0.000 N 
ATOM      9  C   UNL     1       1.807   5.451  18.573  0.00  0.00    +0.000 C 
ATOM     10  O   UNL     1       1.214   5.368  17.493  0.00  0.00    +0.000 OA
ATOM     11  H   UNL     1       2.602   6.716  19.998  0.00  0.00    +0.000 HD
BRANCH   8  13
ATOM     12  C   UNL     1       1.408   8.974  19.370  0.00  0.00    +0.000 C 
ATOM     13  C   UNL     1       1.892   7.918  18.375  0.00  0.00    +0.000 C 
ATOM     14  C   UNL     1       3.091   8.426  17.580  0.00  0.00    +0.000 C 
ENDBRANCH   8  13
ENDBRANCH   1   9
BRANCH   6  15
ATOM     15  C   UNL     1       5.427   4.521  18.614  0.00  0.00    +0.000 C 
ATOM     16  C   UNL     1       5.693   5.769  19.450  0.00  0.00    +0.000 C 
ATOM     17  C   UNL     1       6.786   4.757  19.312  0.00  0.00    +0.000 C 
BRANCH  15  18
ATOM     18  C   UNL     1       5.471   4.608  17.053  0.00  0.00    +0.000 A 
ATOM     19  C   UNL     1       5.857   3.508  16.258  0.00  0.00    +0.000 A 
ATOM     20  C   UNL     1       5.984   3.597  14.866  0.00  0.00    +0.000 A 
ATOM     21  C   UNL     1       5.734   4.799  14.217  0.00  0.00    +0.000 A 
ATOM     22  C   UNL     1       5.329   5.901  14.958  0.00  0.00    +0.000 A 
ATOM     23  C   UNL     1       5.190   5.799  16.348  0.00  0.00    +0.000 A 
ENDBRANCH  15  18
ENDBRANCH   6  15
TORSDOF 4
ENDMDL
MODEL 6
REMARK VINA RESULT:      -6.6      8.942     11.914
REMARK  Name = 
REMARK  7 active torsions:
REMARK  status: ('A' for Active; 'I' for Inactive)
REMARK    1  A    between atoms: C_1  and  C_2
REMARK    2  A    between atoms: C_2  and  C_3
REMARK    3  A    between atoms: C_2  and  N_4
REMARK    4  A    between atoms: C_5  and  C_7
REMARK    5  A    between atoms: C_7  and  C_8
REMARK    6  A    between atoms: C_12  and  C_14
REMARK    7  A    between atoms: C_14  and  C_15
REMARK                            x       y       z     vdW  Elec       q    Type
REMARK                         _______ _______ _______ _____ _____    ______ ____
ROOT
ATOM      1  C   UNL     1      -6.466  11.473  18.773  0.00  0.00    +0.000 C 
ATOM      2  C   UNL     1      -7.610  12.443  18.450  0.00  0.00    +0.000 C 
ATOM      3  C   UNL     1      -6.977  10.004  18.879  0.00  0.00    +0.000 C 
ATOM      4  C   UNL     1      -7.193  10.257  20.368  0.00  0.00    +0.000 C 
ATOM      5  N   UNL     1      -6.195  11.334  20.235  0.00  0.00    +0.000 N 
ATOM      6  C   UNL     1      -6.072  12.314  21.208  0.00  0.00    +0.000 C 
ATOM      7  O   UNL     1      -6.780  12.319  22.214  0.00  0.00    +0.000 OA
ENDROOT
BRANCH   1   9
ATOM      8  N   UNL     1      -4.234  10.707  17.905  0.00  0.00    +0.000 N 
ATOM      9  C   UNL     1      -5.242  11.647  17.784  0.00  0.00    +0.000 C 
ATOM     10  O   UNL     1      -5.183  12.530  16.924  0.00  0.00    +0.000 OA
ATOM     11  H   UNL     1      -4.266  10.068  18.689  0.00  0.00    +0.000 HD
BRANCH   8  13
ATOM     12  C   UNL     1      -1.824  10.248  17.866  0.00  0.00    +0.000 C 
ATOM     13  C   UNL     1      -3.031  10.774  17.089  0.00  0.00    +0.000 C 
ATOM     14  C   UNL     1      -3.218  10.003  15.786  0.00  0.00    +0.000 C 
ENDBRANCH   8  13
ENDBRANCH   1   9
BRANCH   6  15
ATOM     15  C   UNL     1      -4.890  13.266  21.134  0.00  0.00    +0.000 C 
ATOM     16  C   UNL     1      -4.966  14.508  20.251  0.00  0.00    +0.000 C 
ATOM     17  C   UNL     1      -5.205  14.662  21.719  0.00  0.00    +0.000 C 
BRANCH  15  18
ATOM     18  C   UNL     1      -3.497  12.686  21.542  0.00  0.00    +0.000 A 
ATOM     19  C   UNL     1      -3.210  12.305  22.870  0.00  0.00    +0.000 A 
ATOM     20  C   UNL     1      -1.940  11.866  23.266  0.00  0.00    +0.000 A 
ATOM     21  C   UNL     1      -0.905  11.798  22.343  0.00  0.00    +0.000 A 
ATOM     22  C   UNL     1      -1.149  12.140  21.020  0.00  0.00    +0.000 A 
ATOM     23  C   UNL     1      -2.425  12.565  20.629  0.00  0.00    +0.000 A 
ENDBRANCH  15  18
ENDBRANCH   6  15
TORSDOF 4
ENDMDL
MODEL 7
REMARK VINA RESULT:      -6.6      1.875      3.175
REMARK  Name = 
REMARK  7 active torsions:
REMARK  status: ('A' for Active; 'I' for Inactive)
REMARK    1  A    between atoms: C_1  and  C_2
REMARK    2  A    between atoms: C_2  and  C_3
REMARK    3  A    between atoms: C_2  and  N_4
REMARK    4  A    between atoms: C_5  and  C_7
REMARK    5  A    between atoms: C_7  and  C_8
REMARK    6  A    between atoms: C_12  and  C_14
REMARK    7  A    between atoms: C_14  and  C_15
REMARK                            x       y       z     vdW  Elec       q    Type
REMARK                         _______ _______ _______ _____ _____    ______ ____
ROOT
ATOM      1  C   UNL     1       2.192   4.168  19.391  0.00  0.00    +0.000 C 
ATOM      2  C   UNL     1       2.257   4.486  20.890  0.00  0.00    +0.000 C 
ATOM      3  C   UNL     1       1.289   2.929  19.110  0.00  0.00    +0.000 C 
ATOM      4  C   UNL     1       2.542   2.068  19.246  0.00  0.00    +0.000 C 
ATOM      5  N   UNL     1       3.302   3.289  18.917  0.00  0.00    +0.000 N 
ATOM      6  C   UNL     1       4.662   3.369  19.172  0.00  0.00    +0.000 C 
ATOM      7  O   UNL     1       5.285   2.433  19.670  0.00  0.00    +0.000 OA
ENDROOT
BRANCH   1   9
ATOM      8  N   UNL     1       2.206   6.658  19.047  0.00  0.00    +0.000 N 
ATOM      9  C   UNL     1       1.806   5.439  18.530  0.00  0.00    +0.000 C 
ATOM     10  O   UNL     1       1.222   5.374  17.444  0.00  0.00    +0.000 OA
ATOM     11  H   UNL     1       2.583   6.681  19.985  0.00  0.00    +0.000 HD
BRANCH   8  13
ATOM     12  C   UNL     1       1.408   8.952  19.396  0.00  0.00    +0.000 C 
ATOM     13  C   UNL     1       1.878   7.910  18.381  0.00  0.00    +0.000 C 
ATOM     14  C   UNL     1       3.072   8.426  17.583  0.00  0.00    +0.000 C 
ENDBRANCH   8  13
ENDBRANCH   1   9
BRANCH   6  15
ATOM     15  C   UNL     1       5.436   4.554  18.616  0.00  0.00    +0.000 C 
ATOM     16  C   UNL     1       5.609   5.814  19.459  0.00  0.00    +0.000 C 
ATOM     17  C   UNL     1       6.741   4.839  19.395  0.00  0.00    +0.000 C 
BRANCH  15  18
ATOM     18  C   UNL     1       5.572   4.635  17.061  0.00  0.00    +0.000 A 
ATOM     19  C   UNL     1       5.290   5.822  16.351  0.00  0.00    +0.000 A 
ATOM     20  C   UNL     1       5.324   5.884  14.953  0.00  0.00    +0.000 A 
ATOM     21  C   UNL     1       5.637   4.754  14.210  0.00  0.00    +0.000 A 
ATOM     22  C   UNL     1       5.945   3.571  14.868  0.00  0.00    +0.000 A 
ATOM     23  C   UNL     1       5.923   3.521  16.267  0.00  0.00    +0.000 A 
ENDBRANCH  15  18
ENDBRANCH   6  15
TORSDOF 4
ENDMDL
MODEL 8
REMARK VINA RESULT:      -6.6      2.234      3.395
REMARK  Name = 
REMARK  7 active torsions:
REMARK  status: ('A' for Active; 'I' for Inactive)
REMARK    1  A    between atoms: C_1  and  C_2
REMARK    2  A    between atoms: C_2  and  C_3
REMARK    3  A    between atoms: C_2  and  N_4
REMARK    4  A    between atoms: C_5  and  C_7
REMARK    5  A    between atoms: C_7  and  C_8
REMARK    6  A    between atoms: C_12  and  C_14
REMARK    7  A    between atoms: C_14  and  C_15
REMARK                            x       y       z     vdW  Elec       q    Type
REMARK                         _______ _______ _______ _____ _____    ______ ____
ROOT
ATOM      1  C   UNL     1       1.998   4.434  20.193  0.00  0.00    +0.000 C 
ATOM      2  C   UNL     1       2.522   4.052  21.583  0.00  0.00    +0.000 C 
ATOM      3  C   UNL     1       0.684   3.670  19.849  0.00  0.00    +0.000 C 
ATOM      4  C   UNL     1       1.557   2.582  19.229  0.00  0.00    +0.000 C 
ATOM      5  N   UNL     1       2.591   3.625  19.086  0.00  0.00    +0.000 N 
ATOM      6  C   UNL     1       3.914   3.286  18.851  0.00  0.00    +0.000 C 
ATOM      7  O   UNL     1       4.273   2.115  18.745  0.00  0.00    +0.000 OA
ENDROOT
BRANCH   1   9
ATOM      8  N   UNL     1       1.398   6.699  21.105  0.00  0.00    +0.000 N 
ATOM      9  C   UNL     1       1.882   6.002  20.012  0.00  0.00    +0.000 C 
ATOM     10  O   UNL     1       2.231   6.597  18.988  0.00  0.00    +0.000 OA
ATOM     11  H   UNL     1       1.022   6.171  21.882  0.00  0.00    +0.000 HD
BRANCH   8  13
ATOM     12  C   UNL     1      -0.285   8.482  21.189  0.00  0.00    +0.000 C 
ATOM     13  C   UNL     1       1.199   8.139  21.061  0.00  0.00    +0.000 C 
ATOM     14  C   UNL     1       2.015   8.831  22.149  0.00  0.00    +0.000 C 
ENDBRANCH   8  13
ENDBRANCH   1   9
BRANCH   6  15
ATOM     15  C   UNL     1       4.894   4.391  18.494  0.00  0.00    +0.000 C 
ATOM     16  C   UNL     1       5.186   5.504  19.496  0.00  0.00    +0.000 C 
ATOM     17  C   UNL     1       6.163   4.378  19.376  0.00  0.00    +0.000 C 
BRANCH  15  18
ATOM     18  C   UNL     1       5.159   4.628  16.971  0.00  0.00    +0.000 A 
ATOM     19  C   UNL     1       5.666   3.609  16.138  0.00  0.00    +0.000 A 
ATOM     20  C   UNL     1       5.989   3.832  14.794  0.00  0.00    +0.000 A 
ATOM     21  C   UNL     1       5.821   5.091  14.234  0.00  0.00    +0.000 A 
ATOM     22  C   UNL     1       5.302   6.118  15.011  0.00  0.00    +0.000 A 
ATOM     23  C   UNL     1       4.968   5.883  16.351  0.00  0.00    +0.000 A 
ENDBRANCH  15  18
ENDBRANCH   6  15
TORSDOF 4
ENDMDL
MODEL 9
REMARK VINA RESULT:      -6.5      1.854      4.954
REMARK  Name = 
REMARK  7 active torsions:
REMARK  status: ('A' for Active; 'I' for Inactive)
REMARK    1  A    between atoms: C_1  and  C_2
REMARK    2  A    between atoms: C_2  and  C_3
REMARK    3  A    between atoms: C_2  and  N_4
REMARK    4  A    between atoms: C_5  and  C_7
REMARK    5  A    between atoms: C_7  and  C_8
REMARK    6  A    between atoms: C_12  and  C_14
REMARK    7  A    between atoms: C_14  and  C_15
REMARK                            x       y       z     vdW  Elec       q    Type
REMARK                         _______ _______ _______ _____ _____    ______ ____
ROOT
ATOM      1  C   UNL     1       5.863   5.138  15.675  0.00  0.00    +0.000 C 
ATOM      2  C   UNL     1       5.080   6.307  15.063  0.00  0.00    +0.000 C 
ATOM      3  C   UNL     1       6.298   4.112  14.586  0.00  0.00    +0.000 C 
ATOM      4  C   UNL     1       4.986   3.378  14.847  0.00  0.00    +0.000 C 
ATOM      5  N   UNL     1       4.993   4.029  16.170  0.00  0.00    +0.000 N 
ATOM      6  C   UNL     1       3.843   4.086  16.940  0.00  0.00    +0.000 C 
ATOM      7  O   UNL     1       2.782   3.594  16.558  0.00  0.00    +0.000 OA
ENDROOT
BRANCH   1   9
ATOM      8  N   UNL     1       7.029   6.974  16.936  0.00  0.00    +0.000 N 
ATOM      9  C   UNL     1       7.057   5.635  16.588  0.00  0.00    +0.000 C 
ATOM     10  O   UNL     1       7.947   4.891  17.010  0.00  0.00    +0.000 OA
ATOM     11  H   UNL     1       6.349   7.572  16.485  0.00  0.00    +0.000 HD
BRANCH   8  13
ATOM     12  C   UNL     1       7.886   9.085  17.846  0.00  0.00    +0.000 C 
ATOM     13  C   UNL     1       8.087   7.574  17.734  0.00  0.00    +0.000 C 
ATOM     14  C   UNL     1       8.154   6.929  19.115  0.00  0.00    +0.000 C 
ENDBRANCH   8  13
ENDBRANCH   1   9
BRANCH   6  15
ATOM     15  C   UNL     1       3.954   4.567  18.378  0.00  0.00    +0.000 C 
ATOM     16  C   UNL     1       4.217   3.566  19.498  0.00  0.00    +0.000 C 
ATOM     17  C   UNL     1       5.367   4.365  18.973  0.00  0.00    +0.000 C 
BRANCH  15  18
ATOM     18  C   UNL     1       3.298   5.947  18.708  0.00  0.00    +0.000 A 
ATOM     19  C   UNL     1       2.572   6.159  19.899  0.00  0.00    +0.000 A 
ATOM     20  C   UNL     1       1.907   7.362  20.167  0.00  0.00    +0.000 A 
ATOM     21  C   UNL     1       1.940   8.400  19.246  0.00  0.00    +0.000 A 
ATOM     22  C   UNL     1       2.663   8.243  18.070  0.00  0.00    +0.000 A 
ATOM     23  C   UNL     1       3.337   7.042  17.816  0.00  0.00    +0.000 A 
ENDBRANCH  15  18
ENDBRANCH   6  15
TORSDOF 4
ENDMDL
