MODEL 1
REMARK VINA RESULT:      -7.1      0.000      0.000
REMARK  Name = 
REMARK  4 active torsions:
REMARK  status: ('A' for Active; 'I' for Inactive)
REMARK    1  A    between atoms: C_1  and  O_2
REMARK    2  A    between atoms: O_2  and  C_3
REMARK    3  A    between atoms: C_7  and  N_8
REMARK    4  A    between atoms: C_9  and  C_11
REMARK                            x       y       z     vdW  Elec       q    Type
REMARK                         _______ _______ _______ _____ _____    ______ ____
ROOT
ATOM      1  N   UNL     1       2.623   7.006  18.931  0.00  0.00    +0.000 N 
ATOM      2  C   UNL     1       1.924   7.067  20.127  0.00  0.00    +0.000 C 
ATOM      3  O   UNL     1       1.655   6.134  20.871  0.00  0.00    +0.000 OA
ATOM      4  H   UNL     1       2.723   7.866  18.406  0.00  0.00    +0.000 HD
ENDROOT
BRANCH   2   5
ATOM      5  C   UNL     1       1.381   8.407  20.467  0.00  0.00    +0.000 A 
ATOM      6  C   UNL     1       1.042   9.353  19.473  0.00  0.00    +0.000 A 
ATOM      7  C   UNL     1       0.376  10.534  19.817  0.00  0.00    +0.000 A 
ATOM      8  C   UNL     1       0.050  10.713  21.144  0.00  0.00    +0.000 A 
ATOM      9  C   UNL     1       0.437   9.818  22.118  0.00  0.00    +0.000 A 
ATOM     10  C   UNL     1       1.133   8.672  21.820  0.00  0.00    +0.000 A 
ATOM     11  O   UNL     1      -0.026  10.170  23.349  0.00  0.00    +0.000 OA
ATOM     12  C   UNL     1      -0.973  11.187  22.969  0.00  0.00    +0.000 C 
ATOM     13  O   UNL     1      -0.715  11.717  21.651  0.00  0.00    +0.000 OA
ENDBRANCH   2   5
BRANCH   1  18
ATOM     14  C   UNL     1       5.123   4.658  17.530  0.00  0.00    +0.000 A 
ATOM     15  C   UNL     1       4.307   3.623  17.076  0.00  0.00    +0.000 A 
ATOM     16  C   UNL     1       2.924   3.695  17.225  0.00  0.00    +0.000 A 
ATOM     17  C   UNL     1       2.349   4.806  17.840  0.00  0.00    +0.000 A 
ATOM     18  C   UNL     1       3.145   5.852  18.309  0.00  0.00    +0.000 A 
ATOM     19  C   UNL     1       4.538   5.776  18.140  0.00  0.00    +0.000 A 
BRANCH  14  21
ATOM     20  C   UNL     1       6.949   4.668  16.004  0.00  0.00    +0.000 C 
ATOM     21  O   UNL     1       6.457   4.461  17.320  0.00  0.00    +0.000 OA
ENDBRANCH  14  21
ENDBRANCH   1  18
TORSDOF 3
ENDMDL
MODEL 2
REMARK VINA RESULT:      -7.1      4.010      6.110
REMARK  Name = 
REMARK  4 active torsions:
REMARK  status: ('A' for Active; 'I' for Inactive)
REMARK    1  A    between atoms: C_1  and  O_2
REMARK    2  A    between atoms: O_2  and  C_3
REMARK    3  A    between atoms: C_7  and  N_8
REMARK    4  A    between atoms: C_9  and  C_11
REMARK                            x       y       z     vdW  Elec       q    Type
REMARK                         _______ _______ _______ _____ _____    ______ ____
ROOT
ATOM      1  N   UNL     1       5.094   4.466  16.033  0.00  0.00    +0.000 N 
ATOM      2  C   UNL     1       4.670   5.613  16.687  0.00  0.00    +0.000 C 
ATOM      3  O   UNL     1       4.796   6.768  16.302  0.00  0.00    +0.000 OA
ATOM      4  H   UNL     1       4.956   3.582  16.508  0.00  0.00    +0.000 HD
ENDROOT
BRANCH   2   5
ATOM      5  C   UNL     1       4.090   5.388  18.036  0.00  0.00    +0.000 A 
ATOM      6  C   UNL     1       3.247   6.338  18.657  0.00  0.00    +0.000 A 
ATOM      7  C   UNL     1       2.582   6.022  19.847  0.00  0.00    +0.000 A 
ATOM      8  C   UNL     1       2.769   4.757  20.360  0.00  0.00    +0.000 A 
ATOM      9  C   UNL     1       3.641   3.857  19.786  0.00  0.00    +0.000 A 
ATOM     10  C   UNL     1       4.344   4.152  18.643  0.00  0.00    +0.000 A 
ATOM     11  O   UNL     1       3.637   2.658  20.430  0.00  0.00    +0.000 OA
ATOM     12  C   UNL     1       2.466   2.829  21.252  0.00  0.00    +0.000 C 
ATOM     13  O   UNL     1       2.107   4.218  21.419  0.00  0.00    +0.000 OA
ENDBRANCH   2   5
BRANCH   1  18
ATOM     14  C   UNL     1       5.810   3.540  12.519  0.00  0.00    +0.000 A 
ATOM     15  C   UNL     1       7.045   4.154  12.317  0.00  0.00    +0.000 A 
ATOM     16  C   UNL     1       7.652   4.875  13.341  0.00  0.00    +0.000 A 
ATOM     17  C   UNL     1       7.019   4.992  14.578  0.00  0.00    +0.000 A 
ATOM     18  C   UNL     1       5.780   4.392  14.803  0.00  0.00    +0.000 A 
ATOM     19  C   UNL     1       5.182   3.654  13.766  0.00  0.00    +0.000 A 
BRANCH  14  21
ATOM     20  C   UNL     1       3.966   3.064  11.092  0.00  0.00    +0.000 C 
ATOM     21  O   UNL     1       5.330   2.865  11.434  0.00  0.00    +0.000 OA
ENDBRANCH  14  21
ENDBRANCH   1  18
TORSDOF 3
ENDMDL
MODEL 3
REMARK VINA RESULT:      -7.1      1.234      2.100
REMARK  Name = 
REMARK  4 active torsions:
REMARK  status: ('A' for Active; 'I' for Inactive)
REMARK    1  A    between atoms: C_1  and  O_2
REMARK    2  A    between atoms: O_2  and  C_3
REMARK    3  A    between atoms: C_7  and  N_8
REMARK    4  A    between atoms: C_9  and  C_11
REMARK                            x       y       z     vdW  Elec       q    Type
REMARK                         _______ _______ _______ _____ _____    ______ ____
ROOT
ATOM      1  N   UNL     1       2.484   7.368  18.819  0.00  0.00    +0.000 N 
ATOM      2  C   UNL     1       1.870   7.374  20.062  0.00  0.00    +0.000 C 
ATOM      3  O   UNL     1       1.727   6.420  20.816  0.00  0.00    +0.000 OA
ATOM      4  H   UNL     1       2.481   8.235  18.295  0.00  0.00    +0.000 HD
ENDROOT
BRANCH   2   5
ATOM      5  C   UNL     1       1.252   8.667  20.451  0.00  0.00    +0.000 A 
ATOM      6  C   UNL     1       0.830   9.615  19.490  0.00  0.00    +0.000 A 
ATOM      7  C   UNL     1       0.100  10.742  19.881  0.00  0.00    +0.000 A 
ATOM      8  C   UNL     1      -0.204  10.866  21.220  0.00  0.00    +0.000 A 
ATOM      9  C   UNL     1       0.262   9.973  22.160  0.00  0.00    +0.000 A 
ATOM     10  C   UNL     1       1.021   8.881  21.816  0.00  0.00    +0.000 A 
ATOM     11  O   UNL     1      -0.192  10.263  23.411  0.00  0.00    +0.000 OA
ATOM     12  C   UNL     1      -1.210  11.227  23.081  0.00  0.00    +0.000 C 
ATOM     13  O   UNL     1      -1.018  11.806  21.772  0.00  0.00    +0.000 OA
ENDBRANCH   2   5
BRANCH   1  18
ATOM     14  C   UNL     1       2.790   3.935  17.461  0.00  0.00    +0.000 A 
ATOM     15  C   UNL     1       4.055   3.981  16.875  0.00  0.00    +0.000 A 
ATOM     16  C   UNL     1       4.817   5.145  16.928  0.00  0.00    +0.000 A 
ATOM     17  C   UNL     1       4.312   6.277  17.565  0.00  0.00    +0.000 A 
ATOM     18  C   UNL     1       3.046   6.259  18.152  0.00  0.00    +0.000 A 
ATOM     19  C   UNL     1       2.291   5.075  18.106  0.00  0.00    +0.000 A 
BRANCH  14  21
ATOM     20  C   UNL     1       1.513   2.213  18.493  0.00  0.00    +0.000 C 
ATOM     21  O   UNL     1       2.152   2.735  17.337  0.00  0.00    +0.000 OA
ENDBRANCH  14  21
ENDBRANCH   1  18
TORSDOF 3
ENDMDL
MODEL 4
REMARK VINA RESULT:      -7.1      4.022      6.234
REMARK  Name = 
REMARK  4 active torsions:
REMARK  status: ('A' for Active; 'I' for Inactive)
REMARK    1  A    between atoms: C_1  and  O_2
REMARK    2  A    between atoms: O_2  and  C_3
REMARK    3  A    between atoms: C_7  and  N_8
REMARK    4  A    between atoms: C_9  and  C_11
REMARK                            x       y       z     vdW  Elec       q    Type
REMARK                         _______ _______ _______ _____ _____    ______ ____
ROOT
ATOM      1  N   UNL     1       5.241   4.771  15.698  0.00  0.00    +0.000 N 
ATOM      2  C   UNL     1       5.790   4.667  16.967  0.00  0.00    +0.000 C 
ATOM      3  O   UNL     1       6.943   4.365  17.247  0.00  0.00    +0.000 OA
ATOM      4  H   UNL     1       4.253   4.986  15.635  0.00  0.00    +0.000 HD
ENDROOT
BRANCH   2   5
ATOM      5  C   UNL     1       4.830   4.857  18.083  0.00  0.00    +0.000 A 
ATOM      6  C   UNL     1       4.088   6.051  18.239  0.00  0.00    +0.000 A 
ATOM      7  C   UNL     1       3.072   6.133  19.197  0.00  0.00    +0.000 A 
ATOM      8  C   UNL     1       2.819   5.006  19.948  0.00  0.00    +0.000 A 
ATOM      9  C   UNL     1       3.585   3.866  19.837  0.00  0.00    +0.000 A 
ATOM     10  C   UNL     1       4.620   3.769  18.940  0.00  0.00    +0.000 A 
ATOM     11  O   UNL     1       3.133   2.865  20.642  0.00  0.00    +0.000 OA
ATOM     12  C   UNL     1       1.854   3.413  21.014  0.00  0.00    +0.000 C 
ATOM     13  O   UNL     1       1.789   4.843  20.822  0.00  0.00    +0.000 OA
ENDBRANCH   2   5
BRANCH   1  18
ATOM     14  C   UNL     1       5.920   3.261  12.384  0.00  0.00    +0.000 A 
ATOM     15  C   UNL     1       7.082   3.932  12.007  0.00  0.00    +0.000 A 
ATOM     16  C   UNL     1       7.653   4.885  12.846  0.00  0.00    +0.000 A 
ATOM     17  C   UNL     1       7.055   5.178  14.071  0.00  0.00    +0.000 A 
ATOM     18  C   UNL     1       5.887   4.526  14.468  0.00  0.00    +0.000 A 
ATOM     19  C   UNL     1       5.327   3.555  13.619  0.00  0.00    +0.000 A 
BRANCH  14  21
ATOM     20  C   UNL     1       6.329   1.272  11.143  0.00  0.00    +0.000 C 
ATOM     21  O   UNL     1       5.468   2.353  11.470  0.00  0.00    +0.000 OA
ENDBRANCH  14  21
ENDBRANCH   1  18
TORSDOF 3
ENDMDL
MODEL 5
REMARK VINA RESULT:      -7.1      1.282      1.809
REMARK  Name = 
REMARK  4 active torsions:
REMARK  status: ('A' for Active; 'I' for Inactive)
REMARK    1  A    between atoms: C_1  and  O_2
REMARK    2  A    between atoms: O_2  and  C_3
REMARK    3  A    between atoms: C_7  and  N_8
REMARK    4  A    between atoms: C_9  and  C_11
REMARK                            x       y       z     vdW  Elec       q    Type
REMARK                         _______ _______ _______ _____ _____    ______ ____
ROOT
ATOM      1  N   UNL     1       2.199   6.565  19.567  0.00  0.00    +0.000 N 
ATOM      2  C   UNL     1       2.012   7.893  19.216  0.00  0.00    +0.000 C 
ATOM      3  O   UNL     1       2.459   8.463  18.229  0.00  0.00    +0.000 OA
ATOM      4  H   UNL     1       1.799   6.255  20.445  0.00  0.00    +0.000 HD
ENDROOT
BRANCH   2   5
ATOM      5  C   UNL     1       1.261   8.704  20.207  0.00  0.00    +0.000 A 
ATOM      6  C   UNL     1       1.228   8.368  21.580  0.00  0.00    +0.000 A 
ATOM      7  C   UNL     1       0.657   9.244  22.510  0.00  0.00    +0.000 A 
ATOM      8  C   UNL     1       0.161  10.437  22.033  0.00  0.00    +0.000 A 
ATOM      9  C   UNL     1       0.138  10.733  20.687  0.00  0.00    +0.000 A 
ATOM     10  C   UNL     1       0.649   9.875  19.743  0.00  0.00    +0.000 A 
ATOM     11  O   UNL     1      -0.356  11.979  20.445  0.00  0.00    +0.000 OA
ATOM     12  C   UNL     1      -0.343  12.508  21.784  0.00  0.00    +0.000 C 
ATOM     13  O   UNL     1      -0.300  11.471  22.788  0.00  0.00    +0.000 OA
ENDBRANCH   2   5
BRANCH   1  18
ATOM     14  C   UNL     1       5.147   4.560  18.559  0.00  0.00    +0.000 A 
ATOM     15  C   UNL     1       4.601   3.743  17.570  0.00  0.00    +0.000 A 
ATOM     16  C   UNL     1       3.256   3.851  17.227  0.00  0.00    +0.000 A 
ATOM     17  C   UNL     1       2.445   4.778  17.879  0.00  0.00    +0.000 A 
ATOM     18  C   UNL     1       2.966   5.602  18.877  0.00  0.00    +0.000 A 
ATOM     19  C   UNL     1       4.328   5.495  19.206  0.00  0.00    +0.000 A 
BRANCH  14  21
ATOM     20  C   UNL     1       7.388   4.733  17.776  0.00  0.00    +0.000 C 
ATOM     21  O   UNL     1       6.475   4.353  18.795  0.00  0.00    +0.000 OA
ENDBRANCH  14  21
ENDBRANCH   1  18
TORSDOF 3
ENDMDL
MODEL 6
REMARK VINA RESULT:      -7.0      2.283      7.928
REMARK  Name = 
REMARK  4 active torsions:
REMARK  status: ('A' for Active; 'I' for Inactive)
REMARK    1  A    between atoms: C_1  and  O_2
REMARK    2  A    between atoms: O_2  and  C_3
REMARK    3  A    between atoms: C_7  and  N_8
REMARK    4  A    between atoms: C_9  and  C_11
REMARK                            x       y       z     vdW  Elec       q    Type
REMARK                         _______ _______ _______ _____ _____    ______ ____
ROOT
ATOM      1  N   UNL     1       2.811   7.933  18.432  0.00  0.00    +0.000 N 
ATOM      2  C   UNL     1       3.037   6.567  18.506  0.00  0.00    +0.000 C 
ATOM      3  O   UNL     1       2.297   5.724  18.997  0.00  0.00    +0.000 OA
ATOM      4  H   UNL     1       3.546   8.505  18.034  0.00  0.00    +0.000 HD
ENDROOT
BRANCH   2   5
ATOM      5  C   UNL     1       4.364   6.123  18.010  0.00  0.00    +0.000 A 
ATOM      6  C   UNL     1       5.256   5.381  18.818  0.00  0.00    +0.000 A 
ATOM      7  C   UNL     1       6.421   4.835  18.268  0.00  0.00    +0.000 A 
ATOM      8  C   UNL     1       6.638   5.031  16.922  0.00  0.00    +0.000 A 
ATOM      9  C   UNL     1       5.799   5.808  16.152  0.00  0.00    +0.000 A 
ATOM     10  C   UNL     1       4.672   6.397  16.671  0.00  0.00    +0.000 A 
ATOM     11  O   UNL     1       6.178   5.832  14.845  0.00  0.00    +0.000 OA
ATOM     12  C   UNL     1       7.140   4.759  14.853  0.00  0.00    +0.000 C 
ATOM     13  O   UNL     1       7.628   4.465  16.180  0.00  0.00    +0.000 OA
ENDBRANCH   2   5
BRANCH   1  18
ATOM     14  C   UNL     1      -0.223  10.059  18.435  0.00  0.00    +0.000 A 
ATOM     15  C   UNL     1      -0.536  10.093  19.793  0.00  0.00    +0.000 A 
ATOM     16  C   UNL     1       0.255   9.418  20.718  0.00  0.00    +0.000 A 
ATOM     17  C   UNL     1       1.366   8.695  20.286  0.00  0.00    +0.000 A 
ATOM     18  C   UNL     1       1.696   8.639  18.931  0.00  0.00    +0.000 A 
ATOM     19  C   UNL     1       0.899   9.336  18.007  0.00  0.00    +0.000 A 
BRANCH  14  21
ATOM     20  C   UNL     1      -2.075  10.031  16.941  0.00  0.00    +0.000 C 
ATOM     21  O   UNL     1      -1.079  10.764  17.639  0.00  0.00    +0.000 OA
ENDBRANCH  14  21
ENDBRANCH   1  18
TORSDOF 3
ENDMDL
MODEL 7
REMARK VINA RESULT:      -7.0      3.703      8.624
REMARK  Name = 
REMARK  4 active torsions:
REMARK  status: ('A' for Active; 'I' for Inactive)
REMARK    1  A    between atoms: C_1  and  O_2
REMARK    2  A    between atoms: O_2  and  C_3
REMARK    3  A    between atoms: C_7  and  N_8
REMARK    4  A    between atoms: C_9  and  C_11
REMARK                            x       y       z     vdW  Elec       q    Type
REMARK                         _______ _______ _______ _____ _____    ______ ____
ROOT
ATOM      1  N   UNL     1       3.948   4.836  17.154  0.00  0.00    +0.000 N 
ATOM      2  C   UNL     1       5.297   4.518  17.130  0.00  0.00    +0.000 C 
ATOM      3  O   UNL     1       6.050   4.431  18.091  0.00  0.00    +0.000 OA
ATOM      4  H   UNL     1       3.472   4.914  16.263  0.00  0.00    +0.000 HD
ENDROOT
BRANCH   2   5
ATOM      5  C   UNL     1       5.881   4.363  15.773  0.00  0.00    +0.000 A 
ATOM      6  C   UNL     1       5.224   3.638  14.753  0.00  0.00    +0.000 A 
ATOM      7  C   UNL     1       5.716   3.656  13.443  0.00  0.00    +0.000 A 
ATOM      8  C   UNL     1       6.836   4.420  13.198  0.00  0.00    +0.000 A 
ATOM      9  C   UNL     1       7.509   5.074  14.207  0.00  0.00    +0.000 A 
ATOM     10  C   UNL     1       7.080   5.039  15.511  0.00  0.00    +0.000 A 
ATOM     11  O   UNL     1       8.560   5.800  13.735  0.00  0.00    +0.000 OA
ATOM     12  C   UNL     1       8.267   5.759  12.325  0.00  0.00    +0.000 C 
ATOM     13  O   UNL     1       7.377   4.676  11.977  0.00  0.00    +0.000 OA
ENDBRANCH   2   5
BRANCH   1  18
ATOM     14  C   UNL     1       1.627   4.357  20.001  0.00  0.00    +0.000 A 
ATOM     15  C   UNL     1       1.567   5.646  20.530  0.00  0.00    +0.000 A 
ATOM     16  C   UNL     1       2.289   6.684  19.946  0.00  0.00    +0.000 A 
ATOM     17  C   UNL     1       3.085   6.434  18.830  0.00  0.00    +0.000 A 
ATOM     18  C   UNL     1       3.168   5.151  18.287  0.00  0.00    +0.000 A 
ATOM     19  C   UNL     1       2.423   4.113  18.874  0.00  0.00    +0.000 A 
BRANCH  14  21
ATOM     20  C   UNL     1       1.537   2.584  21.586  0.00  0.00    +0.000 C 
ATOM     21  O   UNL     1       0.870   3.437  20.667  0.00  0.00    +0.000 OA
ENDBRANCH  14  21
ENDBRANCH   1  18
TORSDOF 3
ENDMDL
MODEL 8
REMARK VINA RESULT:      -7.0      1.703      7.928
REMARK  Name = 
REMARK  4 active torsions:
REMARK  status: ('A' for Active; 'I' for Inactive)
REMARK    1  A    between atoms: C_1  and  O_2
REMARK    2  A    between atoms: O_2  and  C_3
REMARK    3  A    between atoms: C_7  and  N_8
REMARK    4  A    between atoms: C_9  and  C_11
REMARK                            x       y       z     vdW  Elec       q    Type
REMARK                         _______ _______ _______ _____ _____    ______ ____
ROOT
ATOM      1  N   UNL     1       2.847   7.940  18.438  0.00  0.00    +0.000 N 
ATOM      2  C   UNL     1       3.028   6.565  18.418  0.00  0.00    +0.000 C 
ATOM      3  O   UNL     1       2.238   5.713  18.804  0.00  0.00    +0.000 OA
ATOM      4  H   UNL     1       3.619   8.515  18.124  0.00  0.00    +0.000 HD
ENDROOT
BRANCH   2   5
ATOM      5  C   UNL     1       4.366   6.116  17.958  0.00  0.00    +0.000 A 
ATOM      6  C   UNL     1       5.232   5.368  18.789  0.00  0.00    +0.000 A 
ATOM      7  C   UNL     1       6.409   4.816  18.270  0.00  0.00    +0.000 A 
ATOM      8  C   UNL     1       6.663   5.014  16.931  0.00  0.00    +0.000 A 
ATOM      9  C   UNL     1       5.850   5.796  16.140  0.00  0.00    +0.000 A 
ATOM     10  C   UNL     1       4.712   6.390  16.629  0.00  0.00    +0.000 A 
ATOM     11  O   UNL     1       6.265   5.820  14.843  0.00  0.00    +0.000 OA
ATOM     12  C   UNL     1       7.221   4.742  14.876  0.00  0.00    +0.000 C 
ATOM     13  O   UNL     1       7.671   4.445  16.216  0.00  0.00    +0.000 OA
ENDBRANCH   2   5
BRANCH   1  18
ATOM     14  C   UNL     1       0.186   9.004  20.786  0.00  0.00    +0.000 A 
ATOM     15  C   UNL     1      -0.490   9.956  20.025  0.00  0.00    +0.000 A 
ATOM     16  C   UNL     1      -0.076  10.250  18.729  0.00  0.00    +0.000 A 
ATOM     17  C   UNL     1       1.029   9.594  18.187  0.00  0.00    +0.000 A 
ATOM     18  C   UNL     1       1.728   8.643  18.932  0.00  0.00    +0.000 A 
ATOM     19  C   UNL     1       1.292   8.343  20.234  0.00  0.00    +0.000 A 
BRANCH  14  21
ATOM     20  C   UNL     1       0.241   9.568  23.097  0.00  0.00    +0.000 C 
ATOM     21  O   UNL     1      -0.325   8.812  22.037  0.00  0.00    +0.000 OA
ENDBRANCH  14  21
ENDBRANCH   1  18
TORSDOF 3
ENDMDL
MODEL 9
REMARK VINA RESULT:      -6.9      1.428      1.498
REMARK  Name = 
REMARK  4 active torsions:
REMARK  status: ('A' for Active; 'I' for Inactive)
REMARK    1  A    between atoms: C_1  and  O_2
REMARK    2  A    between atoms: O_2  and  C_3
REMARK    3  A    between atoms: C_7  and  N_8
REMARK    4  A    between atoms: C_9  and  C_11
REMARK                            x       y       z     vdW  Elec       q    Type
REMARK                         _______ _______ _______ _____ _____    ______ ____
ROOT
ATOM      1  N   UNL     1       2.252   6.909  19.194  0.00  0.00    +0.000 N 
ATOM      2  C   UNL     1       2.030   8.133  18.581  0.00  0.00    +0.000 C 
ATOM      3  O   UNL     1       2.429   8.488  17.479  0.00  0.00    +0.000 OA
ATOM      4  H   UNL     1       1.892   6.787  20.132  0.00  0.00    +0.000 HD
ENDROOT
BRANCH   2   5
ATOM      5  C   UNL     1       1.307   9.129  19.412  0.00  0.00    +0.000 A 
ATOM      6  C   UNL     1       0.470  10.115  18.842  0.00  0.00    +0.000 A 
ATOM      7  C   UNL     1      -0.327  10.924  19.659  0.00  0.00    +0.000 A 
ATOM      8  C   UNL     1      -0.274  10.700  21.017  0.00  0.00    +0.000 A 
ATOM      9  C   UNL     1       0.590   9.781  21.573  0.00  0.00    +0.000 A 
ATOM     10  C   UNL     1       1.419   9.003  20.803  0.00  0.00    +0.000 A 
ATOM     11  O   UNL     1       0.445   9.694  22.924  0.00  0.00    +0.000 OA
ATOM     12  C   UNL     1      -0.788  10.422  23.082  0.00  0.00    +0.000 C 
ATOM     13  O   UNL     1      -1.071  11.280  21.956  0.00  0.00    +0.000 OA
ENDBRANCH   2   5
BRANCH   1  18
ATOM     14  C   UNL     1       5.161   4.692  18.603  0.00  0.00    +0.000 A 
ATOM     15  C   UNL     1       4.614   3.742  17.741  0.00  0.00    +0.000 A 
ATOM     16  C   UNL     1       3.283   3.830  17.345  0.00  0.00    +0.000 A 
ATOM     17  C   UNL     1       2.484   4.870  17.818  0.00  0.00    +0.000 A 
ATOM     18  C   UNL     1       3.005   5.829  18.688  0.00  0.00    +0.000 A 
ATOM     19  C   UNL     1       4.355   5.740  19.070  0.00  0.00    +0.000 A 
BRANCH  14  21
ATOM     20  C   UNL     1       7.270   5.637  19.168  0.00  0.00    +0.000 C 
ATOM     21  O   UNL     1       6.475   4.489  18.909  0.00  0.00    +0.000 OA
ENDBRANCH  14  21
ENDBRANCH   1  18
TORSDOF 3
ENDMDL
