MODEL 1
REMARK VINA RESULT:      -8.2      0.000      0.000
REMARK  Name = 
REMARK  1 active torsions:
REMARK  status: ('A' for Active; 'I' for Inactive)
REMARK    1  A    between atoms: C_1  and  C_2
REMARK                            x       y       z     vdW  Elec       q    Type
REMARK                         _______ _______ _______ _____ _____    ______ ____
ROOT
ATOM      1  C   UNL     1       8.063   8.118  17.718  0.00  0.00    +0.000 C 
ATOM      2  C   UNL     1       7.121   6.962  17.536  0.00  0.00    +0.000 A 
ATOM      3  C   UNL     1       6.003   7.187  16.730  0.00  0.00    +0.000 A 
ATOM      4  C   UNL     1       5.200   6.126  16.358  0.00  0.00    +0.000 A 
ATOM      5  C   UNL     1       5.075   5.272  17.454  0.00  0.00    +0.000 A 
ATOM      6  C   UNL     1       6.089   4.973  18.350  0.00  0.00    +0.000 A 
ATOM      7  C   UNL     1       7.248   5.749  18.269  0.00  0.00    +0.000 A 
ATOM      8  N   UNL     1       5.605   4.037  19.275  0.00  0.00    +0.000 NA
ATOM      9  C   UNL     1       4.297   4.032  19.106  0.00  0.00    +0.000 A 
ATOM     10  N   UNL     1       3.986   5.048  18.248  0.00  0.00    +0.000 N 
ATOM     11  C   UNL     1       2.744   5.742  18.184  0.00  0.00    +0.000 C 
ATOM     12  C   UNL     1       1.771   4.884  17.405  0.00  0.00    +0.000 C 
ATOM     13  O   UNL     1       1.658   3.537  17.867  0.00  0.00    +0.000 OA
ATOM     14  C   UNL     1       1.892   3.312  19.193  0.00  0.00    +0.000 A 
ATOM     15  C   UNL     1       0.770   2.913  19.921  0.00  0.00    +0.000 A 
ATOM     16  C   UNL     1       0.911   2.536  21.241  0.00  0.00    +0.000 A 
ATOM     17  C   UNL     1       2.181   2.458  21.815  0.00  0.00    +0.000 A 
ATOM     18  C   UNL     1       3.319   2.884  21.111  0.00  0.00    +0.000 A 
ATOM     19  C   UNL     1       3.182   3.361  19.796  0.00  0.00    +0.000 A 
ENDROOT
TORSDOF 0
ENDMDL
MODEL 2
REMARK VINA RESULT:      -7.6      1.188      1.267
REMARK  Name = 
REMARK  1 active torsions:
REMARK  status: ('A' for Active; 'I' for Inactive)
REMARK    1  A    between atoms: C_1  and  C_2
REMARK                            x       y       z     vdW  Elec       q    Type
REMARK                         _______ _______ _______ _____ _____    ______ ____
ROOT
ATOM      1  C   UNL     1       8.500   8.530  18.052  0.00  0.00    +0.000 C 
ATOM      2  C   UNL     1       7.862   7.170  18.022  0.00  0.00    +0.000 A 
ATOM      3  C   UNL     1       7.307   6.765  16.806  0.00  0.00    +0.000 A 
ATOM      4  C   UNL     1       6.880   5.461  16.646  0.00  0.00    +0.000 A 
ATOM      5  C   UNL     1       6.263   5.058  17.831  0.00  0.00    +0.000 A 
ATOM      6  C   UNL     1       6.688   5.400  19.105  0.00  0.00    +0.000 A 
ATOM      7  C   UNL     1       7.670   6.388  19.195  0.00  0.00    +0.000 A 
ATOM      8  N   UNL     1       5.857   4.761  20.036  0.00  0.00    +0.000 NA
ATOM      9  C   UNL     1       4.826   4.327  19.338  0.00  0.00    +0.000 A 
ATOM     10  N   UNL     1       4.938   4.836  18.074  0.00  0.00    +0.000 N 
ATOM     11  C   UNL     1       3.865   5.080  17.170  0.00  0.00    +0.000 C 
ATOM     12  C   UNL     1       3.490   3.762  16.528  0.00  0.00    +0.000 C 
ATOM     13  O   UNL     1       3.241   2.697  17.447  0.00  0.00    +0.000 OA
ATOM     14  C   UNL     1       2.773   3.038  18.683  0.00  0.00    +0.000 A 
ATOM     15  C   UNL     1       1.464   2.627  18.941  0.00  0.00    +0.000 A 
ATOM     16  C   UNL     1       0.929   2.804  20.201  0.00  0.00    +0.000 A 
ATOM     17  C   UNL     1       1.724   3.299  21.236  0.00  0.00    +0.000 A 
ATOM     18  C   UNL     1       3.032   3.747  20.991  0.00  0.00    +0.000 A 
ATOM     19  C   UNL     1       3.561   3.661  19.692  0.00  0.00    +0.000 A 
ENDROOT
TORSDOF 0
ENDMDL
MODEL 3
REMARK VINA RESULT:      -7.5      2.852      6.166
REMARK  Name = 
REMARK  1 active torsions:
REMARK  status: ('A' for Active; 'I' for Inactive)
REMARK    1  A    between atoms: C_1  and  C_2
REMARK                            x       y       z     vdW  Elec       q    Type
REMARK                         _______ _______ _______ _____ _____    ______ ____
ROOT
ATOM      1  C   UNL     1       1.059   4.453  20.084  0.00  0.00    +0.000 C 
ATOM      2  C   UNL     1       2.460   4.331  19.552  0.00  0.00    +0.000 A 
ATOM      3  C   UNL     1       3.304   5.425  19.758  0.00  0.00    +0.000 A 
ATOM      4  C   UNL     1       4.652   5.315  19.475  0.00  0.00    +0.000 A 
ATOM      5  C   UNL     1       4.788   4.574  18.300  0.00  0.00    +0.000 A 
ATOM      6  C   UNL     1       4.010   3.482  17.953  0.00  0.00    +0.000 A 
ATOM      7  C   UNL     1       2.876   3.245  18.733  0.00  0.00    +0.000 A 
ATOM      8  N   UNL     1       4.482   2.967  16.737  0.00  0.00    +0.000 NA
ATOM      9  C   UNL     1       5.288   3.896  16.260  0.00  0.00    +0.000 A 
ATOM     10  N   UNL     1       5.168   4.998  17.059  0.00  0.00    +0.000 N 
ATOM     11  C   UNL     1       5.408   6.347  16.669  0.00  0.00    +0.000 C 
ATOM     12  C   UNL     1       6.903   6.579  16.695  0.00  0.00    +0.000 C 
ATOM     13  O   UNL     1       7.671   5.621  15.966  0.00  0.00    +0.000 OA
ATOM     14  C   UNL     1       7.069   5.024  14.896  0.00  0.00    +0.000 A 
ATOM     15  C   UNL     1       7.618   5.363  13.658  0.00  0.00    +0.000 A 
ATOM     16  C   UNL     1       7.174   4.724  12.517  0.00  0.00    +0.000 A 
ATOM     17  C   UNL     1       6.255   3.679  12.613  0.00  0.00    +0.000 A 
ATOM     18  C   UNL     1       5.667   3.344  13.843  0.00  0.00    +0.000 A 
ATOM     19  C   UNL     1       6.038   4.047  15.002  0.00  0.00    +0.000 A 
ENDROOT
TORSDOF 0
ENDMDL
MODEL 4
REMARK VINA RESULT:      -7.1      3.137      4.636
REMARK  Name = 
REMARK  1 active torsions:
REMARK  status: ('A' for Active; 'I' for Inactive)
REMARK    1  A    between atoms: C_1  and  C_2
REMARK                            x       y       z     vdW  Elec       q    Type
REMARK                         _______ _______ _______ _____ _____    ______ ____
ROOT
ATOM      1  C   UNL     1      -1.027  10.750  18.625  0.00  0.00    +0.000 C 
ATOM      2  C   UNL     1       0.222   9.962  18.905  0.00  0.00    +0.000 A 
ATOM      3  C   UNL     1       1.039   9.674  17.810  0.00  0.00    +0.000 A 
ATOM      4  C   UNL     1       2.292   9.128  18.012  0.00  0.00    +0.000 A 
ATOM      5  C   UNL     1       2.196   8.192  19.042  0.00  0.00    +0.000 A 
ATOM      6  C   UNL     1       1.411   8.333  20.175  0.00  0.00    +0.000 A 
ATOM      7  C   UNL     1       0.494   9.387  20.177  0.00  0.00    +0.000 A 
ATOM      8  N   UNL     1       1.622   7.222  21.004  0.00  0.00    +0.000 NA
ATOM      9  C   UNL     1       2.255   6.345  20.249  0.00  0.00    +0.000 A 
ATOM     10  N   UNL     1       2.266   6.830  18.972  0.00  0.00    +0.000 N 
ATOM     11  C   UNL     1       2.348   6.053  17.781  0.00  0.00    +0.000 C 
ATOM     12  C   UNL     1       3.798   5.674  17.572  0.00  0.00    +0.000 C 
ATOM     13  O   UNL     1       4.427   5.068  18.702  0.00  0.00    +0.000 OA
ATOM     14  C   UNL     1       3.628   4.361  19.555  0.00  0.00    +0.000 A 
ATOM     15  C   UNL     1       3.869   2.986  19.568  0.00  0.00    +0.000 A 
ATOM     16  C   UNL     1       3.210   2.187  20.482  0.00  0.00    +0.000 A 
ATOM     17  C   UNL     1       2.386   2.763  21.449  0.00  0.00    +0.000 A 
ATOM     18  C   UNL     1       2.106   4.139  21.434  0.00  0.00    +0.000 A 
ATOM     19  C   UNL     1       2.695   4.954  20.452  0.00  0.00    +0.000 A 
ENDROOT
TORSDOF 0
ENDMDL
MODEL 5
REMARK VINA RESULT:      -6.8      5.243      6.810
REMARK  Name = 
REMARK  1 active torsions:
REMARK  status: ('A' for Active; 'I' for Inactive)
REMARK    1  A    between atoms: C_1  and  C_2
REMARK                            x       y       z     vdW  Elec       q    Type
REMARK                         _______ _______ _______ _____ _____    ______ ____
ROOT
ATOM      1  C   UNL     1      -2.280  12.099  22.697  0.00  0.00    +0.000 C 
ATOM      2  C   UNL     1      -0.996  11.553  22.140  0.00  0.00    +0.000 A 
ATOM      3  C   UNL     1      -0.613  12.018  20.880  0.00  0.00    +0.000 A 
ATOM      4  C   UNL     1       0.643  11.716  20.389  0.00  0.00    +0.000 A 
ATOM      5  C   UNL     1       0.937  10.397  20.735  0.00  0.00    +0.000 A 
ATOM      6  C   UNL     1       0.601   9.795  21.936  0.00  0.00    +0.000 A 
ATOM      7  C   UNL     1      -0.279  10.495  22.765  0.00  0.00    +0.000 A 
ATOM      8  N   UNL     1       1.115   8.490  21.940  0.00  0.00    +0.000 NA
ATOM      9  C   UNL     1       1.460   8.253  20.689  0.00  0.00    +0.000 A 
ATOM     10  N   UNL     1       1.008   9.295  19.930  0.00  0.00    +0.000 N 
ATOM     11  C   UNL     1       0.681   9.244  18.545  0.00  0.00    +0.000 C 
ATOM     12  C   UNL     1       1.972   9.326  17.759  0.00  0.00    +0.000 C 
ATOM     13  O   UNL     1       2.973   8.386  18.152  0.00  0.00    +0.000 OA
ATOM     14  C   UNL     1       2.542   7.203  18.681  0.00  0.00    +0.000 A 
ATOM     15  C   UNL     1       2.802   6.084  17.888  0.00  0.00    +0.000 A 
ATOM     16  C   UNL     1       2.527   4.822  18.376  0.00  0.00    +0.000 A 
ATOM     17  C   UNL     1       2.085   4.662  19.690  0.00  0.00    +0.000 A 
ATOM     18  C   UNL     1       1.788   5.774  20.494  0.00  0.00    +0.000 A 
ATOM     19  C   UNL     1       1.974   7.069  19.980  0.00  0.00    +0.000 A 
ENDROOT
TORSDOF 0
ENDMDL
MODEL 6
REMARK VINA RESULT:      -6.7      2.538      4.355
REMARK  Name = 
REMARK  1 active torsions:
REMARK  status: ('A' for Active; 'I' for Inactive)
REMARK    1  A    between atoms: C_1  and  C_2
REMARK                            x       y       z     vdW  Elec       q    Type
REMARK                         _______ _______ _______ _____ _____    ______ ____
ROOT
ATOM      1  C   UNL     1       5.951   3.598  12.867  0.00  0.00    +0.000 C 
ATOM      2  C   UNL     1       5.898   4.156  14.261  0.00  0.00    +0.000 A 
ATOM      3  C   UNL     1       5.634   3.248  15.289  0.00  0.00    +0.000 A 
ATOM      4  C   UNL     1       5.762   3.646  16.606  0.00  0.00    +0.000 A 
ATOM      5  C   UNL     1       5.268   4.946  16.716  0.00  0.00    +0.000 A 
ATOM      6  C   UNL     1       5.433   5.943  15.769  0.00  0.00    +0.000 A 
ATOM      7  C   UNL     1       5.943   5.552  14.528  0.00  0.00    +0.000 A 
ATOM      8  N   UNL     1       4.853   7.122  16.257  0.00  0.00    +0.000 NA
ATOM      9  C   UNL     1       4.126   6.745  17.291  0.00  0.00    +0.000 A 
ATOM     10  N   UNL     1       4.121   5.379  17.318  0.00  0.00    +0.000 N 
ATOM     11  C   UNL     1       3.105   4.554  17.882  0.00  0.00    +0.000 C 
ATOM     12  C   UNL     1       3.321   4.510  19.379  0.00  0.00    +0.000 C 
ATOM     13  O   UNL     1       3.443   5.788  20.005  0.00  0.00    +0.000 OA
ATOM     14  C   UNL     1       2.791   6.834  19.416  0.00  0.00    +0.000 A 
ATOM     15  C   UNL     1       1.731   7.351  20.164  0.00  0.00    +0.000 A 
ATOM     16  C   UNL     1       1.080   8.489  19.729  0.00  0.00    +0.000 A 
ATOM     17  C   UNL     1       1.543   9.172  18.603  0.00  0.00    +0.000 A 
ATOM     18  C   UNL     1       2.586   8.653  17.821  0.00  0.00    +0.000 A 
ATOM     19  C   UNL     1       3.199   7.445  18.197  0.00  0.00    +0.000 A 
ENDROOT
TORSDOF 0
ENDMDL
MODEL 7
REMARK VINA RESULT:      -6.7      2.817      4.672
REMARK  Name = 
REMARK  1 active torsions:
REMARK  status: ('A' for Active; 'I' for Inactive)
REMARK    1  A    between atoms: C_1  and  C_2
REMARK                            x       y       z     vdW  Elec       q    Type
REMARK                         _______ _______ _______ _____ _____    ______ ____
ROOT
ATOM      1  C   UNL     1       5.579   3.822  13.951  0.00  0.00    +0.000 C 
ATOM      2  C   UNL     1       5.389   4.516  15.271  0.00  0.00    +0.000 A 
ATOM      3  C   UNL     1       4.926   3.730  16.329  0.00  0.00    +0.000 A 
ATOM      4  C   UNL     1       4.913   4.244  17.611  0.00  0.00    +0.000 A 
ATOM      5  C   UNL     1       4.509   5.578  17.539  0.00  0.00    +0.000 A 
ATOM      6  C   UNL     1       4.871   6.466  16.539  0.00  0.00    +0.000 A 
ATOM      7  C   UNL     1       5.505   5.925  15.418  0.00  0.00    +0.000 A 
ATOM      8  N   UNL     1       4.324   7.722  16.840  0.00  0.00    +0.000 NA
ATOM      9  C   UNL     1       3.443   7.494  17.794  0.00  0.00    +0.000 A 
ATOM     10  N   UNL     1       3.330   6.140  17.939  0.00  0.00    +0.000 N 
ATOM     11  C   UNL     1       2.191   5.440  18.430  0.00  0.00    +0.000 C 
ATOM     12  C   UNL     1       2.207   5.528  19.940  0.00  0.00    +0.000 C 
ATOM     13  O   UNL     1       2.344   6.850  20.463  0.00  0.00    +0.000 OA
ATOM     14  C   UNL     1       1.855   7.873  19.702  0.00  0.00    +0.000 A 
ATOM     15  C   UNL     1       0.750   8.527  20.251  0.00  0.00    +0.000 A 
ATOM     16  C   UNL     1       0.250   9.656  19.634  0.00  0.00    +0.000 A 
ATOM     17  C   UNL     1       0.905  10.197  18.526  0.00  0.00    +0.000 A 
ATOM     18  C   UNL     1       1.998   9.538  17.941  0.00  0.00    +0.000 A 
ATOM     19  C   UNL     1       2.463   8.336  18.500  0.00  0.00    +0.000 A 
ENDROOT
TORSDOF 0
ENDMDL
MODEL 8
REMARK VINA RESULT:      -6.7      1.957      5.608
REMARK  Name = 
REMARK  1 active torsions:
REMARK  status: ('A' for Active; 'I' for Inactive)
REMARK    1  A    between atoms: C_1  and  C_2
REMARK                            x       y       z     vdW  Elec       q    Type
REMARK                         _______ _______ _______ _____ _____    ______ ____
ROOT
ATOM      1  C   UNL     1       1.052   2.131  22.041  0.00  0.00    +0.000 C 
ATOM      2  C   UNL     1       2.074   3.052  21.436  0.00  0.00    +0.000 A 
ATOM      3  C   UNL     1       1.661   4.362  21.180  0.00  0.00    +0.000 A 
ATOM      4  C   UNL     1       2.591   5.315  20.810  0.00  0.00    +0.000 A 
ATOM      5  C   UNL     1       3.501   4.716  19.938  0.00  0.00    +0.000 A 
ATOM      6  C   UNL     1       3.980   3.421  20.054  0.00  0.00    +0.000 A 
ATOM      7  C   UNL     1       3.342   2.596  20.983  0.00  0.00    +0.000 A 
ATOM      8  N   UNL     1       4.917   3.200  19.034  0.00  0.00    +0.000 NA
ATOM      9  C   UNL     1       4.756   4.206  18.196  0.00  0.00    +0.000 A 
ATOM     10  N   UNL     1       3.651   4.904  18.593  0.00  0.00    +0.000 N 
ATOM     11  C   UNL     1       2.813   5.696  17.758  0.00  0.00    +0.000 C 
ATOM     12  C   UNL     1       3.493   7.032  17.549  0.00  0.00    +0.000 C 
ATOM     13  O   UNL     1       4.847   6.952  17.101  0.00  0.00    +0.000 OA
ATOM     14  C   UNL     1       5.193   5.860  16.357  0.00  0.00    +0.000 A 
ATOM     15  C   UNL     1       5.508   6.141  15.027  0.00  0.00    +0.000 A 
ATOM     16  C   UNL     1       5.993   5.137  14.213  0.00  0.00    +0.000 A 
ATOM     17  C   UNL     1       6.260   3.874  14.744  0.00  0.00    +0.000 A 
ATOM     18  C   UNL     1       5.922   3.562  16.070  0.00  0.00    +0.000 A 
ATOM     19  C   UNL     1       5.339   4.546  16.887  0.00  0.00    +0.000 A 
ENDROOT
TORSDOF 0
ENDMDL
MODEL 9
REMARK VINA RESULT:      -6.5      2.376      5.446
REMARK  Name = 
REMARK  1 active torsions:
REMARK  status: ('A' for Active; 'I' for Inactive)
REMARK    1  A    between atoms: C_1  and  C_2
REMARK                            x       y       z     vdW  Elec       q    Type
REMARK                         _______ _______ _______ _____ _____    ______ ____
ROOT
ATOM      1  C   UNL     1       1.379   8.980  21.970  0.00  0.00    +0.000 C 
ATOM      2  C   UNL     1       1.501   7.982  20.853  0.00  0.00    +0.000 A 
ATOM      3  C   UNL     1       1.516   6.634  21.218  0.00  0.00    +0.000 A 
ATOM      4  C   UNL     1       1.429   5.658  20.244  0.00  0.00    +0.000 A 
ATOM      5  C   UNL     1       2.197   6.066  19.152  0.00  0.00    +0.000 A 
ATOM      6  C   UNL     1       2.295   7.369  18.691  0.00  0.00    +0.000 A 
ATOM      7  C   UNL     1       1.759   8.366  19.508  0.00  0.00    +0.000 A 
ATOM      8  N   UNL     1       3.105   7.375  17.546  0.00  0.00    +0.000 NA
ATOM      9  C   UNL     1       3.689   6.193  17.531  0.00  0.00    +0.000 A 
ATOM     10  N   UNL     1       3.388   5.567  18.707  0.00  0.00    +0.000 N 
ATOM     11  C   UNL     1       4.171   4.565  19.349  0.00  0.00    +0.000 C 
ATOM     12  C   UNL     1       3.893   3.246  18.660  0.00  0.00    +0.000 C 
ATOM     13  O   UNL     1       4.036   3.270  17.239  0.00  0.00    +0.000 OA
ATOM     14  C   UNL     1       4.927   4.165  16.719  0.00  0.00    +0.000 A 
ATOM     15  C   UNL     1       6.046   3.585  16.118  0.00  0.00    +0.000 A 
ATOM     16  C   UNL     1       6.951   4.383  15.447  0.00  0.00    +0.000 A 
ATOM     17  C   UNL     1       6.696   5.746  15.286  0.00  0.00    +0.000 A 
ATOM     18  C   UNL     1       5.594   6.354  15.908  0.00  0.00    +0.000 A 
ATOM     19  C   UNL     1       4.713   5.572  16.674  0.00  0.00    +0.000 A 
ENDROOT
TORSDOF 0
ENDMDL
