MODEL 1
REMARK VINA RESULT:      -8.1      0.000      0.000
REMARK  Name = 
REMARK  9 active torsions:
REMARK  status: ('A' for Active; 'I' for Inactive)
REMARK    1  A    between atoms: C_1  and  C_2
REMARK    2  A    between atoms: C_3  and  C_4
REMARK    3  A    between atoms: C_5  and  C_6
REMARK    4  A    between atoms: C_6  and  C_7
REMARK    5  A    between atoms: C_8  and  C_9
REMARK    6  A    between atoms: C_9  and  N_10
REMARK    7  A    between atoms: C_11  and  C_13
REMARK    8  A    between atoms: C_19  and  C_20
REMARK    9  A    between atoms: C_19  and  C_21
REMARK                            x       y       z     vdW  Elec       q    Type
REMARK                         _______ _______ _______ _____ _____    ______ ____
ROOT
ATOM      1  C   UNL     1       1.838   8.444  19.109  0.00  0.00    +0.000 C 
ATOM      2  C   UNL     1       1.909   9.284  17.855  0.00  0.00    +0.000 C 
ATOM      3  C   UNL     1       1.262   8.958  20.224  0.00  0.00    +0.000 C 
ENDROOT
BRANCH   1   5
ATOM      4  C   UNL     1       2.161   6.094  18.243  0.00  0.00    +0.000 C 
ATOM      5  C   UNL     1       2.406   7.086  19.122  0.00  0.00    +0.000 C 
BRANCH   4   8
ATOM      6  C   UNL     1       4.613   5.345  16.668  0.00  0.00    +0.000 C 
ATOM      7  C   UNL     1       3.813   4.396  17.529  0.00  0.00    +0.000 C 
ATOM      8  C   UNL     1       2.732   4.739  18.276  0.00  0.00    +0.000 C 
ATOM      9  C   UNL     1       2.092   3.745  19.286  0.00  0.00    +0.000 C 
ATOM     10  C   UNL     1       1.905   4.364  20.694  0.00  0.00    +0.000 C 
ATOM     11  C   UNL     1       0.706   3.295  18.774  0.00  0.00    +0.000 C 
ATOM     12  C   UNL     1       2.983   2.488  19.497  0.00  0.00    +0.000 C 
ATOM     13  C   UNL     1       3.528   1.944  18.189  0.00  0.00    +0.000 C 
ATOM     14  C   UNL     1       4.395   2.996  17.517  0.00  0.00    +0.000 C 
ENDBRANCH   4   8
ENDBRANCH   1   5
BRANCH   3  15
ATOM     15  C   UNL     1       0.754  10.365  20.390  0.00  0.00    +0.000 C 
BRANCH  15  16
ATOM     16  N   UNL     1      -0.627  10.470  19.979  0.00  0.00    +0.000 N 
ATOM     17  C   UNL     1      -0.974  11.410  19.034  0.00  0.00    +0.000 C 
ATOM     18  O   UNL     1      -0.171  12.189  18.530  0.00  0.00    +0.000 OA
ATOM     19  H   UNL     1      -1.295   9.784  20.301  0.00  0.00    +0.000 HD
BRANCH  17  20
ATOM     20  C   UNL     1      -2.412  11.393  18.665  0.00  0.00    +0.000 C 
ATOM     21  C   UNL     1      -2.752  11.156  17.390  0.00  0.00    +0.000 C 
ATOM     22  C   UNL     1      -4.093  11.096  16.662  0.00  0.00    +0.000 C 
ATOM     23  C   UNL     1      -3.178  10.799  15.439  0.00  0.00    +0.000 C 
ATOM     24  O   UNL     1      -3.305  10.580  14.256  0.00  0.00    +0.000 OA
ATOM     25  N   UNL     1      -2.073  10.876  16.227  0.00  0.00    +0.000 N 
ATOM     26  H   UNL     1      -1.082  10.791  16.045  0.00  0.00    +0.000 HD
ENDBRANCH  17  20
ENDBRANCH  15  16
ENDBRANCH   3  15
TORSDOF 5
ENDMDL
MODEL 2
REMARK VINA RESULT:      -8.0      0.819      2.148
REMARK  Name = 
REMARK  9 active torsions:
REMARK  status: ('A' for Active; 'I' for Inactive)
REMARK    1  A    between atoms: C_1  and  C_2
REMARK    2  A    between atoms: C_3  and  C_4
REMARK    3  A    between atoms: C_5  and  C_6
REMARK    4  A    between atoms: C_6  and  C_7
REMARK    5  A    between atoms: C_8  and  C_9
REMARK    6  A    between atoms: C_9  and  N_10
REMARK    7  A    between atoms: C_11  and  C_13
REMARK    8  A    between atoms: C_19  and  C_20
REMARK    9  A    between atoms: C_19  and  C_21
REMARK                            x       y       z     vdW  Elec       q    Type
REMARK                         _______ _______ _______ _____ _____    ______ ____
ROOT
ATOM      1  C   UNL     1       1.659   8.572  19.326  0.00  0.00    +0.000 C 
ATOM      2  C   UNL     1       1.735   9.115  17.918  0.00  0.00    +0.000 C 
ATOM      3  C   UNL     1       1.105   9.330  20.304  0.00  0.00    +0.000 C 
ENDROOT
BRANCH   1   5
ATOM      4  C   UNL     1       2.394   6.221  18.770  0.00  0.00    +0.000 C 
ATOM      5  C   UNL     1       2.198   7.238  19.633  0.00  0.00    +0.000 C 
BRANCH   4   8
ATOM      6  C   UNL     1       0.801   4.184  20.309  0.00  0.00    +0.000 C 
ATOM      7  C   UNL     1       2.219   3.992  19.829  0.00  0.00    +0.000 C 
ATOM      8  C   UNL     1       2.927   4.890  19.097  0.00  0.00    +0.000 C 
ATOM      9  C   UNL     1       4.306   4.528  18.476  0.00  0.00    +0.000 C 
ATOM     10  C   UNL     1       4.387   4.865  16.966  0.00  0.00    +0.000 C 
ATOM     11  C   UNL     1       5.428   5.304  19.199  0.00  0.00    +0.000 C 
ATOM     12  C   UNL     1       4.601   3.004  18.580  0.00  0.00    +0.000 C 
ATOM     13  C   UNL     1       4.249   2.444  19.946  0.00  0.00    +0.000 C 
ATOM     14  C   UNL     1       2.764   2.629  20.210  0.00  0.00    +0.000 C 
ENDBRANCH   4   8
ENDBRANCH   1   5
BRANCH   3  15
ATOM     15  C   UNL     1       0.628  10.751  20.160  0.00  0.00    +0.000 C 
BRANCH  15  16
ATOM     16  N   UNL     1      -0.759  10.795  19.759  0.00  0.00    +0.000 N 
ATOM     17  C   UNL     1      -1.163  11.751  18.853  0.00  0.00    +0.000 C 
ATOM     18  O   UNL     1      -0.407  12.594  18.379  0.00  0.00    +0.000 OA
ATOM     19  H   UNL     1      -1.386  10.060  20.056  0.00  0.00    +0.000 HD
BRANCH  17  20
ATOM     20  C   UNL     1      -2.600  11.669  18.489  0.00  0.00    +0.000 C 
ATOM     21  C   UNL     1      -2.933  11.342  17.232  0.00  0.00    +0.000 C 
ATOM     22  C   UNL     1      -4.272  11.197  16.512  0.00  0.00    +0.000 C 
ATOM     23  C   UNL     1      -3.349  10.851  15.309  0.00  0.00    +0.000 C 
ATOM     24  O   UNL     1      -3.469  10.554  14.142  0.00  0.00    +0.000 OA
ATOM     25  N   UNL     1      -2.246  11.010  16.087  0.00  0.00    +0.000 N 
ATOM     26  H   UNL     1      -1.253  10.943  15.910  0.00  0.00    +0.000 HD
ENDBRANCH  17  20
ENDBRANCH  15  16
ENDBRANCH   3  15
TORSDOF 5
ENDMDL
MODEL 3
REMARK VINA RESULT:      -7.8      6.079      8.574
REMARK  Name = 
REMARK  9 active torsions:
REMARK  status: ('A' for Active; 'I' for Inactive)
REMARK    1  A    between atoms: C_1  and  C_2
REMARK    2  A    between atoms: C_3  and  C_4
REMARK    3  A    between atoms: C_5  and  C_6
REMARK    4  A    between atoms: C_6  and  C_7
REMARK    5  A    between atoms: C_8  and  C_9
REMARK    6  A    between atoms: C_9  and  N_10
REMARK    7  A    between atoms: C_11  and  C_13
REMARK    8  A    between atoms: C_19  and  C_20
REMARK    9  A    between atoms: C_19  and  C_21
REMARK                            x       y       z     vdW  Elec       q    Type
REMARK                         _______ _______ _______ _____ _____    ______ ____
ROOT
ATOM      1  C   UNL     1       5.731   6.233  17.396  0.00  0.00    +0.000 C 
ATOM      2  C   UNL     1       5.541   6.412  15.908  0.00  0.00    +0.000 C 
ATOM      3  C   UNL     1       6.703   6.931  18.033  0.00  0.00    +0.000 C 
ENDROOT
BRANCH   1   5
ATOM      4  C   UNL     1       3.549   5.389  18.345  0.00  0.00    +0.000 C 
ATOM      5  C   UNL     1       4.878   5.294  18.141  0.00  0.00    +0.000 C 
BRANCH   4   8
ATOM      6  C   UNL     1       1.722   6.278  20.565  0.00  0.00    +0.000 C 
ATOM      7  C   UNL     1       1.923   4.846  20.130  0.00  0.00    +0.000 C 
ATOM      8  C   UNL     1       2.713   4.444  19.100  0.00  0.00    +0.000 C 
ATOM      9  C   UNL     1       2.705   2.974  18.595  0.00  0.00    +0.000 C 
ATOM     10  C   UNL     1       2.510   2.872  17.062  0.00  0.00    +0.000 C 
ATOM     11  C   UNL     1       4.041   2.288  18.954  0.00  0.00    +0.000 C 
ATOM     12  C   UNL     1       1.537   2.158  19.220  0.00  0.00    +0.000 C 
ATOM     13  C   UNL     1       1.388   2.415  20.708  0.00  0.00    +0.000 C 
ATOM     14  C   UNL     1       1.082   3.885  20.947  0.00  0.00    +0.000 C 
ENDBRANCH   4   8
ENDBRANCH   1   5
BRANCH   3  15
ATOM     15  C   UNL     1       7.722   7.828  17.381  0.00  0.00    +0.000 C 
BRANCH  15  16
ATOM     16  N   UNL     1       8.565   8.461  18.369  0.00  0.00    +0.000 N 
ATOM     17  C   UNL     1       8.631   9.836  18.408  0.00  0.00    +0.000 C 
ATOM     18  O   UNL     1       8.025  10.564  17.628  0.00  0.00    +0.000 OA
ATOM     19  H   UNL     1       9.001   7.897  19.085  0.00  0.00    +0.000 HD
BRANCH  17  20
ATOM     20  C   UNL     1       9.497  10.368  19.491  0.00  0.00    +0.000 C 
ATOM     21  C   UNL     1      10.351  11.363  19.209  0.00  0.00    +0.000 C 
ATOM     22  C   UNL     1      11.387  12.115  20.040  0.00  0.00    +0.000 C 
ATOM     23  C   UNL     1      11.619  12.859  18.694  0.00  0.00    +0.000 C 
ATOM     24  O   UNL     1      12.330  13.741  18.267  0.00  0.00    +0.000 OA
ATOM     25  N   UNL     1      10.658  12.109  18.095  0.00  0.00    +0.000 N 
ATOM     26  H   UNL     1      10.292  12.070  17.153  0.00  0.00    +0.000 HD
ENDBRANCH  17  20
ENDBRANCH  15  16
ENDBRANCH   3  15
TORSDOF 5
ENDMDL
MODEL 4
REMARK VINA RESULT:      -7.7      1.088      1.451
REMARK  Name = 
REMARK  9 active torsions:
REMARK  status: ('A' for Active; 'I' for Inactive)
REMARK    1  A    between atoms: C_1  and  C_2
REMARK    2  A    between atoms: C_3  and  C_4
REMARK    3  A    between atoms: C_5  and  C_6
REMARK    4  A    between atoms: C_6  and  C_7
REMARK    5  A    between atoms: C_8  and  C_9
REMARK    6  A    between atoms: C_9  and  N_10
REMARK    7  A    between atoms: C_11  and  C_13
REMARK    8  A    between atoms: C_19  and  C_20
REMARK    9  A    between atoms: C_19  and  C_21
REMARK                            x       y       z     vdW  Elec       q    Type
REMARK                         _______ _______ _______ _____ _____    ______ ____
ROOT
ATOM      1  C   UNL     1       1.662   8.871  19.004  0.00  0.00    +0.000 C 
ATOM      2  C   UNL     1       1.170   8.785  20.430  0.00  0.00    +0.000 C 
ATOM      3  C   UNL     1       1.559  10.044  18.332  0.00  0.00    +0.000 C 
ENDROOT
BRANCH   1   5
ATOM      4  C   UNL     1       2.949   6.700  18.924  0.00  0.00    +0.000 C 
ATOM      5  C   UNL     1       2.232   7.684  18.347  0.00  0.00    +0.000 C 
BRANCH   4   8
ATOM      6  C   UNL     1       5.413   6.867  17.205  0.00  0.00    +0.000 C 
ATOM      7  C   UNL     1       4.605   5.614  17.440  0.00  0.00    +0.000 C 
ATOM      8  C   UNL     1       3.518   5.523  18.250  0.00  0.00    +0.000 C 
ATOM      9  C   UNL     1       2.868   4.153  18.590  0.00  0.00    +0.000 C 
ATOM     10  C   UNL     1       2.671   3.948  20.112  0.00  0.00    +0.000 C 
ATOM     11  C   UNL     1       1.486   4.043  17.910  0.00  0.00    +0.000 C 
ATOM     12  C   UNL     1       3.755   2.964  18.120  0.00  0.00    +0.000 C 
ATOM     13  C   UNL     1       4.310   3.178  16.724  0.00  0.00    +0.000 C 
ATOM     14  C   UNL     1       5.185   4.421  16.704  0.00  0.00    +0.000 C 
ENDBRANCH   4   8
ENDBRANCH   1   5
BRANCH   3  15
ATOM     15  C   UNL     1       0.891  11.297  18.834  0.00  0.00    +0.000 C 
BRANCH  15  16
ATOM     16  N   UNL     1      -0.430  11.442  18.270  0.00  0.00    +0.000 N 
ATOM     17  C   UNL     1      -1.520  11.454  19.113  0.00  0.00    +0.000 C 
ATOM     18  O   UNL     1      -1.433  11.324  20.330  0.00  0.00    +0.000 OA
ATOM     19  H   UNL     1      -0.531  11.647  17.285  0.00  0.00    +0.000 HD
BRANCH  17  20
ATOM     20  C   UNL     1      -2.818  11.650  18.418  0.00  0.00    +0.000 C 
ATOM     21  C   UNL     1      -2.957  11.197  17.164  0.00  0.00    +0.000 C 
ATOM     22  C   UNL     1      -4.105  11.247  16.159  0.00  0.00    +0.000 C 
ATOM     23  C   UNL     1      -3.079  10.490  15.267  0.00  0.00    +0.000 C 
ATOM     24  O   UNL     1      -3.029  10.031  14.148  0.00  0.00    +0.000 OA
ATOM     25  N   UNL     1      -2.162  10.518  16.269  0.00  0.00    +0.000 N 
ATOM     26  H   UNL     1      -1.209  10.190  16.351  0.00  0.00    +0.000 HD
ENDBRANCH  17  20
ENDBRANCH  15  16
ENDBRANCH   3  15
TORSDOF 5
ENDMDL
MODEL 5
REMARK VINA RESULT:      -7.6      5.709      8.280
REMARK  Name = 
REMARK  9 active torsions:
REMARK  status: ('A' for Active; 'I' for Inactive)
REMARK    1  A    between atoms: C_1  and  C_2
REMARK    2  A    between atoms: C_3  and  C_4
REMARK    3  A    between atoms: C_5  and  C_6
REMARK    4  A    between atoms: C_6  and  C_7
REMARK    5  A    between atoms: C_8  and  C_9
REMARK    6  A    between atoms: C_9  and  N_10
REMARK    7  A    between atoms: C_11  and  C_13
REMARK    8  A    between atoms: C_19  and  C_20
REMARK    9  A    between atoms: C_19  and  C_21
REMARK                            x       y       z     vdW  Elec       q    Type
REMARK                         _______ _______ _______ _____ _____    ______ ____
ROOT
ATOM      1  C   UNL     1       6.802   5.880  18.569  0.00  0.00    +0.000 C 
ATOM      2  C   UNL     1       8.124   5.149  18.581  0.00  0.00    +0.000 C 
ATOM      3  C   UNL     1       6.732   7.123  18.032  0.00  0.00    +0.000 C 
ENDROOT
BRANCH   1   5
ATOM      4  C   UNL     1       4.379   5.171  18.600  0.00  0.00    +0.000 C 
ATOM      5  C   UNL     1       5.605   5.253  19.153  0.00  0.00    +0.000 C 
BRANCH   4   8
ATOM      6  C   UNL     1       2.226   6.780  19.953  0.00  0.00    +0.000 C 
ATOM      7  C   UNL     1       2.245   5.274  19.849  0.00  0.00    +0.000 C 
ATOM      8  C   UNL     1       3.191   4.546  19.201  0.00  0.00    +0.000 C 
ATOM      9  C   UNL     1       3.026   3.017  18.972  0.00  0.00    +0.000 C 
ATOM     10  C   UNL     1       3.250   2.608  17.495  0.00  0.00    +0.000 C 
ATOM     11  C   UNL     1       4.041   2.242  19.842  0.00  0.00    +0.000 C 
ATOM     12  C   UNL     1       1.590   2.534  19.326  0.00  0.00    +0.000 C 
ATOM     13  C   UNL     1       1.088   3.133  20.628  0.00  0.00    +0.000 C 
ATOM     14  C   UNL     1       1.032   4.647  20.509  0.00  0.00    +0.000 C 
ENDBRANCH   4   8
ENDBRANCH   1   5
BRANCH   3  15
ATOM     15  C   UNL     1       7.892   7.931  17.514  0.00  0.00    +0.000 C 
BRANCH  15  16
ATOM     16  N   UNL     1       8.622   8.546  18.598  0.00  0.00    +0.000 N 
ATOM     17  C   UNL     1       8.821   9.909  18.582  0.00  0.00    +0.000 C 
ATOM     18  O   UNL     1       8.429  10.637  17.676  0.00  0.00    +0.000 OA
ATOM     19  H   UNL     1       8.875   7.992  19.404  0.00  0.00    +0.000 HD
BRANCH  17  20
ATOM     20  C   UNL     1       9.547  10.427  19.769  0.00  0.00    +0.000 C 
ATOM     21  C   UNL     1       9.523  11.744  20.020  0.00  0.00    +0.000 C 
ATOM     22  C   UNL     1      10.164  12.611  21.100  0.00  0.00    +0.000 C 
ATOM     23  C   UNL     1       9.442  13.748  20.320  0.00  0.00    +0.000 C 
ATOM     24  O   UNL     1       9.324  14.950  20.392  0.00  0.00    +0.000 OA
ATOM     25  N   UNL     1       8.938  12.845  19.439  0.00  0.00    +0.000 N 
ATOM     26  H   UNL     1       8.356  12.926  18.616  0.00  0.00    +0.000 HD
ENDBRANCH  17  20
ENDBRANCH  15  16
ENDBRANCH   3  15
TORSDOF 5
ENDMDL
MODEL 6
REMARK VINA RESULT:      -7.6      1.720      2.795
REMARK  Name = 
REMARK  9 active torsions:
REMARK  status: ('A' for Active; 'I' for Inactive)
REMARK    1  A    between atoms: C_1  and  C_2
REMARK    2  A    between atoms: C_3  and  C_4
REMARK    3  A    between atoms: C_5  and  C_6
REMARK    4  A    between atoms: C_6  and  C_7
REMARK    5  A    between atoms: C_8  and  C_9
REMARK    6  A    between atoms: C_9  and  N_10
REMARK    7  A    between atoms: C_11  and  C_13
REMARK    8  A    between atoms: C_19  and  C_20
REMARK    9  A    between atoms: C_19  and  C_21
REMARK                            x       y       z     vdW  Elec       q    Type
REMARK                         _______ _______ _______ _____ _____    ______ ____
ROOT
ATOM      1  C   UNL     1       1.845   7.939  19.784  0.00  0.00    +0.000 C 
ATOM      2  C   UNL     1       1.308   8.522  21.070  0.00  0.00    +0.000 C 
ATOM      3  C   UNL     1       1.884   8.707  18.667  0.00  0.00    +0.000 C 
ENDROOT
BRANCH   1   5
ATOM      4  C   UNL     1       2.273   5.705  18.687  0.00  0.00    +0.000 C 
ATOM      5  C   UNL     1       2.307   6.542  19.743  0.00  0.00    +0.000 C 
BRANCH   4   8
ATOM      6  C   UNL     1       0.536   3.428  19.609  0.00  0.00    +0.000 C 
ATOM      7  C   UNL     1       1.959   3.290  19.124  0.00  0.00    +0.000 C 
ATOM      8  C   UNL     1       2.732   4.308  18.665  0.00  0.00    +0.000 C 
ATOM      9  C   UNL     1       4.112   4.046  18.000  0.00  0.00    +0.000 C 
ATOM     10  C   UNL     1       4.259   4.758  16.632  0.00  0.00    +0.000 C 
ATOM     11  C   UNL     1       5.245   4.546  18.923  0.00  0.00    +0.000 C 
ATOM     12  C   UNL     1       4.332   2.533  17.709  0.00  0.00    +0.000 C 
ATOM     13  C   UNL     1       3.909   1.657  18.874  0.00  0.00    +0.000 C 
ATOM     14  C   UNL     1       2.426   1.847  19.147  0.00  0.00    +0.000 C 
ENDBRANCH   4   8
ENDBRANCH   1   5
BRANCH   3  15
ATOM     15  C   UNL     1       1.336  10.103  18.534  0.00  0.00    +0.000 C 
BRANCH  15  16
ATOM     16  N   UNL     1       0.160  10.122  17.694  0.00  0.00    +0.000 N 
ATOM     17  C   UNL     1      -1.031  10.569  18.222  0.00  0.00    +0.000 C 
ATOM     18  O   UNL     1      -1.158  10.936  19.386  0.00  0.00    +0.000 OA
ATOM     19  H   UNL     1       0.250   9.918  16.709  0.00  0.00    +0.000 HD
BRANCH  17  20
ATOM     20  C   UNL     1      -2.155  10.579  17.252  0.00  0.00    +0.000 C 
ATOM     21  C   UNL     1      -3.298  11.193  17.589  0.00  0.00    +0.000 C 
ATOM     22  C   UNL     1      -4.636  11.371  16.877  0.00  0.00    +0.000 C 
ATOM     23  C   UNL     1      -4.993  12.136  18.184  0.00  0.00    +0.000 C 
ATOM     24  O   UNL     1      -5.943  12.722  18.650  0.00  0.00    +0.000 OA
ATOM     25  N   UNL     1      -3.749  11.901  18.680  0.00  0.00    +0.000 N 
ATOM     26  H   UNL     1      -3.293  12.129  19.553  0.00  0.00    +0.000 HD
ENDBRANCH  17  20
ENDBRANCH  15  16
ENDBRANCH   3  15
TORSDOF 5
ENDMDL
MODEL 7
REMARK VINA RESULT:      -7.5      6.125      8.606
REMARK  Name = 
REMARK  9 active torsions:
REMARK  status: ('A' for Active; 'I' for Inactive)
REMARK    1  A    between atoms: C_1  and  C_2
REMARK    2  A    between atoms: C_3  and  C_4
REMARK    3  A    between atoms: C_5  and  C_6
REMARK    4  A    between atoms: C_6  and  C_7
REMARK    5  A    between atoms: C_8  and  C_9
REMARK    6  A    between atoms: C_9  and  N_10
REMARK    7  A    between atoms: C_11  and  C_13
REMARK    8  A    between atoms: C_19  and  C_20
REMARK    9  A    between atoms: C_19  and  C_21
REMARK                            x       y       z     vdW  Elec       q    Type
REMARK                         _______ _______ _______ _____ _____    ______ ____
ROOT
ATOM      1  C   UNL     1       6.783   5.854  18.775  0.00  0.00    +0.000 C 
ATOM      2  C   UNL     1       8.164   5.448  19.235  0.00  0.00    +0.000 C 
ATOM      3  C   UNL     1       6.650   6.843  17.857  0.00  0.00    +0.000 C 
ENDROOT
BRANCH   1   5
ATOM      4  C   UNL     1       4.522   4.737  18.654  0.00  0.00    +0.000 C 
ATOM      5  C   UNL     1       5.594   5.191  19.333  0.00  0.00    +0.000 C 
BRANCH   4   8
ATOM      6  C   UNL     1       4.672   2.069  20.040  0.00  0.00    +0.000 C 
ATOM      7  C   UNL     1       3.405   2.859  19.815  0.00  0.00    +0.000 C 
ATOM      8  C   UNL     1       3.338   4.082  19.230  0.00  0.00    +0.000 C 
ATOM      9  C   UNL     1       2.021   4.909  19.221  0.00  0.00    +0.000 C 
ATOM     10  C   UNL     1       2.224   6.359  19.726  0.00  0.00    +0.000 C 
ATOM     11  C   UNL     1       1.453   4.977  17.786  0.00  0.00    +0.000 C 
ATOM     12  C   UNL     1       0.946   4.288  20.158  0.00  0.00    +0.000 C 
ATOM     13  C   UNL     1       0.858   2.779  20.010  0.00  0.00    +0.000 C 
ATOM     14  C   UNL     1       2.190   2.149  20.381  0.00  0.00    +0.000 C 
ENDBRANCH   4   8
ENDBRANCH   1   5
BRANCH   3  15
ATOM     15  C   UNL     1       7.765   7.686  17.295  0.00  0.00    +0.000 C 
BRANCH  15  16
ATOM     16  N   UNL     1       8.505   8.338  18.350  0.00  0.00    +0.000 N 
ATOM     17  C   UNL     1       8.590   9.713  18.356  0.00  0.00    +0.000 C 
ATOM     18  O   UNL     1       8.086  10.424  17.492  0.00  0.00    +0.000 OA
ATOM     19  H   UNL     1       8.850   7.791  19.127  0.00  0.00    +0.000 HD
BRANCH  17  20
ATOM     20  C   UNL     1       9.342  10.266  19.511  0.00  0.00    +0.000 C 
ATOM     21  C   UNL     1      10.234  11.244  19.295  0.00  0.00    +0.000 C 
ATOM     22  C   UNL     1      11.184  12.009  20.213  0.00  0.00    +0.000 C 
ATOM     23  C   UNL     1      11.570  12.712  18.880  0.00  0.00    +0.000 C 
ATOM     24  O   UNL     1      12.333  13.574  18.508  0.00  0.00    +0.000 OA
ATOM     25  N   UNL     1      10.668  11.955  18.201  0.00  0.00    +0.000 N 
ATOM     26  H   UNL     1      10.405  11.893  17.227  0.00  0.00    +0.000 HD
ENDBRANCH  17  20
ENDBRANCH  15  16
ENDBRANCH   3  15
TORSDOF 5
ENDMDL
MODEL 8
REMARK VINA RESULT:      -7.5      5.926      8.329
REMARK  Name = 
REMARK  9 active torsions:
REMARK  status: ('A' for Active; 'I' for Inactive)
REMARK    1  A    between atoms: C_1  and  C_2
REMARK    2  A    between atoms: C_3  and  C_4
REMARK    3  A    between atoms: C_5  and  C_6
REMARK    4  A    between atoms: C_6  and  C_7
REMARK    5  A    between atoms: C_8  and  C_9
REMARK    6  A    between atoms: C_9  and  N_10
REMARK    7  A    between atoms: C_11  and  C_13
REMARK    8  A    between atoms: C_19  and  C_20
REMARK    9  A    between atoms: C_19  and  C_21
REMARK                            x       y       z     vdW  Elec       q    Type
REMARK                         _______ _______ _______ _____ _____    ______ ____
ROOT
ATOM      1  C   UNL     1       6.183   5.939  17.579  0.00  0.00    +0.000 C 
ATOM      2  C   UNL     1       6.334   5.553  16.127  0.00  0.00    +0.000 C 
ATOM      3  C   UNL     1       6.991   6.894  18.103  0.00  0.00    +0.000 C 
ENDROOT
BRANCH   1   5
ATOM      4  C   UNL     1       3.886   5.038  18.115  0.00  0.00    +0.000 C 
ATOM      5  C   UNL     1       5.177   5.271  18.421  0.00  0.00    +0.000 C 
BRANCH   4   8
ATOM      6  C   UNL     1       2.088   6.573  19.977  0.00  0.00    +0.000 C 
ATOM      7  C   UNL     1       2.114   5.069  19.842  0.00  0.00    +0.000 C 
ATOM      8  C   UNL     1       2.892   4.375  18.972  0.00  0.00    +0.000 C 
ATOM      9  C   UNL     1       2.710   2.845  18.760  0.00  0.00    +0.000 C 
ATOM     10  C   UNL     1       2.580   2.462  17.265  0.00  0.00    +0.000 C 
ATOM     11  C   UNL     1       3.921   2.086  19.345  0.00  0.00    +0.000 C 
ATOM     12  C   UNL     1       1.413   2.321  19.440  0.00  0.00    +0.000 C 
ATOM     13  C   UNL     1       1.226   2.889  20.835  0.00  0.00    +0.000 C 
ATOM     14  C   UNL     1       1.111   4.403  20.763  0.00  0.00    +0.000 C 
ENDBRANCH   4   8
ENDBRANCH   1   5
BRANCH   3  15
ATOM     15  C   UNL     1       8.136   7.570  17.397  0.00  0.00    +0.000 C 
BRANCH  15  16
ATOM     16  N   UNL     1       7.938   8.999  17.337  0.00  0.00    +0.000 N 
ATOM     17  C   UNL     1       8.587   9.803  18.249  0.00  0.00    +0.000 C 
ATOM     18  O   UNL     1       9.316   9.367  19.135  0.00  0.00    +0.000 OA
ATOM     19  H   UNL     1       7.423   9.398  16.565  0.00  0.00    +0.000 HD
BRANCH  17  20
ATOM     20  C   UNL     1       8.336  11.254  18.060  0.00  0.00    +0.000 C 
ATOM     21  C   UNL     1       9.383  12.091  18.002  0.00  0.00    +0.000 C 
ATOM     22  C   UNL     1       9.499  13.606  17.853  0.00  0.00    +0.000 C 
ATOM     23  C   UNL     1      11.020  13.286  17.935  0.00  0.00    +0.000 C 
ATOM     24  O   UNL     1      12.067  13.893  17.914  0.00  0.00    +0.000 OA
ATOM     25  N   UNL     1      10.752  11.959  18.052  0.00  0.00    +0.000 N 
ATOM     26  H   UNL     1      11.332  11.139  18.166  0.00  0.00    +0.000 HD
ENDBRANCH  17  20
ENDBRANCH  15  16
ENDBRANCH   3  15
TORSDOF 5
ENDMDL
MODEL 9
REMARK VINA RESULT:      -7.4      7.031      9.892
REMARK  Name = 
REMARK  9 active torsions:
REMARK  status: ('A' for Active; 'I' for Inactive)
REMARK    1  A    between atoms: C_1  and  C_2
REMARK    2  A    between atoms: C_3  and  C_4
REMARK    3  A    between atoms: C_5  and  C_6
REMARK    4  A    between atoms: C_6  and  C_7
REMARK    5  A    between atoms: C_8  and  C_9
REMARK    6  A    between atoms: C_9  and  N_10
REMARK    7  A    between atoms: C_11  and  C_13
REMARK    8  A    between atoms: C_19  and  C_20
REMARK    9  A    between atoms: C_19  and  C_21
REMARK                            x       y       z     vdW  Elec       q    Type
REMARK                         _______ _______ _______ _____ _____    ______ ____
ROOT
ATOM      1  C   UNL     1       7.927   8.254  18.014  0.00  0.00    +0.000 C 
ATOM      2  C   UNL     1       8.451   7.332  19.090  0.00  0.00    +0.000 C 
ATOM      3  C   UNL     1       6.947   7.820  17.183  0.00  0.00    +0.000 C 
ENDROOT
BRANCH   1   5
ATOM      4  C   UNL     1       8.911  10.427  18.842  0.00  0.00    +0.000 C 
ATOM      5  C   UNL     1       8.490   9.605  17.861  0.00  0.00    +0.000 C 
BRANCH   4   8
ATOM      6  C   UNL     1       7.590  12.496  17.102  0.00  0.00    +0.000 C 
ATOM      7  C   UNL     1       8.887  12.693  17.849  0.00  0.00    +0.000 C 
ATOM      8  C   UNL     1       9.464  11.779  18.671  0.00  0.00    +0.000 C 
ATOM      9  C   UNL     1      10.691  12.138  19.555  0.00  0.00    +0.000 C 
ATOM     10  C   UNL     1      10.493  11.744  21.039  0.00  0.00    +0.000 C 
ATOM     11  C   UNL     1      11.949  11.411  19.031  0.00  0.00    +0.000 C 
ATOM     12  C   UNL     1      10.964  13.670  19.563  0.00  0.00    +0.000 C 
ATOM     13  C   UNL     1      10.865  14.278  18.176  0.00  0.00    +0.000 C 
ATOM     14  C   UNL     1       9.461  14.079  17.628  0.00  0.00    +0.000 C 
ENDBRANCH   4   8
ENDBRANCH   1   5
BRANCH   3  15
ATOM     15  C   UNL     1       6.368   6.431  17.147  0.00  0.00    +0.000 C 
BRANCH  15  16
ATOM     16  N   UNL     1       5.013   6.420  17.649  0.00  0.00    +0.000 N 
ATOM     17  C   UNL     1       4.300   5.242  17.621  0.00  0.00    +0.000 C 
ATOM     18  O   UNL     1       4.746   4.193  17.166  0.00  0.00    +0.000 OA
ATOM     19  H   UNL     1       4.649   7.239  18.116  0.00  0.00    +0.000 HD
BRANCH  17  20
ATOM     20  C   UNL     1       2.937   5.348  18.200  0.00  0.00    +0.000 C 
ATOM     21  C   UNL     1       2.661   4.686  19.334  0.00  0.00    +0.000 C 
ATOM     22  C   UNL     1       1.395   4.543  20.175  0.00  0.00    +0.000 C 
ATOM     23  C   UNL     1       2.326   3.647  21.043  0.00  0.00    +0.000 C 
ATOM     24  O   UNL     1       2.248   2.985  22.053  0.00  0.00    +0.000 OA
ATOM     25  N   UNL     1       3.364   3.880  20.198  0.00  0.00    +0.000 N 
ATOM     26  H   UNL     1       4.324   3.562  20.171  0.00  0.00    +0.000 HD
ENDBRANCH  17  20
ENDBRANCH  15  16
ENDBRANCH   3  15
TORSDOF 5
ENDMDL
