MODEL 1
REMARK VINA RESULT:      -7.1      0.000      0.000
REMARK  Name = 
REMARK  1 active torsions:
REMARK  status: ('A' for Active; 'I' for Inactive)
REMARK    1  A    between atoms: C_1  and  N_2
REMARK                            x       y       z     vdW  Elec       q    Type
REMARK                         _______ _______ _______ _____ _____    ______ ____
ROOT
ATOM      1  C   UNL     1       0.911   3.566  19.919  0.00  0.00    +0.000 C 
ATOM      2  N   UNL     1       1.881   2.491  19.767  0.00  0.00    +0.000 NA
ATOM      3  C   UNL     1       3.200   2.837  20.383  0.00  0.00    +0.000 C 
ATOM      4  C   UNL     1       4.208   2.553  19.244  0.00  0.00    +0.000 C 
ATOM      5  C   UNL     1       3.506   1.381  18.552  0.00  0.00    +0.000 C 
ATOM      6  C   UNL     1       2.220   2.183  18.344  0.00  0.00    +0.000 C 
ATOM      7  C   UNL     1       2.786   3.400  17.545  0.00  0.00    +0.000 C 
ATOM      8  N   UNL     1       4.063   3.613  18.225  0.00  0.00    +0.000 N 
ATOM      9  C   UNL     1       4.907   4.669  18.096  0.00  0.00    +0.000 A 
ATOM     10  C   UNL     1       4.618   5.742  17.256  0.00  0.00    +0.000 A 
ATOM     11  C   UNL     1       5.527   6.786  17.095  0.00  0.00    +0.000 A 
ATOM     12  C   UNL     1       6.714   6.715  17.786  0.00  0.00    +0.000 A 
ATOM     13 CL   UNL     1       7.924   7.912  17.621  0.00  0.00    +0.000 Cl
ATOM     14  N   UNL     1       6.999   5.699  18.613  0.00  0.00    +0.000 NA
ATOM     15  N   UNL     1       6.080   4.678  18.769  0.00  0.00    +0.000 NA
ENDROOT
TORSDOF 0
ENDMDL
MODEL 2
REMARK VINA RESULT:      -6.9      2.911      5.433
REMARK  Name = 
REMARK  1 active torsions:
REMARK  status: ('A' for Active; 'I' for Inactive)
REMARK    1  A    between atoms: C_1  and  N_2
REMARK                            x       y       z     vdW  Elec       q    Type
REMARK                         _______ _______ _______ _____ _____    ______ ____
ROOT
ATOM      1  C   UNL     1       6.960   4.904  14.715  0.00  0.00    +0.000 C 
ATOM      2  N   UNL     1       7.518   5.448  15.945  0.00  0.00    +0.000 NA
ATOM      3  C   UNL     1       7.360   4.504  17.095  0.00  0.00    +0.000 C 
ATOM      4  C   UNL     1       6.706   5.383  18.188  0.00  0.00    +0.000 C 
ATOM      5  C   UNL     1       7.341   6.737  17.857  0.00  0.00    +0.000 C 
ATOM      6  C   UNL     1       6.842   6.697  16.411  0.00  0.00    +0.000 C 
ATOM      7  C   UNL     1       5.308   6.538  16.659  0.00  0.00    +0.000 C 
ATOM      8  N   UNL     1       5.301   5.626  17.802  0.00  0.00    +0.000 N 
ATOM      9  C   UNL     1       4.238   4.969  18.335  0.00  0.00    +0.000 A 
ATOM     10  C   UNL     1       2.957   5.089  17.801  0.00  0.00    +0.000 A 
ATOM     11  C   UNL     1       1.873   4.451  18.399  0.00  0.00    +0.000 A 
ATOM     12  C   UNL     1       2.110   3.710  19.532  0.00  0.00    +0.000 A 
ATOM     13 CL   UNL     1       0.846   2.930  20.380  0.00  0.00    +0.000 Cl
ATOM     14  N   UNL     1       3.340   3.567  20.048  0.00  0.00    +0.000 NA
ATOM     15  N   UNL     1       4.406   4.198  19.433  0.00  0.00    +0.000 NA
ENDROOT
TORSDOF 0
ENDMDL
MODEL 3
REMARK VINA RESULT:      -6.6      2.687      3.032
REMARK  Name = 
REMARK  1 active torsions:
REMARK  status: ('A' for Active; 'I' for Inactive)
REMARK    1  A    between atoms: C_1  and  N_2
REMARK                            x       y       z     vdW  Elec       q    Type
REMARK                         _______ _______ _______ _____ _____    ______ ____
ROOT
ATOM      1  C   UNL     1       1.671   4.786  18.147  0.00  0.00    +0.000 C 
ATOM      2  N   UNL     1       2.800   4.575  19.042  0.00  0.00    +0.000 NA
ATOM      3  C   UNL     1       3.901   5.558  18.794  0.00  0.00    +0.000 C 
ATOM      4  C   UNL     1       5.150   4.659  18.634  0.00  0.00    +0.000 C 
ATOM      5  C   UNL     1       4.784   3.520  19.592  0.00  0.00    +0.000 C 
ATOM      6  C   UNL     1       3.462   3.246  18.873  0.00  0.00    +0.000 C 
ATOM      7  C   UNL     1       3.992   2.976  17.427  0.00  0.00    +0.000 C 
ATOM      8  N   UNL     1       5.059   3.972  17.330  0.00  0.00    +0.000 N 
ATOM      9  C   UNL     1       5.746   4.347  16.219  0.00  0.00    +0.000 A 
ATOM     10  C   UNL     1       5.478   3.796  14.969  0.00  0.00    +0.000 A 
ATOM     11  C   UNL     1       6.236   4.154  13.855  0.00  0.00    +0.000 A 
ATOM     12  C   UNL     1       7.255   5.058  14.037  0.00  0.00    +0.000 A 
ATOM     13 CL   UNL     1       8.283   5.527  12.753  0.00  0.00    +0.000 Cl
ATOM     14  N   UNL     1       7.514   5.613  15.231  0.00  0.00    +0.000 NA
ATOM     15  N   UNL     1       6.743   5.255  16.321  0.00  0.00    +0.000 NA
ENDROOT
TORSDOF 0
ENDMDL
MODEL 4
REMARK VINA RESULT:      -6.5      2.828      5.506
REMARK  Name = 
REMARK  1 active torsions:
REMARK  status: ('A' for Active; 'I' for Inactive)
REMARK    1  A    between atoms: C_1  and  N_2
REMARK                            x       y       z     vdW  Elec       q    Type
REMARK                         _______ _______ _______ _____ _____    ______ ____
ROOT
ATOM      1  C   UNL     1       7.505   7.200  17.551  0.00  0.00    +0.000 C 
ATOM      2  N   UNL     1       6.817   6.704  16.367  0.00  0.00    +0.000 NA
ATOM      3  C   UNL     1       5.331   6.828  16.492  0.00  0.00    +0.000 C 
ATOM      4  C   UNL     1       4.826   5.406  16.151  0.00  0.00    +0.000 C 
ATOM      5  C   UNL     1       5.889   4.982  15.132  0.00  0.00    +0.000 C 
ATOM      6  C   UNL     1       7.034   5.248  16.111  0.00  0.00    +0.000 C 
ATOM      7  C   UNL     1       6.601   4.321  17.292  0.00  0.00    +0.000 C 
ATOM      8  N   UNL     1       5.152   4.518  17.285  0.00  0.00    +0.000 N 
ATOM      9  C   UNL     1       4.255   4.119  18.225  0.00  0.00    +0.000 A 
ATOM     10  C   UNL     1       4.650   3.449  19.380  0.00  0.00    +0.000 A 
ATOM     11  C   UNL     1       3.706   2.999  20.301  0.00  0.00    +0.000 A 
ATOM     12  C   UNL     1       2.379   3.232  20.025  0.00  0.00    +0.000 A 
ATOM     13 CL   UNL     1       1.134   2.676  21.057  0.00  0.00    +0.000 Cl
ATOM     14  N   UNL     1       1.983   3.894  18.928  0.00  0.00    +0.000 NA
ATOM     15  N   UNL     1       2.935   4.343  18.032  0.00  0.00    +0.000 NA
ENDROOT
TORSDOF 0
ENDMDL
MODEL 5
REMARK VINA RESULT:      -6.3      2.987      5.321
REMARK  Name = 
REMARK  1 active torsions:
REMARK  status: ('A' for Active; 'I' for Inactive)
REMARK    1  A    between atoms: C_1  and  N_2
REMARK                            x       y       z     vdW  Elec       q    Type
REMARK                         _______ _______ _______ _____ _____    ______ ____
ROOT
ATOM      1  C   UNL     1       5.589   5.797  14.916  0.00  0.00    +0.000 C 
ATOM      2  N   UNL     1       6.650   5.617  15.898  0.00  0.00    +0.000 NA
ATOM      3  C   UNL     1       6.542   4.300  16.602  0.00  0.00    +0.000 C 
ATOM      4  C   UNL     1       6.598   4.692  18.098  0.00  0.00    +0.000 C 
ATOM      5  C   UNL     1       7.522   5.911  18.020  0.00  0.00    +0.000 C 
ATOM      6  C   UNL     1       6.620   6.619  17.006  0.00  0.00    +0.000 C 
ATOM      7  C   UNL     1       5.280   6.643  17.809  0.00  0.00    +0.000 C 
ATOM      8  N   UNL     1       5.315   5.331  18.454  0.00  0.00    +0.000 N 
ATOM      9  C   UNL     1       4.310   4.707  19.123  0.00  0.00    +0.000 A 
ATOM     10  C   UNL     1       3.050   5.283  19.259  0.00  0.00    +0.000 A 
ATOM     11  C   UNL     1       2.053   4.650  19.999  0.00  0.00    +0.000 A 
ATOM     12  C   UNL     1       2.360   3.447  20.591  0.00  0.00    +0.000 A 
ATOM     13 CL   UNL     1       1.232   2.610  21.566  0.00  0.00    +0.000 Cl
ATOM     14  N   UNL     1       3.563   2.869  20.453  0.00  0.00    +0.000 NA
ATOM     15  N   UNL     1       4.535   3.507  19.704  0.00  0.00    +0.000 NA
ENDROOT
TORSDOF 0
ENDMDL
MODEL 6
REMARK VINA RESULT:      -6.2      2.877      5.516
REMARK  Name = 
REMARK  1 active torsions:
REMARK  status: ('A' for Active; 'I' for Inactive)
REMARK    1  A    between atoms: C_1  and  N_2
REMARK                            x       y       z     vdW  Elec       q    Type
REMARK                         _______ _______ _______ _____ _____    ______ ____
ROOT
ATOM      1  C   UNL     1       6.816   7.899  17.359  0.00  0.00    +0.000 C 
ATOM      2  N   UNL     1       7.452   6.617  17.089  0.00  0.00    +0.000 NA
ATOM      3  C   UNL     1       6.578   5.721  16.269  0.00  0.00    +0.000 C 
ATOM      4  C   UNL     1       6.558   4.404  17.081  0.00  0.00    +0.000 C 
ATOM      5  C   UNL     1       7.965   4.442  17.685  0.00  0.00    +0.000 C 
ATOM      6  C   UNL     1       7.733   5.815  18.318  0.00  0.00    +0.000 C 
ATOM      7  C   UNL     1       6.468   5.504  19.181  0.00  0.00    +0.000 C 
ATOM      8  N   UNL     1       5.728   4.618  18.283  0.00  0.00    +0.000 N 
ATOM      9  C   UNL     1       4.446   4.186  18.413  0.00  0.00    +0.000 A 
ATOM     10  C   UNL     1       3.642   4.582  19.479  0.00  0.00    +0.000 A 
ATOM     11  C   UNL     1       2.350   4.080  19.621  0.00  0.00    +0.000 A 
ATOM     12  C   UNL     1       1.904   3.180  18.682  0.00  0.00    +0.000 A 
ATOM     13 CL   UNL     1       0.357   2.459  18.789  0.00  0.00    +0.000 Cl
ATOM     14  N   UNL     1       2.658   2.804  17.639  0.00  0.00    +0.000 NA
ATOM     15  N   UNL     1       3.934   3.322  17.507  0.00  0.00    +0.000 NA
ENDROOT
TORSDOF 0
ENDMDL
MODEL 7
REMARK VINA RESULT:      -6.2      1.938      2.310
REMARK  Name = 
REMARK  1 active torsions:
REMARK  status: ('A' for Active; 'I' for Inactive)
REMARK    1  A    between atoms: C_1  and  N_2
REMARK                            x       y       z     vdW  Elec       q    Type
REMARK                         _______ _______ _______ _____ _____    ______ ____
ROOT
ATOM      1  C   UNL     1       2.342   3.795  21.706  0.00  0.00    +0.000 C 
ATOM      2  N   UNL     1       1.748   2.886  20.735  0.00  0.00    +0.000 NA
ATOM      3  C   UNL     1       2.787   2.151  19.949  0.00  0.00    +0.000 C 
ATOM      4  C   UNL     1       2.360   2.394  18.481  0.00  0.00    +0.000 C 
ATOM      5  C   UNL     1       0.838   2.453  18.653  0.00  0.00    +0.000 C 
ATOM      6  C   UNL     1       0.928   3.573  19.691  0.00  0.00    +0.000 C 
ATOM      7  C   UNL     1       1.712   4.644  18.867  0.00  0.00    +0.000 C 
ATOM      8  N   UNL     1       2.661   3.800  18.142  0.00  0.00    +0.000 N 
ATOM      9  C   UNL     1       3.740   4.196  17.416  0.00  0.00    +0.000 A 
ATOM     10  C   UNL     1       4.089   5.538  17.292  0.00  0.00    +0.000 A 
ATOM     11  C   UNL     1       5.165   5.924  16.495  0.00  0.00    +0.000 A 
ATOM     12  C   UNL     1       5.860   4.938  15.835  0.00  0.00    +0.000 A 
ATOM     13 CL   UNL     1       7.162   5.301  14.788  0.00  0.00    +0.000 Cl
ATOM     14  N   UNL     1       5.549   3.639  15.960  0.00  0.00    +0.000 NA
ATOM     15  N   UNL     1       4.486   3.275  16.765  0.00  0.00    +0.000 NA
ENDROOT
TORSDOF 0
ENDMDL
MODEL 8
REMARK VINA RESULT:      -6.1      2.461      3.076
REMARK  Name = 
REMARK  1 active torsions:
REMARK  status: ('A' for Active; 'I' for Inactive)
REMARK    1  A    between atoms: C_1  and  N_2
REMARK                            x       y       z     vdW  Elec       q    Type
REMARK                         _______ _______ _______ _____ _____    ______ ____
ROOT
ATOM      1  C   UNL     1       4.460   2.080  20.353  0.00  0.00    +0.000 C 
ATOM      2  N   UNL     1       3.266   2.508  19.637  0.00  0.00    +0.000 NA
ATOM      3  C   UNL     1       3.304   2.103  18.197  0.00  0.00    +0.000 C 
ATOM      4  C   UNL     1       3.006   3.425  17.449  0.00  0.00    +0.000 C 
ATOM      5  C   UNL     1       2.068   4.097  18.457  0.00  0.00    +0.000 C 
ATOM      6  C   UNL     1       3.094   3.992  19.587  0.00  0.00    +0.000 C 
ATOM      7  C   UNL     1       4.293   4.752  18.935  0.00  0.00    +0.000 C 
ATOM      8  N   UNL     1       4.199   4.290  17.551  0.00  0.00    +0.000 N 
ATOM      9  C   UNL     1       5.107   4.460  16.554  0.00  0.00    +0.000 A 
ATOM     10  C   UNL     1       6.313   5.124  16.765  0.00  0.00    +0.000 A 
ATOM     11  C   UNL     1       7.202   5.337  15.714  0.00  0.00    +0.000 A 
ATOM     12  C   UNL     1       6.844   4.878  14.468  0.00  0.00    +0.000 A 
ATOM     13 CL   UNL     1       7.833   5.133  13.096  0.00  0.00    +0.000 Cl
ATOM     14  N   UNL     1       5.696   4.220  14.252  0.00  0.00    +0.000 NA
ATOM     15  N   UNL     1       4.831   4.007  15.311  0.00  0.00    +0.000 NA
ENDROOT
TORSDOF 0
ENDMDL
MODEL 9
REMARK VINA RESULT:      -6.1      2.960      5.397
REMARK  Name = 
REMARK  1 active torsions:
REMARK  status: ('A' for Active; 'I' for Inactive)
REMARK    1  A    between atoms: C_1  and  N_2
REMARK                            x       y       z     vdW  Elec       q    Type
REMARK                         _______ _______ _______ _____ _____    ______ ____
ROOT
ATOM      1  C   UNL     1       7.658   4.489  16.764  0.00  0.00    +0.000 C 
ATOM      2  N   UNL     1       6.830   5.682  16.647  0.00  0.00    +0.000 NA
ATOM      3  C   UNL     1       6.321   6.141  17.977  0.00  0.00    +0.000 C 
ATOM      4  C   UNL     1       4.798   6.282  17.745  0.00  0.00    +0.000 C 
ATOM      5  C   UNL     1       4.790   6.706  16.273  0.00  0.00    +0.000 C 
ATOM      6  C   UNL     1       5.589   5.475  15.841  0.00  0.00    +0.000 C 
ATOM      7  C   UNL     1       4.657   4.344  16.383  0.00  0.00    +0.000 C 
ATOM      8  N   UNL     1       4.219   4.926  17.652  0.00  0.00    +0.000 N 
ATOM      9  C   UNL     1       3.549   4.310  18.661  0.00  0.00    +0.000 A 
ATOM     10  C   UNL     1       3.199   2.964  18.596  0.00  0.00    +0.000 A 
ATOM     11  C   UNL     1       2.460   2.370  19.618  0.00  0.00    +0.000 A 
ATOM     12  C   UNL     1       2.088   3.158  20.682  0.00  0.00    +0.000 A 
ATOM     13 CL   UNL     1       1.135   2.548  21.964  0.00  0.00    +0.000 Cl
ATOM     14  N   UNL     1       2.435   4.451  20.769  0.00  0.00    +0.000 NA
ATOM     15  N   UNL     1       3.178   5.020  19.751  0.00  0.00    +0.000 NA
ENDROOT
TORSDOF 0
ENDMDL
