MODEL 1
REMARK VINA RESULT:      -7.4      0.000      0.000
REMARK  Name = 
REMARK  6 active torsions:
REMARK  status: ('A' for Active; 'I' for Inactive)
REMARK    1  A    between atoms: C_1  and  C_2
REMARK    2  A    between atoms: C_5  and  C_6
REMARK    3  A    between atoms: C_16  and  C_17
REMARK    4  A    between atoms: C_16  and  O_18
REMARK    5  A    between atoms: C_19  and  C_20
REMARK    6  A    between atoms: C_20  and  N_21
REMARK                            x       y       z     vdW  Elec       q    Type
REMARK                         _______ _______ _______ _____ _____    ______ ____
ROOT
ATOM      1  C   UNL     1       1.856   8.348  19.454  0.00  0.00    +0.000 C 
ATOM      2  O   UNL     1       2.127   9.058  18.475  0.00  0.00    +0.000 OA
ATOM      3  N   UNL     1       2.122   6.966  19.441  0.00  0.00    +0.000 N 
ATOM      4  C   UNL     1       2.900   6.404  18.344  0.00  0.00    +0.000 C 
ATOM      5  C   UNL     1       3.746   5.213  18.809  0.00  0.00    +0.000 C 
ATOM      6  C   UNL     1       2.905   4.185  19.602  0.00  0.00    +0.000 C 
ATOM      7  C   UNL     1       2.170   4.899  20.746  0.00  0.00    +0.000 C 
ATOM      8  C   UNL     1       1.294   5.998  20.158  0.00  0.00    +0.000 C 
ATOM      9  C   UNL     1       3.779   2.985  20.082  0.00  0.00    +0.000 C 
ATOM     10  C   UNL     1       3.311   2.190  18.849  0.00  0.00    +0.000 C 
ATOM     11  C   UNL     1       2.065   3.117  18.770  0.00  0.00    +0.000 C 
ATOM     12  C   UNL     1       0.844   2.480  19.434  0.00  0.00    +0.000 C 
ENDROOT
BRANCH   1  17
ATOM     13  C   UNL     1      -0.997  10.337  23.225  0.00  0.00    +0.000 C 
ATOM     14  C   UNL     1      -0.059   9.830  22.203  0.00  0.00    +0.000 A 
ATOM     15  O   UNL     1       1.150   9.526  22.748  0.00  0.00    +0.000 OA
ATOM     16  N   UNL     1       1.984   8.996  21.810  0.00  0.00    +0.000 NA
ATOM     17  C   UNL     1       1.269   8.927  20.678  0.00  0.00    +0.000 A 
ATOM     18  C   UNL     1      -0.042   9.543  20.847  0.00  0.00    +0.000 A 
BRANCH  18  19
ATOM     19  C   UNL     1      -0.980   9.644  19.675  0.00  0.00    +0.000 C 
BRANCH  19  20
ATOM     20  N   UNL     1      -0.853  10.676  18.627  0.00  0.00    +0.000 NA
ATOM     21  C   UNL     1      -1.463  10.141  17.374  0.00  0.00    +0.000 C 
ATOM     22  C   UNL     1      -3.001  10.030  17.417  0.00  0.00    +0.000 C 
ATOM     23  C   UNL     1      -3.659  11.347  17.819  0.00  0.00    +0.000 C 
ATOM     24  C   UNL     1      -2.979  11.973  19.030  0.00  0.00    +0.000 C 
ATOM     25  C   UNL     1      -1.464  11.982  18.872  0.00  0.00    +0.000 C 
ENDBRANCH  19  20
ENDBRANCH  18  19
ENDBRANCH   1  17
BRANCH  11  26
ATOM     26  O   UNL     1       1.674   3.537  17.445  0.00  0.00    +0.000 OA
ATOM     27  H   UNL     1       2.173   2.978  16.826  0.00  0.00    +0.000 HD
ENDBRANCH  11  26
TORSDOF 4
ENDMDL
MODEL 2
REMARK VINA RESULT:      -7.1      0.730      1.249
REMARK  Name = 
REMARK  6 active torsions:
REMARK  status: ('A' for Active; 'I' for Inactive)
REMARK    1  A    between atoms: C_1  and  C_2
REMARK    2  A    between atoms: C_5  and  C_6
REMARK    3  A    between atoms: C_16  and  C_17
REMARK    4  A    between atoms: C_16  and  O_18
REMARK    5  A    between atoms: C_19  and  C_20
REMARK    6  A    between atoms: C_20  and  N_21
REMARK                            x       y       z     vdW  Elec       q    Type
REMARK                         _______ _______ _______ _____ _____    ______ ____
ROOT
ATOM      1  C   UNL     1       1.870   8.351  19.450  0.00  0.00    +0.000 C 
ATOM      2  O   UNL     1       2.141   9.086  18.490  0.00  0.00    +0.000 OA
ATOM      3  N   UNL     1       2.148   6.973  19.407  0.00  0.00    +0.000 N 
ATOM      4  C   UNL     1       2.936   6.442  18.302  0.00  0.00    +0.000 C 
ATOM      5  C   UNL     1       3.789   5.247  18.745  0.00  0.00    +0.000 C 
ATOM      6  C   UNL     1       2.952   4.195  19.509  0.00  0.00    +0.000 C 
ATOM      7  C   UNL     1       2.205   4.876  20.665  0.00  0.00    +0.000 C 
ATOM      8  C   UNL     1       1.323   5.982  20.098  0.00  0.00    +0.000 C 
ATOM      9  C   UNL     1       3.833   2.990  19.966  0.00  0.00    +0.000 C 
ATOM     10  C   UNL     1       3.378   2.221  18.713  0.00  0.00    +0.000 C 
ATOM     11  C   UNL     1       2.125   3.140  18.648  0.00  0.00    +0.000 C 
ATOM     12  C   UNL     1       0.906   2.477  19.291  0.00  0.00    +0.000 C 
ENDROOT
BRANCH   1  17
ATOM     13  C   UNL     1      -0.982  10.371  23.206  0.00  0.00    +0.000 C 
ATOM     14  C   UNL     1      -0.042   9.834  22.201  0.00  0.00    +0.000 A 
ATOM     15  O   UNL     1       1.079   9.333  22.789  0.00  0.00    +0.000 OA
ATOM     16  N   UNL     1       1.907   8.780  21.859  0.00  0.00    +0.000 NA
ATOM     17  C   UNL     1       1.272   8.897  20.684  0.00  0.00    +0.000 A 
ATOM     18  C   UNL     1       0.037   9.661  20.828  0.00  0.00    +0.000 A 
BRANCH  18  19
ATOM     19  C   UNL     1      -0.795   9.977  19.616  0.00  0.00    +0.000 C 
BRANCH  19  20
ATOM     20  N   UNL     1      -0.570  11.168  18.772  0.00  0.00    +0.000 NA
ATOM     21  C   UNL     1      -1.902  11.710  18.371  0.00  0.00    +0.000 C 
ATOM     22  C   UNL     1      -2.686  12.374  19.521  0.00  0.00    +0.000 C 
ATOM     23  C   UNL     1      -1.862  13.441  20.235  0.00  0.00    +0.000 C 
ATOM     24  C   UNL     1      -0.454  12.951  20.553  0.00  0.00    +0.000 C 
ATOM     25  C   UNL     1       0.186  12.282  19.343  0.00  0.00    +0.000 C 
ENDBRANCH  19  20
ENDBRANCH  18  19
ENDBRANCH   1  17
BRANCH  11  26
ATOM     26  O   UNL     1       1.738   3.586  17.330  0.00  0.00    +0.000 OA
ATOM     27  H   UNL     1       1.220   2.863  16.941  0.00  0.00    +0.000 HD
ENDBRANCH  11  26
TORSDOF 4
ENDMDL
MODEL 3
REMARK VINA RESULT:      -6.9      2.246      7.596
REMARK  Name = 
REMARK  6 active torsions:
REMARK  status: ('A' for Active; 'I' for Inactive)
REMARK    1  A    between atoms: C_1  and  C_2
REMARK    2  A    between atoms: C_5  and  C_6
REMARK    3  A    between atoms: C_16  and  C_17
REMARK    4  A    between atoms: C_16  and  O_18
REMARK    5  A    between atoms: C_19  and  C_20
REMARK    6  A    between atoms: C_20  and  N_21
REMARK                            x       y       z     vdW  Elec       q    Type
REMARK                         _______ _______ _______ _____ _____    ______ ____
ROOT
ATOM      1  C   UNL     1       2.699   6.545  19.616  0.00  0.00    +0.000 C 
ATOM      2  O   UNL     1       2.571   5.933  20.685  0.00  0.00    +0.000 OA
ATOM      3  N   UNL     1       2.027   7.762  19.395  0.00  0.00    +0.000 N 
ATOM      4  C   UNL     1       1.332   8.401  20.505  0.00  0.00    +0.000 C 
ATOM      5  C   UNL     1       1.363   9.929  20.381  0.00  0.00    +0.000 C 
ATOM      6  C   UNL     1       0.918  10.402  18.978  0.00  0.00    +0.000 C 
ATOM      7  C   UNL     1       1.750   9.683  17.907  0.00  0.00    +0.000 C 
ATOM      8  C   UNL     1       1.570   8.179  18.069  0.00  0.00    +0.000 C 
ATOM      9  C   UNL     1       0.967  11.957  18.860  0.00  0.00    +0.000 C 
ATOM     10  C   UNL     1      -0.538  11.999  19.187  0.00  0.00    +0.000 C 
ATOM     11  C   UNL     1      -0.647  10.525  18.702  0.00  0.00    +0.000 C 
ATOM     12  C   UNL     1      -1.135  10.443  17.255  0.00  0.00    +0.000 C 
ENDROOT
BRANCH   1  17
ATOM     13  C   UNL     1       4.976   4.355  15.574  0.00  0.00    +0.000 C 
ATOM     14  C   UNL     1       4.454   4.991  16.801  0.00  0.00    +0.000 A 
ATOM     15  O   UNL     1       5.343   5.886  17.312  0.00  0.00    +0.000 OA
ATOM     16  N   UNL     1       4.824   6.514  18.403  0.00  0.00    +0.000 NA
ATOM     17  C   UNL     1       3.579   6.038  18.545  0.00  0.00    +0.000 A 
ATOM     18  C   UNL     1       3.312   4.971  17.587  0.00  0.00    +0.000 A 
BRANCH  18  19
ATOM     19  C   UNL     1       1.997   4.242  17.622  0.00  0.00    +0.000 C 
BRANCH  19  20
ATOM     20  N   UNL     1       1.886   2.792  17.876  0.00  0.00    +0.000 NA
ATOM     21  C   UNL     1       3.183   2.320  18.445  0.00  0.00    +0.000 C 
ATOM     22  C   UNL     1       3.450   2.797  19.887  0.00  0.00    +0.000 C 
ATOM     23  C   UNL     1       2.296   2.461  20.826  0.00  0.00    +0.000 C 
ATOM     24  C   UNL     1       0.947   2.828  20.218  0.00  0.00    +0.000 C 
ATOM     25  C   UNL     1       0.833   2.331  18.782  0.00  0.00    +0.000 C 
ENDBRANCH  19  20
ENDBRANCH  18  19
ENDBRANCH   1  17
BRANCH  11  26
ATOM     26  O   UNL     1      -1.484   9.660  19.498  0.00  0.00    +0.000 OA
ATOM     27  H   UNL     1      -1.537   8.817  19.018  0.00  0.00    +0.000 HD
ENDBRANCH  11  26
TORSDOF 4
ENDMDL
MODEL 4
REMARK VINA RESULT:      -6.7      2.288      7.662
REMARK  Name = 
REMARK  6 active torsions:
REMARK  status: ('A' for Active; 'I' for Inactive)
REMARK    1  A    between atoms: C_1  and  C_2
REMARK    2  A    between atoms: C_5  and  C_6
REMARK    3  A    between atoms: C_16  and  C_17
REMARK    4  A    between atoms: C_16  and  O_18
REMARK    5  A    between atoms: C_19  and  C_20
REMARK    6  A    between atoms: C_20  and  N_21
REMARK                            x       y       z     vdW  Elec       q    Type
REMARK                         _______ _______ _______ _____ _____    ______ ____
ROOT
ATOM      1  C   UNL     1       3.000   6.635  19.167  0.00  0.00    +0.000 C 
ATOM      2  O   UNL     1       2.986   5.873  20.143  0.00  0.00    +0.000 OA
ATOM      3  N   UNL     1       2.218   7.805  19.151  0.00  0.00    +0.000 N 
ATOM      4  C   UNL     1       1.538   8.221  20.371  0.00  0.00    +0.000 C 
ATOM      5  C   UNL     1       1.435   9.748  20.464  0.00  0.00    +0.000 C 
ATOM      6  C   UNL     1       0.871  10.366  19.163  0.00  0.00    +0.000 C 
ATOM      7  C   UNL     1       1.697   9.879  17.964  0.00  0.00    +0.000 C 
ATOM      8  C   UNL     1       1.652   8.357  17.920  0.00  0.00    +0.000 C 
ATOM      9  C   UNL     1       0.784  11.921  19.264  0.00  0.00    +0.000 C 
ATOM     10  C   UNL     1      -0.697  11.782  19.662  0.00  0.00    +0.000 C 
ATOM     11  C   UNL     1      -0.712  10.384  18.979  0.00  0.00    +0.000 C 
ATOM     12  C   UNL     1      -1.275  10.457  17.559  0.00  0.00    +0.000 C 
ENDROOT
BRANCH   1  17
ATOM     13  C   UNL     1       5.855   4.770  15.335  0.00  0.00    +0.000 C 
ATOM     14  C   UNL     1       5.109   5.433  16.423  0.00  0.00    +0.000 A 
ATOM     15  O   UNL     1       4.918   6.755  16.159  0.00  0.00    +0.000 OA
ATOM     16  N   UNL     1       4.171   7.340  17.137  0.00  0.00    +0.000 NA
ATOM     17  C   UNL     1       3.856   6.360  17.996  0.00  0.00    +0.000 A 
ATOM     18  C   UNL     1       4.518   5.112  17.635  0.00  0.00    +0.000 A 
BRANCH  18  19
ATOM     19  C   UNL     1       4.362   3.899  18.511  0.00  0.00    +0.000 C 
BRANCH  19  20
ATOM     20  N   UNL     1       3.629   2.689  18.090  0.00  0.00    +0.000 NA
ATOM     21  C   UNL     1       3.314   1.889  19.310  0.00  0.00    +0.000 C 
ATOM     22  C   UNL     1       2.236   2.519  20.216  0.00  0.00    +0.000 C 
ATOM     23  C   UNL     1       0.963   2.852  19.446  0.00  0.00    +0.000 C 
ATOM     24  C   UNL     1       1.265   3.569  18.135  0.00  0.00    +0.000 C 
ATOM     25  C   UNL     1       2.373   2.864  17.361  0.00  0.00    +0.000 C 
ENDBRANCH  19  20
ENDBRANCH  18  19
ENDBRANCH   1  17
BRANCH  11  26
ATOM     26  O   UNL     1      -1.427   9.347  19.683  0.00  0.00    +0.000 OA
ATOM     27  H   UNL     1      -0.823   9.020  20.370  0.00  0.00    +0.000 HD
ENDBRANCH  11  26
TORSDOF 4
ENDMDL
MODEL 5
REMARK VINA RESULT:      -6.7      0.719      1.236
REMARK  Name = 
REMARK  6 active torsions:
REMARK  status: ('A' for Active; 'I' for Inactive)
REMARK    1  A    between atoms: C_1  and  C_2
REMARK    2  A    between atoms: C_5  and  C_6
REMARK    3  A    between atoms: C_16  and  C_17
REMARK    4  A    between atoms: C_16  and  O_18
REMARK    5  A    between atoms: C_19  and  C_20
REMARK    6  A    between atoms: C_20  and  N_21
REMARK                            x       y       z     vdW  Elec       q    Type
REMARK                         _______ _______ _______ _____ _____    ______ ____
ROOT
ATOM      1  C   UNL     1       2.074   8.033  19.238  0.00  0.00    +0.000 C 
ATOM      2  O   UNL     1       2.380   8.757  18.281  0.00  0.00    +0.000 OA
ATOM      3  N   UNL     1       2.344   6.652  19.216  0.00  0.00    +0.000 N 
ATOM      4  C   UNL     1       3.163   6.107  18.141  0.00  0.00    +0.000 C 
ATOM      5  C   UNL     1       3.993   4.910  18.621  0.00  0.00    +0.000 C 
ATOM      6  C   UNL     1       3.125   3.870  19.367  0.00  0.00    +0.000 C 
ATOM      7  C   UNL     1       2.346   4.566  20.492  0.00  0.00    +0.000 C 
ATOM      8  C   UNL     1       1.490   5.673  19.888  0.00  0.00    +0.000 C 
ATOM      9  C   UNL     1       3.982   2.664  19.862  0.00  0.00    +0.000 C 
ATOM     10  C   UNL     1       3.563   1.886  18.601  0.00  0.00    +0.000 C 
ATOM     11  C   UNL     1       2.318   2.813  18.489  0.00  0.00    +0.000 C 
ATOM     12  C   UNL     1       1.075   2.164  19.098  0.00  0.00    +0.000 C 
ENDROOT
BRANCH   1  17
ATOM     13  C   UNL     1      -0.834  10.215  22.857  0.00  0.00    +0.000 C 
ATOM     14  C   UNL     1       0.119   9.614  21.903  0.00  0.00    +0.000 A 
ATOM     15  O   UNL     1       1.123   8.961  22.550  0.00  0.00    +0.000 OA
ATOM     16  N   UNL     1       1.957   8.354  21.662  0.00  0.00    +0.000 NA
ATOM     17  C   UNL     1       1.441   8.594  20.448  0.00  0.00    +0.000 A 
ATOM     18  C   UNL     1       0.293   9.490  20.533  0.00  0.00    +0.000 A 
BRANCH  18  19
ATOM     19  C   UNL     1      -0.393   9.952  19.277  0.00  0.00    +0.000 C 
BRANCH  19  20
ATOM     20  N   UNL     1      -1.832  10.275  19.217  0.00  0.00    +0.000 NA
ATOM     21  C   UNL     1      -1.969  11.747  19.009  0.00  0.00    +0.000 C 
ATOM     22  C   UNL     1      -1.556  12.227  17.603  0.00  0.00    +0.000 C 
ATOM     23  C   UNL     1      -2.276  11.458  16.500  0.00  0.00    +0.000 C 
ATOM     24  C   UNL     1      -2.251   9.954  16.750  0.00  0.00    +0.000 C 
ATOM     25  C   UNL     1      -2.641   9.625  18.186  0.00  0.00    +0.000 C 
ENDBRANCH  19  20
ENDBRANCH  18  19
ENDBRANCH   1  17
BRANCH  11  26
ATOM     26  O   UNL     1       1.977   3.251  17.156  0.00  0.00    +0.000 OA
ATOM     27  H   UNL     1       1.126   3.712  17.232  0.00  0.00    +0.000 HD
ENDBRANCH  11  26
TORSDOF 4
ENDMDL
MODEL 6
REMARK VINA RESULT:      -6.6      0.811      1.574
REMARK  Name = 
REMARK  6 active torsions:
REMARK  status: ('A' for Active; 'I' for Inactive)
REMARK    1  A    between atoms: C_1  and  C_2
REMARK    2  A    between atoms: C_5  and  C_6
REMARK    3  A    between atoms: C_16  and  C_17
REMARK    4  A    between atoms: C_16  and  O_18
REMARK    5  A    between atoms: C_19  and  C_20
REMARK    6  A    between atoms: C_20  and  N_21
REMARK                            x       y       z     vdW  Elec       q    Type
REMARK                         _______ _______ _______ _____ _____    ______ ____
ROOT
ATOM      1  C   UNL     1       1.828   8.381  19.566  0.00  0.00    +0.000 C 
ATOM      2  O   UNL     1       2.102   9.131  18.620  0.00  0.00    +0.000 OA
ATOM      3  N   UNL     1       2.105   7.003  19.500  0.00  0.00    +0.000 N 
ATOM      4  C   UNL     1       2.897   6.491  18.390  0.00  0.00    +0.000 C 
ATOM      5  C   UNL     1       3.747   5.287  18.814  0.00  0.00    +0.000 C 
ATOM      6  C   UNL     1       2.907   4.223  19.558  0.00  0.00    +0.000 C 
ATOM      7  C   UNL     1       2.155   4.885  20.722  0.00  0.00    +0.000 C 
ATOM      8  C   UNL     1       1.277   6.001  20.171  0.00  0.00    +0.000 C 
ATOM      9  C   UNL     1       3.785   3.010  19.997  0.00  0.00    +0.000 C 
ATOM     10  C   UNL     1       3.334   2.263  18.729  0.00  0.00    +0.000 C 
ATOM     11  C   UNL     1       2.082   3.184  18.675  0.00  0.00    +0.000 C 
ATOM     12  C   UNL     1       0.860   2.511  19.302  0.00  0.00    +0.000 C 
ENDROOT
BRANCH   1  17
ATOM     13  C   UNL     1      -1.010  10.406  23.329  0.00  0.00    +0.000 C 
ATOM     14  C   UNL     1      -0.075   9.855  22.329  0.00  0.00    +0.000 A 
ATOM     15  O   UNL     1       0.990   9.251  22.924  0.00  0.00    +0.000 OA
ATOM     16  N   UNL     1       1.810   8.689  21.994  0.00  0.00    +0.000 NA
ATOM     17  C   UNL     1       1.225   8.906  20.807  0.00  0.00    +0.000 A 
ATOM     18  C   UNL     1       0.040   9.744  20.952  0.00  0.00    +0.000 A 
BRANCH  18  19
ATOM     19  C   UNL     1      -0.727  10.175  19.731  0.00  0.00    +0.000 C 
BRANCH  19  20
ATOM     20  N   UNL     1      -1.685  11.299  19.737  0.00  0.00    +0.000 NA
ATOM     21  C   UNL     1      -1.039  12.456  20.424  0.00  0.00    +0.000 C 
ATOM     22  C   UNL     1       0.099  13.114  19.618  0.00  0.00    +0.000 C 
ATOM     23  C   UNL     1      -0.346  13.502  18.211  0.00  0.00    +0.000 C 
ATOM     24  C   UNL     1      -1.111  12.375  17.528  0.00  0.00    +0.000 C 
ATOM     25  C   UNL     1      -2.175  11.791  18.450  0.00  0.00    +0.000 C 
ENDBRANCH  19  20
ENDBRANCH  18  19
ENDBRANCH   1  17
BRANCH  11  26
ATOM     26  O   UNL     1       1.701   3.653  17.364  0.00  0.00    +0.000 OA
ATOM     27  H   UNL     1       1.523   2.859  16.834  0.00  0.00    +0.000 HD
ENDBRANCH  11  26
TORSDOF 4
ENDMDL
MODEL 7
REMARK VINA RESULT:      -6.6      2.281      7.609
REMARK  Name = 
REMARK  6 active torsions:
REMARK  status: ('A' for Active; 'I' for Inactive)
REMARK    1  A    between atoms: C_1  and  C_2
REMARK    2  A    between atoms: C_5  and  C_6
REMARK    3  A    between atoms: C_16  and  C_17
REMARK    4  A    between atoms: C_16  and  O_18
REMARK    5  A    between atoms: C_19  and  C_20
REMARK    6  A    between atoms: C_20  and  N_21
REMARK                            x       y       z     vdW  Elec       q    Type
REMARK                         _______ _______ _______ _____ _____    ______ ____
ROOT
ATOM      1  C   UNL     1       2.558   7.528  18.664  0.00  0.00    +0.000 C 
ATOM      2  O   UNL     1       3.385   7.611  17.745  0.00  0.00    +0.000 OA
ATOM      3  N   UNL     1       1.696   8.600  18.960  0.00  0.00    +0.000 N 
ATOM      4  C   UNL     1       1.645   9.740  18.055  0.00  0.00    +0.000 C 
ATOM      5  C   UNL     1       0.245  10.366  18.018  0.00  0.00    +0.000 C 
ATOM      6  C   UNL     1      -0.300  10.640  19.439  0.00  0.00    +0.000 C 
ATOM      7  C   UNL     1      -0.225   9.353  20.273  0.00  0.00    +0.000 C 
ATOM      8  C   UNL     1       1.222   8.877  20.316  0.00  0.00    +0.000 C 
ATOM      9  C   UNL     1      -1.730  11.262  19.389  0.00  0.00    +0.000 C 
ATOM     10  C   UNL     1      -1.094  12.658  19.527  0.00  0.00    +0.000 C 
ATOM     11  C   UNL     1       0.158  11.985  20.160  0.00  0.00    +0.000 C 
ATOM     12  C   UNL     1       0.115  12.039  21.687  0.00  0.00    +0.000 C 
ENDROOT
BRANCH   1  17
ATOM     13  C   UNL     1       2.680   2.863  20.794  0.00  0.00    +0.000 C 
ATOM     14  C   UNL     1       2.515   4.225  20.250  0.00  0.00    +0.000 A 
ATOM     15  O   UNL     1       1.920   5.052  21.153  0.00  0.00    +0.000 OA
ATOM     16  N   UNL     1       1.835   6.321  20.666  0.00  0.00    +0.000 NA
ATOM     17  C   UNL     1       2.426   6.294  19.463  0.00  0.00    +0.000 A 
ATOM     18  C   UNL     1       2.806   4.935  19.095  0.00  0.00    +0.000 A 
BRANCH  18  19
ATOM     19  C   UNL     1       3.418   4.666  17.747  0.00  0.00    +0.000 C 
BRANCH  19  20
ATOM     20  N   UNL     1       4.715   3.982  17.573  0.00  0.00    +0.000 NA
ATOM     21  C   UNL     1       5.146   4.161  16.154  0.00  0.00    +0.000 C 
ATOM     22  C   UNL     1       5.581   5.597  15.803  0.00  0.00    +0.000 C 
ATOM     23  C   UNL     1       6.646   6.124  16.760  0.00  0.00    +0.000 C 
ATOM     24  C   UNL     1       6.285   5.850  18.215  0.00  0.00    +0.000 C 
ATOM     25  C   UNL     1       5.835   4.407  18.412  0.00  0.00    +0.000 C 
ENDBRANCH  19  20
ENDBRANCH  18  19
ENDBRANCH   1  17
BRANCH  11  26
ATOM     26  O   UNL     1       1.435  12.508  19.737  0.00  0.00    +0.000 OA
ATOM     27  H   UNL     1       1.594  12.149  18.849  0.00  0.00    +0.000 HD
ENDBRANCH  11  26
TORSDOF 4
ENDMDL
MODEL 8
REMARK VINA RESULT:      -6.6      2.400      7.760
REMARK  Name = 
REMARK  6 active torsions:
REMARK  status: ('A' for Active; 'I' for Inactive)
REMARK    1  A    between atoms: C_1  and  C_2
REMARK    2  A    between atoms: C_5  and  C_6
REMARK    3  A    between atoms: C_16  and  C_17
REMARK    4  A    between atoms: C_16  and  O_18
REMARK    5  A    between atoms: C_19  and  C_20
REMARK    6  A    between atoms: C_20  and  N_21
REMARK                            x       y       z     vdW  Elec       q    Type
REMARK                         _______ _______ _______ _____ _____    ______ ____
ROOT
ATOM      1  C   UNL     1       2.923   7.148  18.090  0.00  0.00    +0.000 C 
ATOM      2  O   UNL     1       3.729   7.399  17.183  0.00  0.00    +0.000 OA
ATOM      3  N   UNL     1       2.059   8.143  18.585  0.00  0.00    +0.000 N 
ATOM      4  C   UNL     1       1.978   9.421  17.891  0.00  0.00    +0.000 C 
ATOM      5  C   UNL     1       0.573  10.027  17.991  0.00  0.00    +0.000 C 
ATOM      6  C   UNL     1       0.057  10.045  19.449  0.00  0.00    +0.000 C 
ATOM      7  C   UNL     1       0.162   8.635  20.047  0.00  0.00    +0.000 C 
ATOM      8  C   UNL     1       1.613   8.176  19.977  0.00  0.00    +0.000 C 
ATOM      9  C   UNL     1      -1.379  10.650  19.537  0.00  0.00    +0.000 C 
ATOM     10  C   UNL     1      -0.752  12.009  19.900  0.00  0.00    +0.000 C 
ATOM     11  C   UNL     1       0.520  11.252  20.381  0.00  0.00    +0.000 C 
ATOM     12  C   UNL     1       0.511  11.042  21.896  0.00  0.00    +0.000 C 
ENDROOT
BRANCH   1  17
ATOM     13  C   UNL     1       3.385   2.654  20.520  0.00  0.00    +0.000 C 
ATOM     14  C   UNL     1       3.165   3.878  19.723  0.00  0.00    +0.000 A 
ATOM     15  O   UNL     1       1.903   3.919  19.215  0.00  0.00    +0.000 OA
ATOM     16  N   UNL     1       1.691   5.082  18.539  0.00  0.00    +0.000 NA
ATOM     17  C   UNL     1       2.820   5.794  18.667  0.00  0.00    +0.000 A 
ATOM     18  C   UNL     1       3.853   5.022  19.349  0.00  0.00    +0.000 A 
BRANCH  18  19
ATOM     19  C   UNL     1       5.228   5.605  19.531  0.00  0.00    +0.000 C 
BRANCH  19  20
ATOM     20  N   UNL     1       6.458   4.921  19.085  0.00  0.00    +0.000 NA
ATOM     21  C   UNL     1       6.271   4.510  17.663  0.00  0.00    +0.000 C 
ATOM     22  C   UNL     1       6.271   5.683  16.661  0.00  0.00    +0.000 C 
ATOM     23  C   UNL     1       7.508   6.563  16.810  0.00  0.00    +0.000 C 
ATOM     24  C   UNL     1       7.789   6.903  18.269  0.00  0.00    +0.000 C 
ATOM     25  C   UNL     1       7.718   5.662  19.150  0.00  0.00    +0.000 C 
ENDBRANCH  19  20
ENDBRANCH  18  19
ENDBRANCH   1  17
BRANCH  11  26
ATOM     26  O   UNL     1       1.783  11.855  20.029  0.00  0.00    +0.000 OA
ATOM     27  H   UNL     1       1.996  11.536  19.137  0.00  0.00    +0.000 HD
ENDBRANCH  11  26
TORSDOF 4
ENDMDL
MODEL 9
REMARK VINA RESULT:      -6.5      2.142      7.765
REMARK  Name = 
REMARK  6 active torsions:
REMARK  status: ('A' for Active; 'I' for Inactive)
REMARK    1  A    between atoms: C_1  and  C_2
REMARK    2  A    between atoms: C_5  and  C_6
REMARK    3  A    between atoms: C_16  and  C_17
REMARK    4  A    between atoms: C_16  and  O_18
REMARK    5  A    between atoms: C_19  and  C_20
REMARK    6  A    between atoms: C_20  and  N_21
REMARK                            x       y       z     vdW  Elec       q    Type
REMARK                         _______ _______ _______ _____ _____    ______ ____
ROOT
ATOM      1  C   UNL     1       2.202   7.317  19.573  0.00  0.00    +0.000 C 
ATOM      2  O   UNL     1       1.967   6.549  20.516  0.00  0.00    +0.000 OA
ATOM      3  N   UNL     1       1.638   8.605  19.531  0.00  0.00    +0.000 N 
ATOM      4  C   UNL     1       0.931   9.108  20.701  0.00  0.00    +0.000 C 
ATOM      5  C   UNL     1       1.084  10.628  20.840  0.00  0.00    +0.000 C 
ATOM      6  C   UNL     1       0.757  11.361  19.518  0.00  0.00    +0.000 C 
ATOM      7  C   UNL     1       1.593  10.762  18.379  0.00  0.00    +0.000 C 
ATOM      8  C   UNL     1       1.291   9.272  18.277  0.00  0.00    +0.000 C 
ATOM      9  C   UNL     1       0.929  12.905  19.667  0.00  0.00    +0.000 C 
ATOM     10  C   UNL     1      -0.584  13.019  19.930  0.00  0.00    +0.000 C 
ATOM     11  C   UNL     1      -0.775  11.659  19.198  0.00  0.00    +0.000 C 
ATOM     12  C   UNL     1      -1.184  11.858  17.738  0.00  0.00    +0.000 C 
ENDROOT
BRANCH   1  17
ATOM     13  C   UNL     1       5.294   5.080  16.144  0.00  0.00    +0.000 C 
ATOM     14  C   UNL     1       4.468   5.852  17.094  0.00  0.00    +0.000 A 
ATOM     15  O   UNL     1       4.156   7.080  16.595  0.00  0.00    +0.000 OA
ATOM     16  N   UNL     1       3.338   7.756  17.450  0.00  0.00    +0.000 NA
ATOM     17  C   UNL     1       3.102   6.920  18.472  0.00  0.00    +0.000 A 
ATOM     18  C   UNL     1       3.887   5.698  18.343  0.00  0.00    +0.000 A 
BRANCH  18  19
ATOM     19  C   UNL     1       3.832   4.654  19.424  0.00  0.00    +0.000 C 
BRANCH  19  20
ATOM     20  N   UNL     1       3.369   3.271  19.187  0.00  0.00    +0.000 NA
ATOM     21  C   UNL     1       3.526   2.506  20.459  0.00  0.00    +0.000 C 
ATOM     22  C   UNL     1       2.529   2.907  21.564  0.00  0.00    +0.000 C 
ATOM     23  C   UNL     1       1.083   2.856  21.078  0.00  0.00    +0.000 C 
ATOM     24  C   UNL     1       0.918   3.532  19.723  0.00  0.00    +0.000 C 
ATOM     25  C   UNL     1       1.990   3.075  18.741  0.00  0.00    +0.000 C 
ENDBRANCH  19  20
ENDBRANCH  18  19
ENDBRANCH   1  17
BRANCH  11  26
ATOM     26  O   UNL     1      -1.720  10.748  19.799  0.00  0.00    +0.000 OA
ATOM     27  H   UNL     1      -2.477  11.289  20.080  0.00  0.00    +0.000 HD
ENDBRANCH  11  26
TORSDOF 4
ENDMDL
