MODEL 1
REMARK VINA RESULT:      -7.7      0.000      0.000
REMARK  Name = 
REMARK  8 active torsions:
REMARK  status: ('A' for Active; 'I' for Inactive)
REMARK    1  A    between atoms: C_1  and  C_2
REMARK    2  A    between atoms: N_4  and  C_5
REMARK    3  A    between atoms: N_4  and  C_23
REMARK    4  A    between atoms: C_5  and  C_6
REMARK    5  A    between atoms: N_14  and  C1*_15
REMARK    6  A    between atoms: C3*_17  and  O3*_18
REMARK    7  A    between atoms: C4*_19  and  C5*_20
REMARK    8  A    between atoms: C5*_20  and  O5*_21
REMARK                            x       y       z     vdW  Elec       q    Type
REMARK                         _______ _______ _______ _____ _____    ______ ____
ROOT
ATOM      1  C   UNL     1       2.607   6.540  18.891  0.00  0.00    +0.000 A 
ATOM      2  N   UNL     1       2.194   6.054  20.111  0.00  0.00    +0.000 NA
ATOM      3  C   UNL     1       1.598   6.891  20.986  0.00  0.00    +0.000 A 
ATOM      4  N   UNL     1       1.250   8.176  20.796  0.00  0.00    +0.000 NA
ATOM      5  C   UNL     1       1.598   8.591  19.567  0.00  0.00    +0.000 A 
ATOM      6  C   UNL     1       2.279   7.875  18.590  0.00  0.00    +0.000 A 
ATOM      7  N   UNL     1       2.450   8.648  17.464  0.00  0.00    +0.000 NA
ATOM      8  C   UNL     1       1.858   9.797  17.742  0.00  0.00    +0.000 A 
ATOM      9  N   UNL     1       1.311   9.800  18.993  0.00  0.00    +0.000 N 
ENDROOT
BRANCH   9  10
ATOM     10  C1* UNL     1       0.483  10.828  19.588  0.00  0.00    +0.000 C 
ATOM     11  C2* UNL     1       0.720  12.228  19.046  0.00  0.00    +0.000 C 
ATOM     12  C3* UNL     1      -0.629  12.880  19.253  0.00  0.00    +0.000 C 
ATOM     13  C4* UNL     1      -1.610  11.738  19.008  0.00  0.00    +0.000 C 
ATOM     14  O4* UNL     1      -0.912  10.517  19.363  0.00  0.00    +0.000 OA
BRANCH  12  15
ATOM     15  O3* UNL     1      -0.708  13.362  20.596  0.00  0.00    +0.000 OA
ATOM     16  H3* UNL     1      -0.196  14.185  20.683  0.00  0.00    +0.000 HD
ENDBRANCH  12  15
BRANCH  13  17
ATOM     17  C5* UNL     1      -2.036  11.629  17.542  0.00  0.00    +0.000 C 
BRANCH  17  18
ATOM     18  O5* UNL     1      -1.576  10.400  16.986  0.00  0.00    +0.000 OA
ATOM     19  H5* UNL     1      -2.363   9.920  16.666  0.00  0.00    +0.000 HD
ENDBRANCH  17  18
ENDBRANCH  13  17
ENDBRANCH   9  10
BRANCH   1  20
ATOM     20  C   UNL     1       3.216   5.567  17.909  0.00  0.00    +0.000 C 
BRANCH  20  24
ATOM     21  C   UNL     1       6.020   6.437  17.918  0.00  0.00    +0.000 C 
ATOM     22  C   UNL     1       5.624   5.004  18.219  0.00  0.00    +0.000 C 
ATOM     23  O   UNL     1       6.585   4.234  18.329  0.00  0.00    +0.000 OA
ATOM     24  N   UNL     1       4.271   4.602  18.331  0.00  0.00    +0.000 N 
BRANCH  24  25
ATOM     25  C   UNL     1       3.956   3.122  18.196  0.00  0.00    +0.000 C 
ATOM     26  C   UNL     1       3.933   2.261  19.490  0.00  0.00    +0.000 C 
ATOM     27  C   UNL     1       2.783   2.660  20.419  0.00  0.00    +0.000 C 
ATOM     28  C   UNL     1       1.431   2.520  19.726  0.00  0.00    +0.000 C 
ATOM     29  C   UNL     1       1.412   3.201  18.361  0.00  0.00    +0.000 C 
ATOM     30  C   UNL     1       2.610   2.772  17.519  0.00  0.00    +0.000 C 
ENDBRANCH  24  25
ENDBRANCH  20  24
ENDBRANCH   1  20
TORSDOF 7
ENDMDL
MODEL 2
REMARK VINA RESULT:      -7.7      1.355      1.972
REMARK  Name = 
REMARK  8 active torsions:
REMARK  status: ('A' for Active; 'I' for Inactive)
REMARK    1  A    between atoms: C_1  and  C_2
REMARK    2  A    between atoms: N_4  and  C_5
REMARK    3  A    between atoms: N_4  and  C_23
REMARK    4  A    between atoms: C_5  and  C_6
REMARK    5  A    between atoms: N_14  and  C1*_15
REMARK    6  A    between atoms: C3*_17  and  O3*_18
REMARK    7  A    between atoms: C4*_19  and  C5*_20
REMARK    8  A    between atoms: C5*_20  and  O5*_21
REMARK                            x       y       z     vdW  Elec       q    Type
REMARK                         _______ _______ _______ _____ _____    ______ ____
ROOT
ATOM      1  C   UNL     1       2.508   6.569  18.943  0.00  0.00    +0.000 A 
ATOM      2  N   UNL     1       2.069   6.086  20.155  0.00  0.00    +0.000 NA
ATOM      3  C   UNL     1       1.522   6.941  21.045  0.00  0.00    +0.000 A 
ATOM      4  N   UNL     1       1.249   8.247  20.877  0.00  0.00    +0.000 NA
ATOM      5  C   UNL     1       1.620   8.662  19.655  0.00  0.00    +0.000 A 
ATOM      6  C   UNL     1       2.258   7.925  18.666  0.00  0.00    +0.000 A 
ATOM      7  N   UNL     1       2.473   8.707  17.553  0.00  0.00    +0.000 NA
ATOM      8  C   UNL     1       1.948   9.883  17.851  0.00  0.00    +0.000 A 
ATOM      9  N   UNL     1       1.402   9.895  19.102  0.00  0.00    +0.000 N 
ENDROOT
BRANCH   9  10
ATOM     10  C1* UNL     1       0.635  10.959  19.717  0.00  0.00    +0.000 C 
ATOM     11  C2* UNL     1      -0.871  10.769  19.665  0.00  0.00    +0.000 C 
ATOM     12  C3* UNL     1      -1.329  11.526  20.891  0.00  0.00    +0.000 C 
ATOM     13  C4* UNL     1      -0.204  11.280  21.893  0.00  0.00    +0.000 C 
ATOM     14  O4* UNL     1       1.001  11.075  21.112  0.00  0.00    +0.000 OA
BRANCH  12  15
ATOM     15  O3* UNL     1      -1.445  12.912  20.562  0.00  0.00    +0.000 OA
ATOM     16  H3* UNL     1      -1.963  13.372  21.246  0.00  0.00    +0.000 HD
ENDBRANCH  12  15
BRANCH  13  17
ATOM     17  C5* UNL     1      -0.435  10.028  22.744  0.00  0.00    +0.000 C 
BRANCH  17  18
ATOM     18  O5* UNL     1       0.747   9.705  23.472  0.00  0.00    +0.000 OA
ATOM     19  H5* UNL     1       0.605   8.826  23.869  0.00  0.00    +0.000 HD
ENDBRANCH  17  18
ENDBRANCH  13  17
ENDBRANCH   9  10
BRANCH   1  20
ATOM     20  C   UNL     1       3.060   5.580  17.944  0.00  0.00    +0.000 C 
BRANCH  20  24
ATOM     21  C   UNL     1       5.850   6.485  17.816  0.00  0.00    +0.000 C 
ATOM     22  C   UNL     1       5.488   5.048  18.139  0.00  0.00    +0.000 C 
ATOM     23  O   UNL     1       6.463   4.291  18.204  0.00  0.00    +0.000 OA
ATOM     24  N   UNL     1       4.147   4.628  18.316  0.00  0.00    +0.000 N 
BRANCH  24  25
ATOM     25  C   UNL     1       3.845   3.145  18.201  0.00  0.00    +0.000 C 
ATOM     26  C   UNL     1       3.869   2.292  19.500  0.00  0.00    +0.000 C 
ATOM     27  C   UNL     1       2.741   2.684  20.459  0.00  0.00    +0.000 C 
ATOM     28  C   UNL     1       1.372   2.525  19.806  0.00  0.00    +0.000 C 
ATOM     29  C   UNL     1       1.306   3.197  18.437  0.00  0.00    +0.000 C 
ATOM     30  C   UNL     1       2.484   2.775  17.564  0.00  0.00    +0.000 C 
ENDBRANCH  24  25
ENDBRANCH  20  24
ENDBRANCH   1  20
TORSDOF 7
ENDMDL
MODEL 3
REMARK VINA RESULT:      -7.5      1.950      3.080
REMARK  Name = 
REMARK  8 active torsions:
REMARK  status: ('A' for Active; 'I' for Inactive)
REMARK    1  A    between atoms: C_1  and  C_2
REMARK    2  A    between atoms: N_4  and  C_5
REMARK    3  A    between atoms: N_4  and  C_23
REMARK    4  A    between atoms: C_5  and  C_6
REMARK    5  A    between atoms: N_14  and  C1*_15
REMARK    6  A    between atoms: C3*_17  and  O3*_18
REMARK    7  A    between atoms: C4*_19  and  C5*_20
REMARK    8  A    between atoms: C5*_20  and  O5*_21
REMARK                            x       y       z     vdW  Elec       q    Type
REMARK                         _______ _______ _______ _____ _____    ______ ____
ROOT
ATOM      1  C   UNL     1       2.502   7.476  19.012  0.00  0.00    +0.000 A 
ATOM      2  N   UNL     1       2.645   8.035  17.762  0.00  0.00    +0.000 NA
ATOM      3  C   UNL     1       1.997   9.184  17.477  0.00  0.00    +0.000 A 
ATOM      4  N   UNL     1       1.265   9.949  18.307  0.00  0.00    +0.000 NA
ATOM      5  C   UNL     1       1.215   9.412  19.536  0.00  0.00    +0.000 A 
ATOM      6  C   UNL     1       1.763   8.207  19.959  0.00  0.00    +0.000 A 
ATOM      7  N   UNL     1       1.493   8.004  21.294  0.00  0.00    +0.000 NA
ATOM      8  C   UNL     1       0.823   9.077  21.678  0.00  0.00    +0.000 A 
ATOM      9  N   UNL     1       0.651   9.964  20.655  0.00  0.00    +0.000 N 
ENDROOT
BRANCH   9  10
ATOM     10  C1* UNL     1       0.081  11.293  20.730  0.00  0.00    +0.000 C 
ATOM     11  C2* UNL     1      -1.339  11.407  20.200  0.00  0.00    +0.000 C 
ATOM     12  C3* UNL     1      -1.886  12.564  21.006  0.00  0.00    +0.000 C 
ATOM     13  C4* UNL     1      -1.209  12.394  22.362  0.00  0.00    +0.000 C 
ATOM     14  O4* UNL     1       0.055  11.731  22.108  0.00  0.00    +0.000 OA
BRANCH  12  15
ATOM     15  O3* UNL     1      -1.502  13.788  20.376  0.00  0.00    +0.000 OA
ATOM     16  H3* UNL     1      -0.558  13.759  20.144  0.00  0.00    +0.000 HD
ENDBRANCH  12  15
BRANCH  13  17
ATOM     17  C5* UNL     1      -2.019  11.517  23.321  0.00  0.00    +0.000 C 
BRANCH  17  18
ATOM     18  O5* UNL     1      -3.364  11.981  23.394  0.00  0.00    +0.000 OA
ATOM     19  H5* UNL     1      -3.451  12.705  22.747  0.00  0.00    +0.000 HD
ENDBRANCH  17  18
ENDBRANCH  13  17
ENDBRANCH   9  10
BRANCH   1  20
ATOM     20  C   UNL     1       3.287   6.223  19.322  0.00  0.00    +0.000 C 
BRANCH  20  24
ATOM     21  C   UNL     1       4.659   5.340  16.882  0.00  0.00    +0.000 C 
ATOM     22  C   UNL     1       3.509   4.556  17.482  0.00  0.00    +0.000 C 
ATOM     23  O   UNL     1       3.131   3.610  16.782  0.00  0.00    +0.000 OA
ATOM     24  N   UNL     1       2.917   4.910  18.720  0.00  0.00    +0.000 N 
BRANCH  24  25
ATOM     25  C   UNL     1       1.533   4.366  19.027  0.00  0.00    +0.000 C 
ATOM     26  C   UNL     1       1.268   2.857  18.766  0.00  0.00    +0.000 C 
ATOM     27  C   UNL     1       2.083   1.964  19.706  0.00  0.00    +0.000 C 
ATOM     28  C   UNL     1       1.768   2.260  21.169  0.00  0.00    +0.000 C 
ATOM     29  C   UNL     1       1.843   3.752  21.483  0.00  0.00    +0.000 C 
ATOM     30  C   UNL     1       1.032   4.564  20.478  0.00  0.00    +0.000 C 
ENDBRANCH  24  25
ENDBRANCH  20  24
ENDBRANCH   1  20
TORSDOF 7
ENDMDL
MODEL 4
REMARK VINA RESULT:      -7.5      1.090      2.721
REMARK  Name = 
REMARK  8 active torsions:
REMARK  status: ('A' for Active; 'I' for Inactive)
REMARK    1  A    between atoms: C_1  and  C_2
REMARK    2  A    between atoms: N_4  and  C_5
REMARK    3  A    between atoms: N_4  and  C_23
REMARK    4  A    between atoms: C_5  and  C_6
REMARK    5  A    between atoms: N_14  and  C1*_15
REMARK    6  A    between atoms: C3*_17  and  O3*_18
REMARK    7  A    between atoms: C4*_19  and  C5*_20
REMARK    8  A    between atoms: C5*_20  and  O5*_21
REMARK                            x       y       z     vdW  Elec       q    Type
REMARK                         _______ _______ _______ _____ _____    ______ ____
ROOT
ATOM      1  C   UNL     1       2.421   6.449  19.034  0.00  0.00    +0.000 A 
ATOM      2  N   UNL     1       2.012   6.049  20.287  0.00  0.00    +0.000 NA
ATOM      3  C   UNL     1       1.507   6.966  21.139  0.00  0.00    +0.000 A 
ATOM      4  N   UNL     1       1.249   8.263  20.900  0.00  0.00    +0.000 NA
ATOM      5  C   UNL     1       1.587   8.597  19.644  0.00  0.00    +0.000 A 
ATOM      6  C   UNL     1       2.182   7.790  18.682  0.00  0.00    +0.000 A 
ATOM      7  N   UNL     1       2.374   8.498  17.517  0.00  0.00    +0.000 NA
ATOM      8  C   UNL     1       1.877   9.699  17.759  0.00  0.00    +0.000 A 
ATOM      9  N   UNL     1       1.371   9.798  19.023  0.00  0.00    +0.000 N 
ENDROOT
BRANCH   9  10
ATOM     10  C1* UNL     1       0.640  10.910  19.594  0.00  0.00    +0.000 C 
ATOM     11  C2* UNL     1       0.772  12.216  18.829  0.00  0.00    +0.000 C 
ATOM     12  C3* UNL     1      -0.533  12.908  19.158  0.00  0.00    +0.000 C 
ATOM     13  C4* UNL     1      -1.528  11.755  19.239  0.00  0.00    +0.000 C 
ATOM     14  O4* UNL     1      -0.769  10.587  19.645  0.00  0.00    +0.000 OA
BRANCH  12  15
ATOM     15  O3* UNL     1      -0.398  13.575  20.414  0.00  0.00    +0.000 OA
ATOM     16  H3* UNL     1       0.429  13.300  20.848  0.00  0.00    +0.000 HD
ENDBRANCH  12  15
BRANCH  13  17
ATOM     17  C5* UNL     1      -2.186  11.446  17.891  0.00  0.00    +0.000 C 
BRANCH  17  18
ATOM     18  O5* UNL     1      -1.688  12.327  16.888  0.00  0.00    +0.000 OA
ATOM     19  H5* UNL     1      -0.739  12.459  17.071  0.00  0.00    +0.000 HD
ENDBRANCH  17  18
ENDBRANCH  13  17
ENDBRANCH   9  10
BRANCH   1  20
ATOM     20  C   UNL     1       2.925   5.391  18.081  0.00  0.00    +0.000 C 
BRANCH  20  24
ATOM     21  C   UNL     1       3.039   2.961  19.726  0.00  0.00    +0.000 C 
ATOM     22  C   UNL     1       4.292   3.620  19.181  0.00  0.00    +0.000 C 
ATOM     23  O   UNL     1       5.341   3.121  19.604  0.00  0.00    +0.000 OA
ATOM     24  N   UNL     1       4.241   4.723  18.294  0.00  0.00    +0.000 N 
BRANCH  24  25
ATOM     25  C   UNL     1       5.489   5.577  18.149  0.00  0.00    +0.000 C 
ATOM     26  C   UNL     1       6.823   4.864  17.792  0.00  0.00    +0.000 C 
ATOM     27  C   UNL     1       6.788   4.264  16.384  0.00  0.00    +0.000 C 
ATOM     28  C   UNL     1       6.517   5.331  15.328  0.00  0.00    +0.000 C 
ATOM     29  C   UNL     1       5.310   6.195  15.682  0.00  0.00    +0.000 C 
ATOM     30  C   UNL     1       5.413   6.720  17.110  0.00  0.00    +0.000 C 
ENDBRANCH  24  25
ENDBRANCH  20  24
ENDBRANCH   1  20
TORSDOF 7
ENDMDL
MODEL 5
REMARK VINA RESULT:      -7.5      0.867      1.088
REMARK  Name = 
REMARK  8 active torsions:
REMARK  status: ('A' for Active; 'I' for Inactive)
REMARK    1  A    between atoms: C_1  and  C_2
REMARK    2  A    between atoms: N_4  and  C_5
REMARK    3  A    between atoms: N_4  and  C_23
REMARK    4  A    between atoms: C_5  and  C_6
REMARK    5  A    between atoms: N_14  and  C1*_15
REMARK    6  A    between atoms: C3*_17  and  O3*_18
REMARK    7  A    between atoms: C4*_19  and  C5*_20
REMARK    8  A    between atoms: C5*_20  and  O5*_21
REMARK                            x       y       z     vdW  Elec       q    Type
REMARK                         _______ _______ _______ _____ _____    ______ ____
ROOT
ATOM      1  C   UNL     1       2.188   6.671  19.545  0.00  0.00    +0.000 A 
ATOM      2  N   UNL     1       1.683   6.474  20.810  0.00  0.00    +0.000 NA
ATOM      3  C   UNL     1       1.166   7.522  21.484  0.00  0.00    +0.000 A 
ATOM      4  N   UNL     1       0.981   8.779  21.043  0.00  0.00    +0.000 NA
ATOM      5  C   UNL     1       1.413   8.913  19.779  0.00  0.00    +0.000 A 
ATOM      6  C   UNL     1       2.032   7.953  18.987  0.00  0.00    +0.000 A 
ATOM      7  N   UNL     1       2.328   8.476  17.748  0.00  0.00    +0.000 NA
ATOM      8  C   UNL     1       1.870   9.716  17.779  0.00  0.00    +0.000 A 
ATOM      9  N   UNL     1       1.290  10.016  18.978  0.00  0.00    +0.000 N 
ENDROOT
BRANCH   9  10
ATOM     10  C1* UNL     1       0.575  11.225  19.331  0.00  0.00    +0.000 C 
ATOM     11  C2* UNL     1       0.813  12.400  18.398  0.00  0.00    +0.000 C 
ATOM     12  C3* UNL     1      -0.477  13.177  18.532  0.00  0.00    +0.000 C 
ATOM     13  C4* UNL     1      -1.526  12.084  18.707  0.00  0.00    +0.000 C 
ATOM     14  O4* UNL     1      -0.848  10.963  19.328  0.00  0.00    +0.000 OA
BRANCH  12  15
ATOM     15  O3* UNL     1      -0.394  14.016  19.685  0.00  0.00    +0.000 OA
ATOM     16  H3* UNL     1      -0.524  14.946  19.429  0.00  0.00    +0.000 HD
ENDBRANCH  12  15
BRANCH  13  17
ATOM     17  C5* UNL     1      -2.109  11.605  17.375  0.00  0.00    +0.000 C 
BRANCH  17  18
ATOM     18  O5* UNL     1      -3.480  11.984  17.273  0.00  0.00    +0.000 OA
ATOM     19  H5* UNL     1      -3.503  12.843  16.814  0.00  0.00    +0.000 HD
ENDBRANCH  17  18
ENDBRANCH  13  17
ENDBRANCH   9  10
BRANCH   1  20
ATOM     20  C   UNL     1       2.704   5.468  18.791  0.00  0.00    +0.000 C 
BRANCH  20  24
ATOM     21  C   UNL     1       5.380   6.154  17.794  0.00  0.00    +0.000 C 
ATOM     22  C   UNL     1       5.144   4.964  18.705  0.00  0.00    +0.000 C 
ATOM     23  O   UNL     1       6.143   4.255  18.867  0.00  0.00    +0.000 OA
ATOM     24  N   UNL     1       3.879   4.693  19.283  0.00  0.00    +0.000 N 
BRANCH  24  25
ATOM     25  C   UNL     1       3.622   3.290  19.804  0.00  0.00    +0.000 C 
ATOM     26  C   UNL     1       2.350   3.055  20.665  0.00  0.00    +0.000 C 
ATOM     27  C   UNL     1       1.067   3.238  19.849  0.00  0.00    +0.000 C 
ATOM     28  C   UNL     1       1.023   2.287  18.657  0.00  0.00    +0.000 C 
ATOM     29  C   UNL     1       2.310   2.330  17.839  0.00  0.00    +0.000 C 
ATOM     30  C   UNL     1       3.534   2.174  18.736  0.00  0.00    +0.000 C 
ENDBRANCH  24  25
ENDBRANCH  20  24
ENDBRANCH   1  20
TORSDOF 7
ENDMDL
MODEL 6
REMARK VINA RESULT:      -7.5      1.684      3.321
REMARK  Name = 
REMARK  8 active torsions:
REMARK  status: ('A' for Active; 'I' for Inactive)
REMARK    1  A    between atoms: C_1  and  C_2
REMARK    2  A    between atoms: N_4  and  C_5
REMARK    3  A    between atoms: N_4  and  C_23
REMARK    4  A    between atoms: C_5  and  C_6
REMARK    5  A    between atoms: N_14  and  C1*_15
REMARK    6  A    between atoms: C3*_17  and  O3*_18
REMARK    7  A    between atoms: C4*_19  and  C5*_20
REMARK    8  A    between atoms: C5*_20  and  O5*_21
REMARK                            x       y       z     vdW  Elec       q    Type
REMARK                         _______ _______ _______ _____ _____    ______ ____
ROOT
ATOM      1  C   UNL     1       2.366   6.535  19.043  0.00  0.00    +0.000 A 
ATOM      2  N   UNL     1       1.931   6.101  20.274  0.00  0.00    +0.000 NA
ATOM      3  C   UNL     1       1.431   6.999  21.150  0.00  0.00    +0.000 A 
ATOM      4  N   UNL     1       1.203   8.309  20.951  0.00  0.00    +0.000 NA
ATOM      5  C   UNL     1       1.568   8.678  19.713  0.00  0.00    +0.000 A 
ATOM      6  C   UNL     1       2.161   7.891  18.733  0.00  0.00    +0.000 A 
ATOM      7  N   UNL     1       2.384   8.635  17.596  0.00  0.00    +0.000 NA
ATOM      8  C   UNL     1       1.908   9.837  17.871  0.00  0.00    +0.000 A 
ATOM      9  N   UNL     1       1.385   9.903  19.130  0.00  0.00    +0.000 N 
ENDROOT
BRANCH   9  10
ATOM     10  C1* UNL     1       0.669  11.010  19.728  0.00  0.00    +0.000 C 
ATOM     11  C2* UNL     1      -0.845  10.912  19.636  0.00  0.00    +0.000 C 
ATOM     12  C3* UNL     1      -1.287  11.693  20.853  0.00  0.00    +0.000 C 
ATOM     13  C4* UNL     1      -0.208  11.376  21.883  0.00  0.00    +0.000 C 
ATOM     14  O4* UNL     1       1.003  11.100  21.133  0.00  0.00    +0.000 OA
BRANCH  12  15
ATOM     15  O3* UNL     1      -1.310  13.084  20.526  0.00  0.00    +0.000 OA
ATOM     16  H3* UNL     1      -0.543  13.531  20.926  0.00  0.00    +0.000 HD
ENDBRANCH  12  15
BRANCH  13  17
ATOM     17  C5* UNL     1      -0.537  10.139  22.722  0.00  0.00    +0.000 C 
BRANCH  17  18
ATOM     18  O5* UNL     1       0.596   9.756  23.498  0.00  0.00    +0.000 OA
ATOM     19  H5* UNL     1       1.163  10.545  23.582  0.00  0.00    +0.000 HD
ENDBRANCH  17  18
ENDBRANCH  13  17
ENDBRANCH   9  10
BRANCH   1  20
ATOM     20  C   UNL     1       2.864   5.500  18.061  0.00  0.00    +0.000 C 
BRANCH  20  24
ATOM     21  C   UNL     1       2.948   3.048  19.675  0.00  0.00    +0.000 C 
ATOM     22  C   UNL     1       4.209   3.695  19.134  0.00  0.00    +0.000 C 
ATOM     23  O   UNL     1       5.251   3.176  19.547  0.00  0.00    +0.000 OA
ATOM     24  N   UNL     1       4.171   4.810  18.261  0.00  0.00    +0.000 N 
BRANCH  24  25
ATOM     25  C   UNL     1       5.430   5.647  18.122  0.00  0.00    +0.000 C 
ATOM     26  C   UNL     1       6.762   4.914  17.801  0.00  0.00    +0.000 C 
ATOM     27  C   UNL     1       6.745   4.288  16.404  0.00  0.00    +0.000 C 
ATOM     28  C   UNL     1       6.504   5.338  15.324  0.00  0.00    +0.000 C 
ATOM     29  C   UNL     1       5.301   6.222  15.641  0.00  0.00    +0.000 C 
ATOM     30  C   UNL     1       5.385   6.772  17.061  0.00  0.00    +0.000 C 
ENDBRANCH  24  25
ENDBRANCH  20  24
ENDBRANCH   1  20
TORSDOF 7
ENDMDL
MODEL 7
REMARK VINA RESULT:      -7.5      1.115      1.481
REMARK  Name = 
REMARK  8 active torsions:
REMARK  status: ('A' for Active; 'I' for Inactive)
REMARK    1  A    between atoms: C_1  and  C_2
REMARK    2  A    between atoms: N_4  and  C_5
REMARK    3  A    between atoms: N_4  and  C_23
REMARK    4  A    between atoms: C_5  and  C_6
REMARK    5  A    between atoms: N_14  and  C1*_15
REMARK    6  A    between atoms: C3*_17  and  O3*_18
REMARK    7  A    between atoms: C4*_19  and  C5*_20
REMARK    8  A    between atoms: C5*_20  and  O5*_21
REMARK                            x       y       z     vdW  Elec       q    Type
REMARK                         _______ _______ _______ _____ _____    ______ ____
ROOT
ATOM      1  C   UNL     1       2.512   6.463  18.993  0.00  0.00    +0.000 A 
ATOM      2  N   UNL     1       2.057   6.031  20.218  0.00  0.00    +0.000 NA
ATOM      3  C   UNL     1       1.485   6.919  21.058  0.00  0.00    +0.000 A 
ATOM      4  N   UNL     1       1.199   8.212  20.825  0.00  0.00    +0.000 NA
ATOM      5  C   UNL     1       1.586   8.575  19.592  0.00  0.00    +0.000 A 
ATOM      6  C   UNL     1       2.250   7.801  18.648  0.00  0.00    +0.000 A 
ATOM      7  N   UNL     1       2.475   8.533  17.504  0.00  0.00    +0.000 NA
ATOM      8  C   UNL     1       1.931   9.715  17.738  0.00  0.00    +0.000 A 
ATOM      9  N   UNL     1       1.363   9.779  18.979  0.00  0.00    +0.000 N 
ENDROOT
BRANCH   9  10
ATOM     10  C1* UNL     1       0.573  10.860  19.530  0.00  0.00    +0.000 C 
ATOM     11  C2* UNL     1       1.199  11.559  20.725  0.00  0.00    +0.000 C 
ATOM     12  C3* UNL     1       0.612  12.949  20.622  0.00  0.00    +0.000 C 
ATOM     13  C4* UNL     1       0.519  13.177  19.117  0.00  0.00    +0.000 C 
ATOM     14  O4* UNL     1       0.358  11.867  18.514  0.00  0.00    +0.000 OA
BRANCH  12  15
ATOM     15  O3* UNL     1      -0.679  12.952  21.235  0.00  0.00    +0.000 OA
ATOM     16  H3* UNL     1      -0.660  13.494  22.043  0.00  0.00    +0.000 HD
ENDBRANCH  12  15
BRANCH  13  17
ATOM     17  C5* UNL     1       1.784  13.813  18.535  0.00  0.00    +0.000 C 
BRANCH  17  18
ATOM     18  O5* UNL     1       2.249  13.054  17.422  0.00  0.00    +0.000 OA
ATOM     19  H5* UNL     1       2.478  13.690  16.720  0.00  0.00    +0.000 HD
ENDBRANCH  17  18
ENDBRANCH  13  17
ENDBRANCH   9  10
BRANCH   1  20
ATOM     20  C   UNL     1       3.093   5.435  18.050  0.00  0.00    +0.000 C 
BRANCH  20  24
ATOM     21  C   UNL     1       5.835   6.450  17.782  0.00  0.00    +0.000 C 
ATOM     22  C   UNL     1       5.546   5.026  18.218  0.00  0.00    +0.000 C 
ATOM     23  O   UNL     1       6.556   4.320  18.312  0.00  0.00    +0.000 OA
ATOM     24  N   UNL     1       4.230   4.563  18.461  0.00  0.00    +0.000 N 
BRANCH  24  25
ATOM     25  C   UNL     1       3.993   3.063  18.463  0.00  0.00    +0.000 C 
ATOM     26  C   UNL     1       4.018   2.322  19.829  0.00  0.00    +0.000 C 
ATOM     27  C   UNL     1       2.849   2.741  20.725  0.00  0.00    +0.000 C 
ATOM     28  C   UNL     1       1.506   2.469  20.055  0.00  0.00    +0.000 C 
ATOM     29  C   UNL     1       1.449   3.023  18.634  0.00  0.00    +0.000 C 
ATOM     30  C   UNL     1       2.667   2.583  17.827  0.00  0.00    +0.000 C 
ENDBRANCH  24  25
ENDBRANCH  20  24
ENDBRANCH   1  20
TORSDOF 7
ENDMDL
MODEL 8
REMARK VINA RESULT:      -7.4      1.480      2.432
REMARK  Name = 
REMARK  8 active torsions:
REMARK  status: ('A' for Active; 'I' for Inactive)
REMARK    1  A    between atoms: C_1  and  C_2
REMARK    2  A    between atoms: N_4  and  C_5
REMARK    3  A    between atoms: N_4  and  C_23
REMARK    4  A    between atoms: C_5  and  C_6
REMARK    5  A    between atoms: N_14  and  C1*_15
REMARK    6  A    between atoms: C3*_17  and  O3*_18
REMARK    7  A    between atoms: C4*_19  and  C5*_20
REMARK    8  A    between atoms: C5*_20  and  O5*_21
REMARK                            x       y       z     vdW  Elec       q    Type
REMARK                         _______ _______ _______ _____ _____    ______ ____
ROOT
ATOM      1  C   UNL     1       2.459   7.485  19.071  0.00  0.00    +0.000 A 
ATOM      2  N   UNL     1       2.531   8.075  17.829  0.00  0.00    +0.000 NA
ATOM      3  C   UNL     1       1.834   9.207  17.597  0.00  0.00    +0.000 A 
ATOM      4  N   UNL     1       1.112   9.929  18.472  0.00  0.00    +0.000 NA
ATOM      5  C   UNL     1       1.130   9.363  19.690  0.00  0.00    +0.000 A 
ATOM      6  C   UNL     1       1.735   8.170  20.063  0.00  0.00    +0.000 A 
ATOM      7  N   UNL     1       1.528   7.929  21.403  0.00  0.00    +0.000 NA
ATOM      8  C   UNL     1       0.839   8.970  21.838  0.00  0.00    +0.000 A 
ATOM      9  N   UNL     1       0.595   9.873  20.843  0.00  0.00    +0.000 N 
ENDROOT
BRANCH   9  10
ATOM     10  C1* UNL     1      -0.016  11.180  20.971  0.00  0.00    +0.000 C 
ATOM     11  C2* UNL     1       0.722  12.298  20.255  0.00  0.00    +0.000 C 
ATOM     12  C3* UNL     1      -0.397  13.268  19.945  0.00  0.00    +0.000 C 
ATOM     13  C4* UNL     1      -1.583  12.351  19.663  0.00  0.00    +0.000 C 
ATOM     14  O4* UNL     1      -1.357  11.141  20.430  0.00  0.00    +0.000 OA
BRANCH  12  15
ATOM     15  O3* UNL     1      -0.628  14.089  21.091  0.00  0.00    +0.000 OA
ATOM     16  H3* UNL     1      -0.808  13.530  21.868  0.00  0.00    +0.000 HD
ENDBRANCH  12  15
BRANCH  13  17
ATOM     17  C5* UNL     1      -1.691  11.962  18.186  0.00  0.00    +0.000 C 
BRANCH  17  18
ATOM     18  O5* UNL     1      -0.998  12.908  17.376  0.00  0.00    +0.000 OA
ATOM     19  H5* UNL     1      -0.137  13.071  17.804  0.00  0.00    +0.000 HD
ENDBRANCH  17  18
ENDBRANCH  13  17
ENDBRANCH   9  10
BRANCH   1  20
ATOM     20  C   UNL     1       3.297   6.253  19.320  0.00  0.00    +0.000 C 
BRANCH  20  24
ATOM     21  C   UNL     1       4.667   5.403  16.866  0.00  0.00    +0.000 C 
ATOM     22  C   UNL     1       3.530   4.600  17.469  0.00  0.00    +0.000 C 
ATOM     23  O   UNL     1       3.161   3.654  16.765  0.00  0.00    +0.000 OA
ATOM     24  N   UNL     1       2.941   4.939  18.711  0.00  0.00    +0.000 N 
BRANCH  24  25
ATOM     25  C   UNL     1       1.566   4.375  19.024  0.00  0.00    +0.000 C 
ATOM     26  C   UNL     1       1.319   2.864  18.753  0.00  0.00    +0.000 C 
ATOM     27  C   UNL     1       2.151   1.976  19.681  0.00  0.00    +0.000 C 
ATOM     28  C   UNL     1       1.842   2.256  21.149  0.00  0.00    +0.000 C 
ATOM     29  C   UNL     1       1.900   3.746  21.473  0.00  0.00    +0.000 C 
ATOM     30  C   UNL     1       1.072   4.555  20.479  0.00  0.00    +0.000 C 
ENDBRANCH  24  25
ENDBRANCH  20  24
ENDBRANCH   1  20
TORSDOF 7
ENDMDL
MODEL 9
REMARK VINA RESULT:      -7.4      1.600      2.611
REMARK  Name = 
REMARK  8 active torsions:
REMARK  status: ('A' for Active; 'I' for Inactive)
REMARK    1  A    between atoms: C_1  and  C_2
REMARK    2  A    between atoms: N_4  and  C_5
REMARK    3  A    between atoms: N_4  and  C_23
REMARK    4  A    between atoms: C_5  and  C_6
REMARK    5  A    between atoms: N_14  and  C1*_15
REMARK    6  A    between atoms: C3*_17  and  O3*_18
REMARK    7  A    between atoms: C4*_19  and  C5*_20
REMARK    8  A    between atoms: C5*_20  and  O5*_21
REMARK                            x       y       z     vdW  Elec       q    Type
REMARK                         _______ _______ _______ _____ _____    ______ ____
ROOT
ATOM      1  C   UNL     1       2.747   7.025  19.141  0.00  0.00    +0.000 A 
ATOM      2  N   UNL     1       3.144   7.505  17.913  0.00  0.00    +0.000 NA
ATOM      3  C   UNL     1       2.615   8.659  17.455  0.00  0.00    +0.000 A 
ATOM      4  N   UNL     1       1.782   9.498  18.095  0.00  0.00    +0.000 NA
ATOM      5  C   UNL     1       1.480   9.035  19.319  0.00  0.00    +0.000 A 
ATOM      6  C   UNL     1       1.883   7.837  19.896  0.00  0.00    +0.000 A 
ATOM      7  N   UNL     1       1.363   7.722  21.166  0.00  0.00    +0.000 NA
ATOM      8  C   UNL     1       0.686   8.840  21.364  0.00  0.00    +0.000 A 
ATOM      9  N   UNL     1       0.748   9.672  20.284  0.00  0.00    +0.000 N 
ENDROOT
BRANCH   9  10
ATOM     10  C1* UNL     1       0.238  11.025  20.185  0.00  0.00    +0.000 C 
ATOM     11  C2* UNL     1      -1.210  11.127  19.735  0.00  0.00    +0.000 C 
ATOM     12  C3* UNL     1      -1.652  12.420  20.382  0.00  0.00    +0.000 C 
ATOM     13  C4* UNL     1      -0.888  12.428  21.703  0.00  0.00    +0.000 C 
ATOM     14  O4* UNL     1       0.328  11.670  21.476  0.00  0.00    +0.000 OA
BRANCH  12  15
ATOM     15  O3* UNL     1      -1.265  13.511  19.545  0.00  0.00    +0.000 OA
ATOM     16  H3* UNL     1      -0.314  13.454  19.345  0.00  0.00    +0.000 HD
ENDBRANCH  12  15
BRANCH  13  17
ATOM     17  C5* UNL     1      -1.662  11.751  22.837  0.00  0.00    +0.000 C 
BRANCH  17  18
ATOM     18  O5* UNL     1      -0.839  10.786  23.486  0.00  0.00    +0.000 OA
ATOM     19  H5* UNL     1      -0.130  11.277  23.941  0.00  0.00    +0.000 HD
ENDBRANCH  17  18
ENDBRANCH  13  17
ENDBRANCH   9  10
BRANCH   1  20
ATOM     20  C   UNL     1       3.400   5.763  19.653  0.00  0.00    +0.000 C 
BRANCH  20  24
ATOM     21  C   UNL     1       6.266   5.679  19.022  0.00  0.00    +0.000 C 
ATOM     22  C   UNL     1       5.268   4.765  18.338  0.00  0.00    +0.000 C 
ATOM     23  O   UNL     1       5.752   4.099  17.416  0.00  0.00    +0.000 OA
ATOM     24  N   UNL     1       3.904   4.717  18.717  0.00  0.00    +0.000 N 
BRANCH  24  25
ATOM     25  C   UNL     1       2.912   4.128  17.730  0.00  0.00    +0.000 C 
ATOM     26  C   UNL     1       3.056   2.626  17.360  0.00  0.00    +0.000 C 
ATOM     27  C   UNL     1       2.763   1.714  18.555  0.00  0.00    +0.000 C 
ATOM     28  C   UNL     1       1.355   1.941  19.099  0.00  0.00    +0.000 C 
ATOM     29  C   UNL     1       1.064   3.420  19.339  0.00  0.00    +0.000 C 
ATOM     30  C   UNL     1       1.418   4.254  18.111  0.00  0.00    +0.000 C 
ENDBRANCH  24  25
ENDBRANCH  20  24
ENDBRANCH   1  20
TORSDOF 7
ENDMDL
