MODEL 1
REMARK VINA RESULT:      -8.5      0.000      0.000
REMARK  Name = 
REMARK  6 active torsions:
REMARK  status: ('A' for Active; 'I' for Inactive)
REMARK    1  A    between atoms: C_1  and  C_2
REMARK    2  A    between atoms: C_2  and  C_3
REMARK    3  A    between atoms: C_3  and  O_4
REMARK    4  A    between atoms: C_26  and  C_27
REMARK    5  A    between atoms: C_27  and  N_28
REMARK    6  A    between atoms: N_28  and  C_29
REMARK                            x       y       z     vdW  Elec       q    Type
REMARK                         _______ _______ _______ _____ _____    ______ ____
ROOT
ATOM      1  C   UNL     1       3.536   4.770  17.519  0.00  0.00    +0.000 C 
ATOM      2  C   UNL     1       4.112   3.962  18.739  0.00  0.00    +0.000 C 
ATOM      3  O   UNL     1       5.284   3.657  18.922  0.00  0.00    +0.000 OA
ATOM      4  O   UNL     1       3.218   3.911  19.746  0.00  0.00    +0.000 OA
ATOM      5  C   UNL     1       3.486   5.112  20.432  0.00  0.00    +0.000 C 
ATOM      6  C   UNL     1       3.257   6.266  19.496  0.00  0.00    +0.000 A 
ATOM      7  C   UNL     1       3.554   6.304  18.153  0.00  0.00    +0.000 A 
ATOM      8  C   UNL     1       3.371   7.745  17.565  0.00  0.00    +0.000 A 
ATOM      9  C   UNL     1       2.563   8.678  18.201  0.00  0.00    +0.000 A 
ATOM     10  N   UNL     1       1.808   8.169  19.232  0.00  0.00    +0.000 N 
ATOM     11  C   UNL     1       2.092   7.062  19.945  0.00  0.00    +0.000 A 
ATOM     12  O   UNL     1       1.383   6.698  20.875  0.00  0.00    +0.000 OA
ATOM     13  C   UNL     1       0.646   8.956  19.559  0.00  0.00    +0.000 C 
ATOM     14  C   UNL     1       0.929  10.255  18.909  0.00  0.00    +0.000 A 
ATOM     15  C   UNL     1       2.128  10.190  18.186  0.00  0.00    +0.000 A 
ATOM     16  N   UNL     1       2.761  11.348  17.881  0.00  0.00    +0.000 NA
ATOM     17  C   UNL     1       2.134  12.562  18.238  0.00  0.00    +0.000 A 
ATOM     18  C   UNL     1       2.741  13.826  18.085  0.00  0.00    +0.000 A 
ATOM     19  C   UNL     1       2.114  15.060  18.399  0.00  0.00    +0.000 A 
ATOM     20  C   UNL     1       0.823  15.082  18.891  0.00  0.00    +0.000 A 
ATOM     21  C   UNL     1       0.193  13.871  19.111  0.00  0.00    +0.000 A 
ATOM     22  C   UNL     1       0.826  12.629  18.818  0.00  0.00    +0.000 A 
ATOM     23  C   UNL     1       0.196  11.427  19.139  0.00  0.00    +0.000 A 
ENDROOT
BRANCH   1  25
ATOM     24  C   UNL     1       5.373   3.971  15.526  0.00  0.00    +0.000 C 
ATOM     25  C   UNL     1       4.057   3.793  16.334  0.00  0.00    +0.000 C 
ENDBRANCH   1  25
BRANCH   1  26
ATOM     26  O   UNL     1       2.093   4.699  17.311  0.00  0.00    +0.000 OA
ATOM     27  H   UNL     1       1.825   5.249  16.557  0.00  0.00    +0.000 HD
ENDBRANCH   1  26
BRANCH  23  28
ATOM     28  C   UNL     1      -1.207  11.339  19.718  0.00  0.00    +0.000 C 
BRANCH  28  29
ATOM     29  N   UNL     1      -1.992  10.275  19.107  0.00  0.00    +0.000 N 
ATOM     30  H   UNL     1      -2.674   9.850  19.737  0.00  0.00    +0.000 HD
BRANCH  29  31
ATOM     31  C   UNL     1      -2.570  10.492  17.835  0.00  0.00    +0.000 A 
ATOM     32  C   UNL     1      -2.062   9.896  16.670  0.00  0.00    +0.000 A 
ATOM     33  C   UNL     1      -2.701  10.047  15.429  0.00  0.00    +0.000 A 
ATOM     34  C   UNL     1      -3.881  10.777  15.330  0.00  0.00    +0.000 A 
ATOM     35  C   UNL     1      -4.427  11.354  16.473  0.00  0.00    +0.000 A 
ATOM     36  C   UNL     1      -3.784  11.206  17.709  0.00  0.00    +0.000 A 
ATOM     37 CL   UNL     1      -4.510  11.963  19.089  0.00  0.00    +0.000 Cl
ENDBRANCH  29  31
ENDBRANCH  28  29
ENDBRANCH  23  28
TORSDOF 5
ENDMDL
MODEL 2
REMARK VINA RESULT:      -8.4      1.355      1.857
REMARK  Name = 
REMARK  6 active torsions:
REMARK  status: ('A' for Active; 'I' for Inactive)
REMARK    1  A    between atoms: C_1  and  C_2
REMARK    2  A    between atoms: C_2  and  C_3
REMARK    3  A    between atoms: C_3  and  O_4
REMARK    4  A    between atoms: C_26  and  C_27
REMARK    5  A    between atoms: C_27  and  N_28
REMARK    6  A    between atoms: N_28  and  C_29
REMARK                            x       y       z     vdW  Elec       q    Type
REMARK                         _______ _______ _______ _____ _____    ______ ____
ROOT
ATOM      1  C   UNL     1       2.880   5.114  17.965  0.00  0.00    +0.000 C 
ATOM      2  C   UNL     1       3.294   4.321  19.258  0.00  0.00    +0.000 C 
ATOM      3  O   UNL     1       4.420   3.936  19.547  0.00  0.00    +0.000 OA
ATOM      4  O   UNL     1       2.325   4.387  20.193  0.00  0.00    +0.000 OA
ATOM      5  C   UNL     1       2.636   5.594  20.848  0.00  0.00    +0.000 C 
ATOM      6  C   UNL     1       2.573   6.718  19.851  0.00  0.00    +0.000 A 
ATOM      7  C   UNL     1       2.974   6.670  18.535  0.00  0.00    +0.000 A 
ATOM      8  C   UNL     1       2.954   8.092  17.877  0.00  0.00    +0.000 A 
ATOM      9  C   UNL     1       2.178   9.113  18.409  0.00  0.00    +0.000 A 
ATOM     10  N   UNL     1       1.308   8.714  19.395  0.00  0.00    +0.000 N 
ATOM     11  C   UNL     1       1.446   7.622  20.174  0.00  0.00    +0.000 A 
ATOM     12  O   UNL     1       0.641   7.358  21.057  0.00  0.00    +0.000 OA
ATOM     13  C   UNL     1       0.192   9.602  19.597  0.00  0.00    +0.000 C 
ATOM     14  C   UNL     1       0.628  10.844  18.920  0.00  0.00    +0.000 A 
ATOM     15  C   UNL     1       1.869  10.652  18.298  0.00  0.00    +0.000 A 
ATOM     16  N   UNL     1       2.615  11.742  17.998  0.00  0.00    +0.000 NA
ATOM     17  C   UNL     1       2.063  13.016  18.254  0.00  0.00    +0.000 A 
ATOM     18  C   UNL     1       2.781  14.221  18.099  0.00  0.00    +0.000 A 
ATOM     19  C   UNL     1       2.233  15.514  18.312  0.00  0.00    +0.000 A 
ATOM     20  C   UNL     1       0.915  15.658  18.698  0.00  0.00    +0.000 A 
ATOM     21  C   UNL     1       0.174  14.511  18.916  0.00  0.00    +0.000 A 
ATOM     22  C   UNL     1       0.725  13.212  18.724  0.00  0.00    +0.000 A 
ATOM     23  C   UNL     1      -0.024  12.078  19.042  0.00  0.00    +0.000 A 
ENDROOT
BRANCH   1  25
ATOM     24  C   UNL     1       4.791   4.086  16.156  0.00  0.00    +0.000 C 
ATOM     25  C   UNL     1       3.409   4.045  16.865  0.00  0.00    +0.000 C 
ENDBRANCH   1  25
BRANCH   1  26
ATOM     26  O   UNL     1       1.456   5.146  17.645  0.00  0.00    +0.000 OA
ATOM     27  H   UNL     1       0.940   4.672  18.318  0.00  0.00    +0.000 HD
ENDBRANCH   1  26
BRANCH  23  28
ATOM     28  C   UNL     1      -1.469  12.127  19.511  0.00  0.00    +0.000 C 
BRANCH  28  29
ATOM     29  N   UNL     1      -2.412  12.046  18.404  0.00  0.00    +0.000 N 
ATOM     30  H   UNL     1      -2.129  11.403  17.664  0.00  0.00    +0.000 HD
BRANCH  29  31
ATOM     31  C   UNL     1      -3.789  11.891  18.686  0.00  0.00    +0.000 A 
ATOM     32  C   UNL     1      -4.369  12.355  19.877  0.00  0.00    +0.000 A 
ATOM     33  C   UNL     1      -5.751  12.275  20.102  0.00  0.00    +0.000 A 
ATOM     34  C   UNL     1      -6.593  11.753  19.125  0.00  0.00    +0.000 A 
ATOM     35  C   UNL     1      -6.054  11.313  17.921  0.00  0.00    +0.000 A 
ATOM     36  C   UNL     1      -4.672  11.388  17.701  0.00  0.00    +0.000 A 
ATOM     37 CL   UNL     1      -4.066  10.809  16.185  0.00  0.00    +0.000 Cl
ENDBRANCH  29  31
ENDBRANCH  28  29
ENDBRANCH  23  28
TORSDOF 5
ENDMDL
MODEL 3
REMARK VINA RESULT:      -7.9      1.287      1.714
REMARK  Name = 
REMARK  6 active torsions:
REMARK  status: ('A' for Active; 'I' for Inactive)
REMARK    1  A    between atoms: C_1  and  C_2
REMARK    2  A    between atoms: C_2  and  C_3
REMARK    3  A    between atoms: C_3  and  O_4
REMARK    4  A    between atoms: C_26  and  C_27
REMARK    5  A    between atoms: C_27  and  N_28
REMARK    6  A    between atoms: N_28  and  C_29
REMARK                            x       y       z     vdW  Elec       q    Type
REMARK                         _______ _______ _______ _____ _____    ______ ____
ROOT
ATOM      1  C   UNL     1       2.988   4.962  17.859  0.00  0.00    +0.000 C 
ATOM      2  C   UNL     1       3.470   4.161  19.123  0.00  0.00    +0.000 C 
ATOM      3  O   UNL     1       4.615   3.798  19.362  0.00  0.00    +0.000 OA
ATOM      4  O   UNL     1       2.537   4.193  20.096  0.00  0.00    +0.000 OA
ATOM      5  C   UNL     1       2.848   5.398  20.756  0.00  0.00    +0.000 C 
ATOM      6  C   UNL     1       2.721   6.533  19.778  0.00  0.00    +0.000 A 
ATOM      7  C   UNL     1       3.071   6.512  18.448  0.00  0.00    +0.000 A 
ATOM      8  C   UNL     1       2.993   7.942  17.811  0.00  0.00    +0.000 A 
ATOM      9  C   UNL     1       2.216   8.938  18.387  0.00  0.00    +0.000 A 
ATOM     10  N   UNL     1       1.395   8.505  19.402  0.00  0.00    +0.000 N 
ATOM     11  C   UNL     1       1.588   7.407  20.158  0.00  0.00    +0.000 A 
ATOM     12  O   UNL     1       0.824   7.113  21.069  0.00  0.00    +0.000 OA
ATOM     13  C   UNL     1       0.268   9.366  19.660  0.00  0.00    +0.000 C 
ATOM     14  C   UNL     1       0.650  10.627  18.984  0.00  0.00    +0.000 A 
ATOM     15  C   UNL     1       1.869  10.471  18.311  0.00  0.00    +0.000 A 
ATOM     16  N   UNL     1       2.579  11.581  17.998  0.00  0.00    +0.000 NA
ATOM     17  C   UNL     1       2.010  12.839  18.294  0.00  0.00    +0.000 A 
ATOM     18  C   UNL     1       2.694  14.062  18.128  0.00  0.00    +0.000 A 
ATOM     19  C   UNL     1       2.127  15.339  18.381  0.00  0.00    +0.000 A 
ATOM     20  C   UNL     1       0.822  15.448  18.820  0.00  0.00    +0.000 A 
ATOM     21  C   UNL     1       0.115  14.282  19.051  0.00  0.00    +0.000 A 
ATOM     22  C   UNL     1       0.687  12.998  18.819  0.00  0.00    +0.000 A 
ATOM     23  C   UNL     1      -0.024  11.844  19.149  0.00  0.00    +0.000 A 
ENDROOT
BRANCH   1  25
ATOM     24  C   UNL     1       4.846   4.005  15.957  0.00  0.00    +0.000 C 
ATOM     25  C   UNL     1       3.496   3.921  16.724  0.00  0.00    +0.000 C 
ENDBRANCH   1  25
BRANCH   1  26
ATOM     26  O   UNL     1       1.552   4.966  17.596  0.00  0.00    +0.000 OA
ATOM     27  H   UNL     1       1.293   5.763  17.106  0.00  0.00    +0.000 HD
ENDBRANCH   1  26
BRANCH  23  28
ATOM     28  C   UNL     1      -1.449  11.853  19.675  0.00  0.00    +0.000 C 
BRANCH  28  29
ATOM     29  N   UNL     1      -2.411  12.263  18.661  0.00  0.00    +0.000 N 
ATOM     30  H   UNL     1      -2.145  12.004  17.710  0.00  0.00    +0.000 HD
BRANCH  29  31
ATOM     31  C   UNL     1      -3.784  12.005  18.872  0.00  0.00    +0.000 A 
ATOM     32  C   UNL     1      -4.480  11.015  18.160  0.00  0.00    +0.000 A 
ATOM     33  C   UNL     1      -5.819  10.709  18.445  0.00  0.00    +0.000 A 
ATOM     34  C   UNL     1      -6.488  11.368  19.472  0.00  0.00    +0.000 A 
ATOM     35  C   UNL     1      -5.817  12.333  20.217  0.00  0.00    +0.000 A 
ATOM     36  C   UNL     1      -4.482  12.641  19.926  0.00  0.00    +0.000 A 
ATOM     37 CL   UNL     1      -3.712  13.863  20.883  0.00  0.00    +0.000 Cl
ENDBRANCH  29  31
ENDBRANCH  28  29
ENDBRANCH  23  28
TORSDOF 5
ENDMDL
MODEL 4
REMARK VINA RESULT:      -7.9      8.299     10.647
REMARK  Name = 
REMARK  6 active torsions:
REMARK  status: ('A' for Active; 'I' for Inactive)
REMARK    1  A    between atoms: C_1  and  C_2
REMARK    2  A    between atoms: C_2  and  C_3
REMARK    3  A    between atoms: C_3  and  O_4
REMARK    4  A    between atoms: C_26  and  C_27
REMARK    5  A    between atoms: C_27  and  N_28
REMARK    6  A    between atoms: N_28  and  C_29
REMARK                            x       y       z     vdW  Elec       q    Type
REMARK                         _______ _______ _______ _____ _____    ______ ____
ROOT
ATOM      1  C   UNL     1       6.129  11.719  26.085  0.00  0.00    +0.000 C 
ATOM      2  C   UNL     1       6.742  12.153  27.466  0.00  0.00    +0.000 C 
ATOM      3  O   UNL     1       7.249  11.415  28.302  0.00  0.00    +0.000 OA
ATOM      4  O   UNL     1       6.950  13.484  27.503  0.00  0.00    +0.000 OA
ATOM      5  C   UNL     1       8.226  13.594  26.916  0.00  0.00    +0.000 C 
ATOM      6  C   UNL     1       8.166  13.044  25.519  0.00  0.00    +0.000 A 
ATOM      7  C   UNL     1       7.444  11.950  25.099  0.00  0.00    +0.000 A 
ATOM      8  C   UNL     1       7.803  11.557  23.624  0.00  0.00    +0.000 A 
ATOM      9  C   UNL     1       8.376  12.481  22.759  0.00  0.00    +0.000 A 
ATOM     10  N   UNL     1       8.400  13.770  23.236  0.00  0.00    +0.000 N 
ATOM     11  C   UNL     1       8.366  14.131  24.534  0.00  0.00    +0.000 A 
ATOM     12  O   UNL     1       8.429  15.306  24.875  0.00  0.00    +0.000 OA
ATOM     13  C   UNL     1       8.514  14.778  22.213  0.00  0.00    +0.000 C 
ATOM     14  C   UNL     1       8.973  14.007  21.036  0.00  0.00    +0.000 A 
ATOM     15  C   UNL     1       9.032  12.640  21.338  0.00  0.00    +0.000 A 
ATOM     16  N   UNL     1       9.805  11.841  20.564  0.00  0.00    +0.000 NA
ATOM     17  C   UNL     1      10.443  12.417  19.444  0.00  0.00    +0.000 A 
ATOM     18  C   UNL     1      11.364  11.724  18.631  0.00  0.00    +0.000 A 
ATOM     19  C   UNL     1      11.985  12.271  17.477  0.00  0.00    +0.000 A 
ATOM     20  C   UNL     1      11.704  13.563  17.080  0.00  0.00    +0.000 A 
ATOM     21  C   UNL     1      10.846  14.312  17.865  0.00  0.00    +0.000 A 
ATOM     22  C   UNL     1      10.237  13.774  19.035  0.00  0.00    +0.000 A 
ATOM     23  C   UNL     1       9.451  14.586  19.853  0.00  0.00    +0.000 A 
ENDROOT
BRANCH   1  25
ATOM     24  C   UNL     1       3.826  11.015  27.562  0.00  0.00    +0.000 C 
ATOM     25  C   UNL     1       5.031  10.665  26.645  0.00  0.00    +0.000 C 
ENDBRANCH   1  25
BRANCH   1  26
ATOM     26  O   UNL     1       5.260  12.686  25.423  0.00  0.00    +0.000 OA
ATOM     27  H   UNL     1       4.587  12.236  24.886  0.00  0.00    +0.000 HD
ENDBRANCH   1  26
BRANCH  23  28
ATOM     28  C   UNL     1       9.111  16.032  19.528  0.00  0.00    +0.000 C 
BRANCH  28  29
ATOM     29  N   UNL     1       8.263  16.149  18.349  0.00  0.00    +0.000 N 
ATOM     30  H   UNL     1       8.611  15.638  17.537  0.00  0.00    +0.000 HD
BRANCH  29  31
ATOM     31  C   UNL     1       6.869  15.962  18.485  0.00  0.00    +0.000 A 
ATOM     32  C   UNL     1       6.021  16.964  18.983  0.00  0.00    +0.000 A 
ATOM     33  C   UNL     1       4.630  16.796  19.026  0.00  0.00    +0.000 A 
ATOM     34  C   UNL     1       4.047  15.628  18.543  0.00  0.00    +0.000 A 
ATOM     35  C   UNL     1       4.857  14.628  18.013  0.00  0.00    +0.000 A 
ATOM     36  C   UNL     1       6.247  14.796  17.977  0.00  0.00    +0.000 A 
ATOM     37 CL   UNL     1       7.196  13.505  17.318  0.00  0.00    +0.000 Cl
ENDBRANCH  29  31
ENDBRANCH  28  29
ENDBRANCH  23  28
TORSDOF 5
ENDMDL
MODEL 5
REMARK VINA RESULT:      -7.8      3.471      8.356
REMARK  Name = 
REMARK  6 active torsions:
REMARK  status: ('A' for Active; 'I' for Inactive)
REMARK    1  A    between atoms: C_1  and  C_2
REMARK    2  A    between atoms: C_2  and  C_3
REMARK    3  A    between atoms: C_3  and  O_4
REMARK    4  A    between atoms: C_26  and  C_27
REMARK    5  A    between atoms: C_27  and  N_28
REMARK    6  A    between atoms: N_28  and  C_29
REMARK                            x       y       z     vdW  Elec       q    Type
REMARK                         _______ _______ _______ _____ _____    ______ ____
ROOT
ATOM      1  C   UNL     1       0.925  11.860  19.687  0.00  0.00    +0.000 C 
ATOM      2  C   UNL     1      -0.598  11.664  20.027  0.00  0.00    +0.000 C 
ATOM      3  O   UNL     1      -1.548  12.101  19.390  0.00  0.00    +0.000 OA
ATOM      4  O   UNL     1      -0.766  10.677  20.929  0.00  0.00    +0.000 OA
ATOM      5  C   UNL     1      -0.816   9.536  20.104  0.00  0.00    +0.000 C 
ATOM      6  C   UNL     1       0.477   9.430  19.345  0.00  0.00    +0.000 A 
ATOM      7  C   UNL     1       1.211  10.471  18.824  0.00  0.00    +0.000 A 
ATOM      8  C   UNL     1       2.381   9.954  17.919  0.00  0.00    +0.000 A 
ATOM      9  C   UNL     1       2.868   8.660  18.053  0.00  0.00    +0.000 A 
ATOM     10  N   UNL     1       2.390   7.982  19.149  0.00  0.00    +0.000 N 
ATOM     11  C   UNL     1       1.234   8.238  19.792  0.00  0.00    +0.000 A 
ATOM     12  O   UNL     1       0.863   7.559  20.741  0.00  0.00    +0.000 OA
ATOM     13  C   UNL     1       3.221   6.885  19.576  0.00  0.00    +0.000 C 
ATOM     14  C   UNL     1       4.093   6.651  18.403  0.00  0.00    +0.000 A 
ATOM     15  C   UNL     1       3.839   7.604  17.407  0.00  0.00    +0.000 A 
ATOM     16  N   UNL     1       4.211   7.323  16.136  0.00  0.00    +0.000 NA
ATOM     17  C   UNL     1       4.909   6.118  15.899  0.00  0.00    +0.000 A 
ATOM     18  C   UNL     1       5.245   5.654  14.609  0.00  0.00    +0.000 A 
ATOM     19  C   UNL     1       5.981   4.467  14.351  0.00  0.00    +0.000 A 
ATOM     20  C   UNL     1       6.421   3.678  15.395  0.00  0.00    +0.000 A 
ATOM     21  C   UNL     1       6.079   4.053  16.682  0.00  0.00    +0.000 A 
ATOM     22  C   UNL     1       5.322   5.231  16.945  0.00  0.00    +0.000 A 
ATOM     23  C   UNL     1       4.917   5.529  18.246  0.00  0.00    +0.000 A 
ENDROOT
BRANCH   1  25
ATOM     24  C   UNL     1       1.803  14.371  18.735  0.00  0.00    +0.000 C 
ATOM     25  C   UNL     1       0.949  13.482  19.681  0.00  0.00    +0.000 C 
ENDBRANCH   1  25
BRANCH   1  26
ATOM     26  O   UNL     1       1.875  11.581  20.760  0.00  0.00    +0.000 OA
ATOM     27  H   UNL     1       1.988  12.357  21.332  0.00  0.00    +0.000 HD
ENDBRANCH   1  26
BRANCH  23  28
ATOM     28  C   UNL     1       5.313   4.707  19.461  0.00  0.00    +0.000 C 
BRANCH  28  29
ATOM     29  N   UNL     1       4.739   3.369  19.435  0.00  0.00    +0.000 N 
ATOM     30  H   UNL     1       5.307   2.664  19.907  0.00  0.00    +0.000 HD
BRANCH  29  31
ATOM     31  C   UNL     1       3.375   3.200  19.768  0.00  0.00    +0.000 A 
ATOM     32  C   UNL     1       2.867   3.522  21.037  0.00  0.00    +0.000 A 
ATOM     33  C   UNL     1       1.497   3.435  21.323  0.00  0.00    +0.000 A 
ATOM     34  C   UNL     1       0.595   3.052  20.336  0.00  0.00    +0.000 A 
ATOM     35  C   UNL     1       1.062   2.757  19.059  0.00  0.00    +0.000 A 
ATOM     36  C   UNL     1       2.432   2.838  18.777  0.00  0.00    +0.000 A 
ATOM     37 CL   UNL     1       2.947   2.443  17.171  0.00  0.00    +0.000 Cl
ENDBRANCH  29  31
ENDBRANCH  28  29
ENDBRANCH  23  28
TORSDOF 5
ENDMDL
MODEL 6
REMARK VINA RESULT:      -7.7      1.908      3.161
REMARK  Name = 
REMARK  6 active torsions:
REMARK  status: ('A' for Active; 'I' for Inactive)
REMARK    1  A    between atoms: C_1  and  C_2
REMARK    2  A    between atoms: C_2  and  C_3
REMARK    3  A    between atoms: C_3  and  O_4
REMARK    4  A    between atoms: C_26  and  C_27
REMARK    5  A    between atoms: C_27  and  N_28
REMARK    6  A    between atoms: N_28  and  C_29
REMARK                            x       y       z     vdW  Elec       q    Type
REMARK                         _______ _______ _______ _____ _____    ______ ____
ROOT
ATOM      1  C   UNL     1       2.939   5.027  17.895  0.00  0.00    +0.000 C 
ATOM      2  C   UNL     1       3.401   4.225  19.166  0.00  0.00    +0.000 C 
ATOM      3  O   UNL     1       4.540   3.850  19.417  0.00  0.00    +0.000 OA
ATOM      4  O   UNL     1       2.459   4.267  20.129  0.00  0.00    +0.000 OA
ATOM      5  C   UNL     1       2.775   5.470  20.790  0.00  0.00    +0.000 C 
ATOM      6  C   UNL     1       2.669   6.605  19.809  0.00  0.00    +0.000 A 
ATOM      7  C   UNL     1       3.032   6.577  18.482  0.00  0.00    +0.000 A 
ATOM      8  C   UNL     1       2.975   8.007  17.841  0.00  0.00    +0.000 A 
ATOM      9  C   UNL     1       2.202   9.012  18.408  0.00  0.00    +0.000 A 
ATOM     10  N   UNL     1       1.367   8.590  19.415  0.00  0.00    +0.000 N 
ATOM     11  C   UNL     1       1.541   7.491  20.175  0.00  0.00    +0.000 A 
ATOM     12  O   UNL     1       0.765   7.207  21.079  0.00  0.00    +0.000 OA
ATOM     13  C   UNL     1       0.246   9.462  19.660  0.00  0.00    +0.000 C 
ATOM     14  C   UNL     1       0.647  10.717  18.986  0.00  0.00    +0.000 A 
ATOM     15  C   UNL     1       1.871  10.548  18.326  0.00  0.00    +0.000 A 
ATOM     16  N   UNL     1       2.595  11.651  18.017  0.00  0.00    +0.000 NA
ATOM     17  C   UNL     1       2.036  12.915  18.305  0.00  0.00    +0.000 A 
ATOM     18  C   UNL     1       2.734  14.130  18.144  0.00  0.00    +0.000 A 
ATOM     19  C   UNL     1       2.177  15.414  18.388  0.00  0.00    +0.000 A 
ATOM     20  C   UNL     1       0.869  15.537  18.815  0.00  0.00    +0.000 A 
ATOM     21  C   UNL     1       0.148  14.378  19.040  0.00  0.00    +0.000 A 
ATOM     22  C   UNL     1       0.709  13.088  18.817  0.00  0.00    +0.000 A 
ATOM     23  C   UNL     1      -0.016  11.941  19.143  0.00  0.00    +0.000 A 
ENDROOT
BRANCH   1  25
ATOM     24  C   UNL     1       4.803   4.052  16.009  0.00  0.00    +0.000 C 
ATOM     25  C   UNL     1       3.449   3.979  16.767  0.00  0.00    +0.000 C 
ENDBRANCH   1  25
BRANCH   1  26
ATOM     26  O   UNL     1       1.506   5.045  17.618  0.00  0.00    +0.000 OA
ATOM     27  H   UNL     1       1.215   4.196  17.249  0.00  0.00    +0.000 HD
ENDBRANCH   1  26
BRANCH  23  28
ATOM     28  C   UNL     1      -1.447  11.966  19.654  0.00  0.00    +0.000 C 
BRANCH  28  29
ATOM     29  N   UNL     1      -1.523  11.759  21.094  0.00  0.00    +0.000 N 
ATOM     30  H   UNL     1      -0.777  11.170  21.468  0.00  0.00    +0.000 HD
BRANCH  29  31
ATOM     31  C   UNL     1      -1.734  12.874  21.938  0.00  0.00    +0.000 A 
ATOM     32  C   UNL     1      -0.675  13.567  22.546  0.00  0.00    +0.000 A 
ATOM     33  C   UNL     1      -0.895  14.725  23.306  0.00  0.00    +0.000 A 
ATOM     34  C   UNL     1      -2.181  15.236  23.453  0.00  0.00    +0.000 A 
ATOM     35  C   UNL     1      -3.249  14.591  22.836  0.00  0.00    +0.000 A 
ATOM     36  C   UNL     1      -3.027  13.431  22.083  0.00  0.00    +0.000 A 
ATOM     37 CL   UNL     1      -4.403  12.669  21.355  0.00  0.00    +0.000 Cl
ENDBRANCH  29  31
ENDBRANCH  28  29
ENDBRANCH  23  28
TORSDOF 5
ENDMDL
MODEL 7
REMARK VINA RESULT:      -7.7      4.212      9.145
REMARK  Name = 
REMARK  6 active torsions:
REMARK  status: ('A' for Active; 'I' for Inactive)
REMARK    1  A    between atoms: C_1  and  C_2
REMARK    2  A    between atoms: C_2  and  C_3
REMARK    3  A    between atoms: C_3  and  O_4
REMARK    4  A    between atoms: C_26  and  C_27
REMARK    5  A    between atoms: C_27  and  N_28
REMARK    6  A    between atoms: N_28  and  C_29
REMARK                            x       y       z     vdW  Elec       q    Type
REMARK                         _______ _______ _______ _____ _____    ______ ____
ROOT
ATOM      1  C   UNL     1      -1.829  13.071  20.448  0.00  0.00    +0.000 C 
ATOM      2  C   UNL     1      -1.096  14.343  21.010  0.00  0.00    +0.000 C 
ATOM      3  O   UNL     1      -1.228  14.826  22.127  0.00  0.00    +0.000 OA
ATOM      4  O   UNL     1      -0.043  14.671  20.235  0.00  0.00    +0.000 OA
ATOM      5  C   UNL     1       0.976  13.861  20.773  0.00  0.00    +0.000 C 
ATOM      6  C   UNL     1       0.571  12.419  20.639  0.00  0.00    +0.000 A 
ATOM      7  C   UNL     1      -0.697  11.907  20.792  0.00  0.00    +0.000 A 
ATOM      8  C   UNL     1      -0.687  10.340  20.789  0.00  0.00    +0.000 A 
ATOM      9  C   UNL     1       0.367   9.634  20.222  0.00  0.00    +0.000 A 
ATOM     10  N   UNL     1       1.252  10.407  19.510  0.00  0.00    +0.000 N 
ATOM     11  C   UNL     1       1.462  11.727  19.680  0.00  0.00    +0.000 A 
ATOM     12  O   UNL     1       2.300  12.334  19.025  0.00  0.00    +0.000 OA
ATOM     13  C   UNL     1       2.027   9.677  18.538  0.00  0.00    +0.000 C 
ATOM     14  C   UNL     1       1.853   8.269  18.962  0.00  0.00    +0.000 A 
ATOM     15  C   UNL     1       0.970   8.191  20.047  0.00  0.00    +0.000 A 
ATOM     16  N   UNL     1       1.005   7.085  20.829  0.00  0.00    +0.000 NA
ATOM     17  C   UNL     1       1.873   6.036  20.456  0.00  0.00    +0.000 A 
ATOM     18  C   UNL     1       2.089   4.887  21.246  0.00  0.00    +0.000 A 
ATOM     19  C   UNL     1       2.926   3.802  20.872  0.00  0.00    +0.000 A 
ATOM     20  C   UNL     1       3.596   3.823  19.664  0.00  0.00    +0.000 A 
ATOM     21  C   UNL     1       3.464   4.945  18.867  0.00  0.00    +0.000 A 
ATOM     22  C   UNL     1       2.643   6.045  19.249  0.00  0.00    +0.000 A 
ATOM     23  C   UNL     1       2.606   7.198  18.464  0.00  0.00    +0.000 A 
ENDROOT
BRANCH   1  25
ATOM     24  C   UNL     1      -4.633  12.723  20.426  0.00  0.00    +0.000 C 
ATOM     25  C   UNL     1      -3.355  13.575  20.667  0.00  0.00    +0.000 C 
ENDBRANCH   1  25
BRANCH   1  26
ATOM     26  O   UNL     1      -1.810  12.891  18.999  0.00  0.00    +0.000 OA
ATOM     27  H   UNL     1      -1.162  12.215  18.744  0.00  0.00    +0.000 HD
ENDBRANCH   1  26
BRANCH  23  28
ATOM     28  C   UNL     1       3.335   7.339  17.138  0.00  0.00    +0.000 C 
BRANCH  28  29
ATOM     29  N   UNL     1       4.781   7.250  17.290  0.00  0.00    +0.000 N 
ATOM     30  H   UNL     1       5.102   7.334  18.256  0.00  0.00    +0.000 HD
BRANCH  29  31
ATOM     31  C   UNL     1       5.478   6.210  16.633  0.00  0.00    +0.000 A 
ATOM     32  C   UNL     1       5.233   5.873  15.291  0.00  0.00    +0.000 A 
ATOM     33  C   UNL     1       5.995   4.901  14.627  0.00  0.00    +0.000 A 
ATOM     34  C   UNL     1       7.042   4.260  15.281  0.00  0.00    +0.000 A 
ATOM     35  C   UNL     1       7.331   4.593  16.601  0.00  0.00    +0.000 A 
ATOM     36  C   UNL     1       6.564   5.560  17.264  0.00  0.00    +0.000 A 
ATOM     37 CL   UNL     1       6.969   5.916  18.911  0.00  0.00    +0.000 Cl
ENDBRANCH  29  31
ENDBRANCH  28  29
ENDBRANCH  23  28
TORSDOF 5
ENDMDL
MODEL 8
REMARK VINA RESULT:      -7.7      2.239      3.148
REMARK  Name = 
REMARK  6 active torsions:
REMARK  status: ('A' for Active; 'I' for Inactive)
REMARK    1  A    between atoms: C_1  and  C_2
REMARK    2  A    between atoms: C_2  and  C_3
REMARK    3  A    between atoms: C_3  and  O_4
REMARK    4  A    between atoms: C_26  and  C_27
REMARK    5  A    between atoms: C_27  and  N_28
REMARK    6  A    between atoms: N_28  and  C_29
REMARK                            x       y       z     vdW  Elec       q    Type
REMARK                         _______ _______ _______ _____ _____    ______ ____
ROOT
ATOM      1  C   UNL     1       2.931   5.029  17.914  0.00  0.00    +0.000 C 
ATOM      2  C   UNL     1       3.401   4.230  19.184  0.00  0.00    +0.000 C 
ATOM      3  O   UNL     1       4.543   3.860  19.430  0.00  0.00    +0.000 OA
ATOM      4  O   UNL     1       2.464   4.270  20.151  0.00  0.00    +0.000 OA
ATOM      5  C   UNL     1       2.778   5.476  20.809  0.00  0.00    +0.000 C 
ATOM      6  C   UNL     1       2.663   6.608  19.827  0.00  0.00    +0.000 A 
ATOM      7  C   UNL     1       3.020   6.580  18.498  0.00  0.00    +0.000 A 
ATOM      8  C   UNL     1       2.954   8.008  17.856  0.00  0.00    +0.000 A 
ATOM      9  C   UNL     1       2.180   9.011  18.425  0.00  0.00    +0.000 A 
ATOM     10  N   UNL     1       1.351   8.587  19.436  0.00  0.00    +0.000 N 
ATOM     11  C   UNL     1       1.533   7.490  20.197  0.00  0.00    +0.000 A 
ATOM     12  O   UNL     1       0.763   7.204  21.105  0.00  0.00    +0.000 OA
ATOM     13  C   UNL     1       0.228   9.455  19.685  0.00  0.00    +0.000 C 
ATOM     14  C   UNL     1       0.621  10.711  19.006  0.00  0.00    +0.000 A 
ATOM     15  C   UNL     1       1.843  10.546  18.341  0.00  0.00    +0.000 A 
ATOM     16  N   UNL     1       2.562  11.651  18.028  0.00  0.00    +0.000 NA
ATOM     17  C   UNL     1       1.998  12.914  18.317  0.00  0.00    +0.000 A 
ATOM     18  C   UNL     1       2.691  14.131  18.150  0.00  0.00    +0.000 A 
ATOM     19  C   UNL     1       2.130  15.413  18.395  0.00  0.00    +0.000 A 
ATOM     20  C   UNL     1       0.824  15.531  18.827  0.00  0.00    +0.000 A 
ATOM     21  C   UNL     1       0.108  14.371  19.058  0.00  0.00    +0.000 A 
ATOM     22  C   UNL     1       0.674  13.082  18.834  0.00  0.00    +0.000 A 
ATOM     23  C   UNL     1      -0.046  11.933  19.164  0.00  0.00    +0.000 A 
ENDROOT
BRANCH   1  25
ATOM     24  C   UNL     1       4.808   4.035  16.050  0.00  0.00    +0.000 C 
ATOM     25  C   UNL     1       3.440   3.981  16.785  0.00  0.00    +0.000 C 
ENDBRANCH   1  25
BRANCH   1  26
ATOM     26  O   UNL     1       1.497   5.041  17.643  0.00  0.00    +0.000 OA
ATOM     27  H   UNL     1       1.006   4.608  18.360  0.00  0.00    +0.000 HD
ENDBRANCH   1  26
BRANCH  23  28
ATOM     28  C   UNL     1      -1.474  11.953  19.682  0.00  0.00    +0.000 C 
BRANCH  28  29
ATOM     29  N   UNL     1      -1.535  12.052  21.134  0.00  0.00    +0.000 N 
ATOM     30  H   UNL     1      -0.622  12.146  21.581  0.00  0.00    +0.000 HD
BRANCH  29  31
ATOM     31  C   UNL     1      -2.461  12.943  21.724  0.00  0.00    +0.000 A 
ATOM     32  C   UNL     1      -3.846  12.718  21.688  0.00  0.00    +0.000 A 
ATOM     33  C   UNL     1      -4.746  13.562  22.355  0.00  0.00    +0.000 A 
ATOM     34  C   UNL     1      -4.278  14.640  23.101  0.00  0.00    +0.000 A 
ATOM     35  C   UNL     1      -2.908  14.872  23.183  0.00  0.00    +0.000 A 
ATOM     36  C   UNL     1      -2.012  14.031  22.510  0.00  0.00    +0.000 A 
ATOM     37 CL   UNL     1      -0.321  14.386  22.642  0.00  0.00    +0.000 Cl
ENDBRANCH  29  31
ENDBRANCH  28  29
ENDBRANCH  23  28
TORSDOF 5
ENDMDL
MODEL 9
REMARK VINA RESULT:      -7.7      1.277      1.704
REMARK  Name = 
REMARK  6 active torsions:
REMARK  status: ('A' for Active; 'I' for Inactive)
REMARK    1  A    between atoms: C_1  and  C_2
REMARK    2  A    between atoms: C_2  and  C_3
REMARK    3  A    between atoms: C_3  and  O_4
REMARK    4  A    between atoms: C_26  and  C_27
REMARK    5  A    between atoms: C_27  and  N_28
REMARK    6  A    between atoms: N_28  and  C_29
REMARK                            x       y       z     vdW  Elec       q    Type
REMARK                         _______ _______ _______ _____ _____    ______ ____
ROOT
ATOM      1  C   UNL     1       4.749   4.943  16.983  0.00  0.00    +0.000 C 
ATOM      2  C   UNL     1       5.323   4.117  18.191  0.00  0.00    +0.000 C 
ATOM      3  O   UNL     1       6.503   4.002  18.499  0.00  0.00    +0.000 OA
ATOM      4  O   UNL     1       4.347   3.800  19.064  0.00  0.00    +0.000 OA
ATOM      5  C   UNL     1       4.307   4.946  19.883  0.00  0.00    +0.000 C 
ATOM      6  C   UNL     1       3.975   6.139  19.031  0.00  0.00    +0.000 A 
ATOM      7  C   UNL     1       4.410   6.377  17.747  0.00  0.00    +0.000 A 
ATOM      8  C   UNL     1       4.029   7.821  17.271  0.00  0.00    +0.000 A 
ATOM      9  C   UNL     1       2.995   8.522  17.876  0.00  0.00    +0.000 A 
ATOM     10  N   UNL     1       2.236   7.779  18.749  0.00  0.00    +0.000 N 
ATOM     11  C   UNL     1       2.639   6.666  19.393  0.00  0.00    +0.000 A 
ATOM     12  O   UNL     1       1.909   6.084  20.185  0.00  0.00    +0.000 OA
ATOM     13  C   UNL     1       0.919   8.311  18.990  0.00  0.00    +0.000 C 
ATOM     14  C   UNL     1       1.027   9.704  18.500  0.00  0.00    +0.000 A 
ATOM     15  C   UNL     1       2.291   9.928  17.938  0.00  0.00    +0.000 A 
ATOM     16  N   UNL     1       2.728  11.205  17.823  0.00  0.00    +0.000 NA
ATOM     17  C   UNL     1       1.850  12.244  18.201  0.00  0.00    +0.000 A 
ATOM     18  C   UNL     1       2.225  13.604  18.242  0.00  0.00    +0.000 A 
ATOM     19  C   UNL     1       1.347  14.668  18.579  0.00  0.00    +0.000 A 
ATOM     20  C   UNL     1       0.028  14.410  18.897  0.00  0.00    +0.000 A 
ATOM     21  C   UNL     1      -0.387  13.091  18.925  0.00  0.00    +0.000 A 
ATOM     22  C   UNL     1       0.495  12.019  18.608  0.00  0.00    +0.000 A 
ATOM     23  C   UNL     1       0.067  10.697  18.735  0.00  0.00    +0.000 A 
ENDROOT
BRANCH   1  25
ATOM     24  C   UNL     1       6.539   4.909  14.797  0.00  0.00    +0.000 C 
ATOM     25  C   UNL     1       5.573   4.209  15.794  0.00  0.00    +0.000 C 
ENDBRANCH   1  25
BRANCH   1  26
ATOM     26  O   UNL     1       3.377   4.646  16.582  0.00  0.00    +0.000 OA
ATOM     27  H   UNL     1       3.353   3.910  15.949  0.00  0.00    +0.000 HD
ENDBRANCH   1  26
BRANCH  23  28
ATOM     28  C   UNL     1      -1.351  10.303  19.115  0.00  0.00    +0.000 C 
BRANCH  28  29
ATOM     29  N   UNL     1      -2.239  10.251  17.962  0.00  0.00    +0.000 N 
ATOM     30  H   UNL     1      -2.406   9.307  17.610  0.00  0.00    +0.000 HD
BRANCH  29  31
ATOM     31  C   UNL     1      -3.448  10.983  17.993  0.00  0.00    +0.000 A 
ATOM     32  C   UNL     1      -3.899  11.639  19.149  0.00  0.00    +0.000 A 
ATOM     33  C   UNL     1      -5.053  12.436  19.139  0.00  0.00    +0.000 A 
ATOM     34  C   UNL     1      -5.770  12.621  17.961  0.00  0.00    +0.000 A 
ATOM     35  C   UNL     1      -5.332  12.010  16.790  0.00  0.00    +0.000 A 
ATOM     36  C   UNL     1      -4.182  11.209  16.804  0.00  0.00    +0.000 A 
ATOM     37 CL   UNL     1      -3.701  10.467  15.314  0.00  0.00    +0.000 Cl
ENDBRANCH  29  31
ENDBRANCH  28  29
ENDBRANCH  23  28
TORSDOF 5
ENDMDL
