MODEL 1
REMARK VINA RESULT:      -7.9      0.000      0.000
REMARK  Name = 
REMARK  8 active torsions:
REMARK  status: ('A' for Active; 'I' for Inactive)
REMARK    1  A    between atoms: C_1  and  C_2
REMARK    2  A    between atoms: C_2  and  O_3
REMARK    3  A    between atoms: O_3  and  C_4
REMARK    4  A    between atoms: C_4  and  C_6
REMARK    5  A    between atoms: N_12  and  C_13
REMARK    6  A    between atoms: C_13  and  C_14
REMARK    7  A    between atoms: C_22  and  C_23
REMARK    8  A    between atoms: C_23  and  C_24
REMARK                            x       y       z     vdW  Elec       q    Type
REMARK                         _______ _______ _______ _____ _____    ______ ____
ROOT
ATOM      1  C   UNL     1       5.757   5.972  15.848  0.00  0.00    +0.000 C 
ATOM      2  C   UNL     1       5.177   5.713  14.443  0.00  0.00    +0.000 C 
ATOM      3  C   UNL     1       5.409   4.298  13.893  0.00  0.00    +0.000 C 
ATOM      4  C   UNL     1       6.413   3.457  14.692  0.00  0.00    +0.000 C 
ATOM      5  C   UNL     1       5.973   3.279  16.129  0.00  0.00    +0.000 C 
ATOM      6  C   UNL     1       5.577   4.371  16.812  0.00  0.00    +0.000 C 
ATOM      7  N   UNL     1       4.807   4.351  18.311  0.00  0.00    +0.000 N 
ATOM      8  C   UNL     1       4.166   5.679  19.041  0.00  0.00    +0.000 C 
ATOM      9  O   UNL     1       3.803   5.624  20.224  0.00  0.00    +0.000 OA
ATOM     10  C   UNL     1       3.973   7.277  18.146  0.00  0.00    +0.000 C 
ATOM     11  C   UNL     1       4.860   7.502  16.480  0.00  0.00    +0.000 C 
ENDROOT
BRANCH   1  12
ATOM     12  C   UNL     1       4.945   5.786  16.871  0.00  0.00    +0.000 C 
ATOM     13  O   UNL     1       3.749   5.430  16.730  0.00  0.00    +0.000 OA
BRANCH  12  14
ATOM     14  O   UNL     1       5.972   6.625  17.889  0.00  0.00    +0.000 OA
BRANCH  14  16
ATOM     15  C   UNL     1       7.968   5.683  19.340  0.00  0.00    +0.000 C 
ATOM     16  C   UNL     1       7.452   6.546  18.192  0.00  0.00    +0.000 C 
ENDBRANCH  14  16
ENDBRANCH  12  14
ENDBRANCH   1  12
BRANCH   7  17
ATOM     17  C   UNL     1       4.593   3.134  19.063  0.00  0.00    +0.000 C 
BRANCH  17  18
ATOM     18  C   UNL     1       3.150   2.827  19.367  0.00  0.00    +0.000 A 
ATOM     19  C   UNL     1       2.742   2.788  20.705  0.00  0.00    +0.000 A 
ATOM     20  C   UNL     1       1.396   2.647  21.035  0.00  0.00    +0.000 A 
ATOM     21  C   UNL     1       0.438   2.550  20.028  0.00  0.00    +0.000 A 
ATOM     22  C   UNL     1       0.827   2.580  18.690  0.00  0.00    +0.000 A 
ATOM     23  C   UNL     1       2.177   2.716  18.359  0.00  0.00    +0.000 A 
ENDBRANCH  17  18
ENDBRANCH   7  17
BRANCH  10  24
ATOM     24  C   UNL     1       2.416   7.405  18.072  0.00  0.00    +0.000 C 
BRANCH  24  25
ATOM     25  C   UNL     1       1.884   8.778  18.339  0.00  0.00    +0.000 C 
ATOM     26  O   UNL     1       1.805   9.605  17.414  0.00  0.00    +0.000 OA
ATOM     27  N   UNL     1       1.490   9.104  19.619  0.00  0.00    +0.000 N 
ATOM     28  C   UNL     1       1.475   8.282  20.823  0.00  0.00    +0.000 C 
ATOM     29  C   UNL     1       0.018   8.381  21.239  0.00  0.00    +0.000 C 
ATOM     30  C   UNL     1      -0.336   9.838  20.929  0.00  0.00    +0.000 C 
ATOM     31  C   UNL     1       0.637  10.256  19.824  0.00  0.00    +0.000 C 
ENDBRANCH  24  25
ENDBRANCH  10  24
TORSDOF 7
ENDMDL
MODEL 2
REMARK VINA RESULT:      -6.9      2.065      6.823
REMARK  Name = 
REMARK  8 active torsions:
REMARK  status: ('A' for Active; 'I' for Inactive)
REMARK    1  A    between atoms: C_1  and  C_2
REMARK    2  A    between atoms: C_2  and  O_3
REMARK    3  A    between atoms: O_3  and  C_4
REMARK    4  A    between atoms: C_4  and  C_6
REMARK    5  A    between atoms: N_12  and  C_13
REMARK    6  A    between atoms: C_13  and  C_14
REMARK    7  A    between atoms: C_22  and  C_23
REMARK    8  A    between atoms: C_23  and  C_24
REMARK                            x       y       z     vdW  Elec       q    Type
REMARK                         _______ _______ _______ _____ _____    ______ ____
ROOT
ATOM      1  C   UNL     1       3.523   3.152  18.872  0.00  0.00    +0.000 C 
ATOM      2  C   UNL     1       2.524   2.011  18.592  0.00  0.00    +0.000 C 
ATOM      3  C   UNL     1       1.101   2.248  19.116  0.00  0.00    +0.000 C 
ATOM      4  C   UNL     1       0.959   3.441  20.071  0.00  0.00    +0.000 C 
ATOM      5  C   UNL     1       1.384   4.737  19.413  0.00  0.00    +0.000 C 
ATOM      6  C   UNL     1       2.558   4.758  18.751  0.00  0.00    +0.000 C 
ATOM      7  N   UNL     1       3.078   6.001  17.739  0.00  0.00    +0.000 N 
ATOM      8  C   UNL     1       4.426   5.926  16.797  0.00  0.00    +0.000 C 
ATOM      9  O   UNL     1       4.853   6.947  16.241  0.00  0.00    +0.000 OA
ATOM     10  C   UNL     1       5.342   4.349  16.542  0.00  0.00    +0.000 C 
ATOM     11  C   UNL     1       4.945   2.871  17.670  0.00  0.00    +0.000 C 
ENDROOT
BRANCH   1  12
ATOM     12  C   UNL     1       3.670   4.059  17.926  0.00  0.00    +0.000 C 
ATOM     13  O   UNL     1       2.915   4.122  16.924  0.00  0.00    +0.000 OA
BRANCH  12  14
ATOM     14  O   UNL     1       5.219   4.411  18.448  0.00  0.00    +0.000 OA
BRANCH  14  16
ATOM     15  C   UNL     1       7.272   5.688  19.509  0.00  0.00    +0.000 C 
ATOM     16  C   UNL     1       5.791   5.323  19.510  0.00  0.00    +0.000 C 
ENDBRANCH  14  16
ENDBRANCH  12  14
ENDBRANCH   1  12
BRANCH   7  17
ATOM     17  C   UNL     1       2.337   7.231  17.568  0.00  0.00    +0.000 C 
BRANCH  17  18
ATOM     18  C   UNL     1       2.002   7.948  18.850  0.00  0.00    +0.000 A 
ATOM     19  C   UNL     1       1.355   9.186  18.773  0.00  0.00    +0.000 A 
ATOM     20  C   UNL     1       0.900   9.823  19.926  0.00  0.00    +0.000 A 
ATOM     21  C   UNL     1       1.081   9.226  21.171  0.00  0.00    +0.000 A 
ATOM     22  C   UNL     1       1.730   7.996  21.266  0.00  0.00    +0.000 A 
ATOM     23  C   UNL     1       2.192   7.359  20.111  0.00  0.00    +0.000 A 
ENDBRANCH  17  18
ENDBRANCH   7  17
BRANCH  10  24
ATOM     24  C   UNL     1       5.091   4.086  15.021  0.00  0.00    +0.000 C 
BRANCH  24  25
ATOM     25  C   UNL     1       6.300   4.227  14.151  0.00  0.00    +0.000 C 
ATOM     26  O   UNL     1       7.356   4.682  14.623  0.00  0.00    +0.000 OA
ATOM     27  N   UNL     1       6.220   3.846  12.828  0.00  0.00    +0.000 N 
ATOM     28  C   UNL     1       5.099   3.269  12.095  0.00  0.00    +0.000 C 
ATOM     29  C   UNL     1       5.713   1.984  11.566  0.00  0.00    +0.000 C 
ATOM     30  C   UNL     1       7.137   2.405  11.194  0.00  0.00    +0.000 C 
ATOM     31  C   UNL     1       7.440   3.612  12.084  0.00  0.00    +0.000 C 
ENDBRANCH  24  25
ENDBRANCH  10  24
TORSDOF 7
ENDMDL
MODEL 3
REMARK VINA RESULT:      -6.8      4.534      8.534
REMARK  Name = 
REMARK  8 active torsions:
REMARK  status: ('A' for Active; 'I' for Inactive)
REMARK    1  A    between atoms: C_1  and  C_2
REMARK    2  A    between atoms: C_2  and  O_3
REMARK    3  A    between atoms: O_3  and  C_4
REMARK    4  A    between atoms: C_4  and  C_6
REMARK    5  A    between atoms: N_12  and  C_13
REMARK    6  A    between atoms: C_13  and  C_14
REMARK    7  A    between atoms: C_22  and  C_23
REMARK    8  A    between atoms: C_23  and  C_24
REMARK                            x       y       z     vdW  Elec       q    Type
REMARK                         _______ _______ _______ _____ _____    ______ ____
ROOT
ATOM      1  C   UNL     1       0.059  13.677  20.262  0.00  0.00    +0.000 C 
ATOM      2  C   UNL     1       0.303  15.046  19.597  0.00  0.00    +0.000 C 
ATOM      3  C   UNL     1       1.697  15.231  18.979  0.00  0.00    +0.000 C 
ATOM      4  C   UNL     1       2.715  14.147  19.358  0.00  0.00    +0.000 C 
ATOM      5  C   UNL     1       2.249  12.771  18.933  0.00  0.00    +0.000 C 
ATOM      6  C   UNL     1       0.988  12.405  19.239  0.00  0.00    +0.000 C 
ATOM      7  N   UNL     1       0.200  11.045  18.633  0.00  0.00    +0.000 N 
ATOM      8  C   UNL     1      -1.396  10.716  18.870  0.00  0.00    +0.000 C 
ATOM      9  O   UNL     1      -1.853   9.604  18.571  0.00  0.00    +0.000 OA
ATOM     10  C   UNL     1      -2.545  11.965  19.584  0.00  0.00    +0.000 C 
ATOM     11  C   UNL     1      -1.812  13.519  20.398  0.00  0.00    +0.000 C 
ENDROOT
BRANCH   1  12
ATOM     12  C   UNL     1      -0.500  12.744  19.514  0.00  0.00    +0.000 C 
ATOM     13  O   UNL     1      -0.819  12.938  18.316  0.00  0.00    +0.000 OA
BRANCH  12  14
ATOM     14  O   UNL     1      -0.891  11.840  20.865  0.00  0.00    +0.000 OA
BRANCH  14  16
ATOM     15  C   UNL     1      -0.642  10.154  22.883  0.00  0.00    +0.000 C 
ATOM     16  C   UNL     1      -0.101  11.304  22.039  0.00  0.00    +0.000 C 
ENDBRANCH  14  16
ENDBRANCH  12  14
ENDBRANCH   1  12
BRANCH   7  17
ATOM     17  C   UNL     1       0.858  10.070  17.792  0.00  0.00    +0.000 C 
BRANCH  17  18
ATOM     18  C   UNL     1       1.520   8.939  18.537  0.00  0.00    +0.000 A 
ATOM     19  C   UNL     1       1.245   8.786  19.901  0.00  0.00    +0.000 A 
ATOM     20  C   UNL     1       1.719   7.679  20.602  0.00  0.00    +0.000 A 
ATOM     21  C   UNL     1       2.469   6.706  19.945  0.00  0.00    +0.000 A 
ATOM     22  C   UNL     1       2.758   6.847  18.589  0.00  0.00    +0.000 A 
ATOM     23  C   UNL     1       2.288   7.959  17.886  0.00  0.00    +0.000 A 
ENDBRANCH  17  18
ENDBRANCH   7  17
BRANCH  10  24
ATOM     24  C   UNL     1      -3.484  12.254  18.367  0.00  0.00    +0.000 C 
BRANCH  24  25
ATOM     25  C   UNL     1      -4.850  11.652  18.470  0.00  0.00    +0.000 C 
ATOM     26  O   UNL     1      -5.120  10.613  17.842  0.00  0.00    +0.000 OA
ATOM     27  N   UNL     1      -5.794  12.266  19.265  0.00  0.00    +0.000 N 
ATOM     28  C   UNL     1      -5.672  13.458  20.096  0.00  0.00    +0.000 C 
ATOM     29  C   UNL     1      -6.082  12.922  21.457  0.00  0.00    +0.000 C 
ATOM     30  C   UNL     1      -7.222  11.957  21.123  0.00  0.00    +0.000 C 
ATOM     31  C   UNL     1      -6.963  11.520  19.680  0.00  0.00    +0.000 C 
ENDBRANCH  24  25
ENDBRANCH  10  24
TORSDOF 7
ENDMDL
MODEL 4
REMARK VINA RESULT:      -6.8      3.247      8.733
REMARK  Name = 
REMARK  8 active torsions:
REMARK  status: ('A' for Active; 'I' for Inactive)
REMARK    1  A    between atoms: C_1  and  C_2
REMARK    2  A    between atoms: C_2  and  O_3
REMARK    3  A    between atoms: O_3  and  C_4
REMARK    4  A    between atoms: C_4  and  C_6
REMARK    5  A    between atoms: N_12  and  C_13
REMARK    6  A    between atoms: C_13  and  C_14
REMARK    7  A    between atoms: C_22  and  C_23
REMARK    8  A    between atoms: C_23  and  C_24
REMARK                            x       y       z     vdW  Elec       q    Type
REMARK                         _______ _______ _______ _____ _____    ______ ____
ROOT
ATOM      1  C   UNL     1       1.068  12.026  18.539  0.00  0.00    +0.000 C 
ATOM      2  C   UNL     1       2.458  12.691  18.493  0.00  0.00    +0.000 C 
ATOM      3  C   UNL     1       2.559  14.042  19.216  0.00  0.00    +0.000 C 
ATOM      4  C   UNL     1       1.211  14.651  19.627  0.00  0.00    +0.000 C 
ATOM      5  C   UNL     1       0.445  13.735  20.557  0.00  0.00    +0.000 C 
ATOM      6  C   UNL     1       0.326  12.437  20.214  0.00  0.00    +0.000 C 
ATOM      7  N   UNL     1      -0.246  11.216  21.226  0.00  0.00    +0.000 N 
ATOM      8  C   UNL     1      -0.209   9.613  20.855  0.00  0.00    +0.000 C 
ATOM      9  O   UNL     1      -0.829   8.799  21.553  0.00  0.00    +0.000 OA
ATOM     10  C   UNL     1       0.735   8.976  19.408  0.00  0.00    +0.000 C 
ATOM     11  C   UNL     1       1.370  10.217  18.115  0.00  0.00    +0.000 C 
ENDROOT
BRANCH   1  12
ATOM     12  C   UNL     1       0.855  11.160  19.511  0.00  0.00    +0.000 C 
ATOM     13  O   UNL     1       1.720  10.889  20.379  0.00  0.00    +0.000 OA
BRANCH  12  14
ATOM     14  O   UNL     1      -0.468  10.525  18.708  0.00  0.00    +0.000 OA
BRANCH  14  16
ATOM     15  C   UNL     1      -2.789  10.226  17.484  0.00  0.00    +0.000 C 
ATOM     16  C   UNL     1      -1.729  11.119  18.123  0.00  0.00    +0.000 C 
ENDBRANCH  14  16
ENDBRANCH  12  14
ENDBRANCH   1  12
BRANCH   7  17
ATOM     17  C   UNL     1      -0.771  11.479  22.547  0.00  0.00    +0.000 C 
BRANCH  17  18
ATOM     18  C   UNL     1      -2.199  11.957  22.575  0.00  0.00    +0.000 A 
ATOM     19  C   UNL     1      -2.848  12.050  23.811  0.00  0.00    +0.000 A 
ATOM     20  C   UNL     1      -4.118  12.617  23.906  0.00  0.00    +0.000 A 
ATOM     21  C   UNL     1      -4.752  13.105  22.766  0.00  0.00    +0.000 A 
ATOM     22  C   UNL     1      -4.122  13.013  21.526  0.00  0.00    +0.000 A 
ATOM     23  C   UNL     1      -2.851  12.440  21.428  0.00  0.00    +0.000 A 
ENDBRANCH  17  18
ENDBRANCH   7  17
BRANCH  10  24
ATOM     24  C   UNL     1       1.858   8.144  20.111  0.00  0.00    +0.000 C 
BRANCH  24  25
ATOM     25  C   UNL     1       2.460   7.064  19.269  0.00  0.00    +0.000 C 
ATOM     26  O   UNL     1       3.232   7.357  18.340  0.00  0.00    +0.000 OA
ATOM     27  N   UNL     1       2.145   5.750  19.542  0.00  0.00    +0.000 N 
ATOM     28  C   UNL     1       1.296   5.198  20.591  0.00  0.00    +0.000 C 
ATOM     29  C   UNL     1       2.253   4.245  21.285  0.00  0.00    +0.000 C 
ATOM     30  C   UNL     1       3.053   3.647  20.126  0.00  0.00    +0.000 C 
ATOM     31  C   UNL     1       2.986   4.696  19.014  0.00  0.00    +0.000 C 
ENDBRANCH  24  25
ENDBRANCH  10  24
TORSDOF 7
ENDMDL
MODEL 5
REMARK VINA RESULT:      -6.8      3.193      8.714
REMARK  Name = 
REMARK  8 active torsions:
REMARK  status: ('A' for Active; 'I' for Inactive)
REMARK    1  A    between atoms: C_1  and  C_2
REMARK    2  A    between atoms: C_2  and  O_3
REMARK    3  A    between atoms: O_3  and  C_4
REMARK    4  A    between atoms: C_4  and  C_6
REMARK    5  A    between atoms: N_12  and  C_13
REMARK    6  A    between atoms: C_13  and  C_14
REMARK    7  A    between atoms: C_22  and  C_23
REMARK    8  A    between atoms: C_23  and  C_24
REMARK                            x       y       z     vdW  Elec       q    Type
REMARK                         _______ _______ _______ _____ _____    ______ ____
ROOT
ATOM      1  C   UNL     1       1.042  11.670  18.409  0.00  0.00    +0.000 C 
ATOM      2  C   UNL     1       2.421  12.344  18.259  0.00  0.00    +0.000 C 
ATOM      3  C   UNL     1       2.507  13.779  18.800  0.00  0.00    +0.000 C 
ATOM      4  C   UNL     1       1.155  14.416  19.145  0.00  0.00    +0.000 C 
ATOM      5  C   UNL     1       0.413  13.618  20.196  0.00  0.00    +0.000 C 
ATOM      6  C   UNL     1       0.312  12.284  20.026  0.00  0.00    +0.000 C 
ATOM      7  N   UNL     1      -0.229  11.197  21.195  0.00  0.00    +0.000 N 
ATOM      8  C   UNL     1      -0.170   9.560  21.034  0.00  0.00    +0.000 C 
ATOM      9  O   UNL     1      -0.770   8.835  21.840  0.00  0.00    +0.000 OA
ATOM     10  C   UNL     1       0.768   8.754  19.670  0.00  0.00    +0.000 C 
ATOM     11  C   UNL     1       1.369   9.826  18.219  0.00  0.00    +0.000 C 
ENDROOT
BRANCH   1  12
ATOM     12  C   UNL     1       0.853  10.934  19.487  0.00  0.00    +0.000 C 
ATOM     13  O   UNL     1       1.743  10.768  20.358  0.00  0.00    +0.000 OA
BRANCH  12  14
ATOM     14  O   UNL     1      -0.496  10.216  18.810  0.00  0.00    +0.000 OA
BRANCH  14  16
ATOM     15  C   UNL     1      -2.725   9.815  17.452  0.00  0.00    +0.000 C 
ATOM     16  C   UNL     1      -1.780  10.743  18.210  0.00  0.00    +0.000 C 
ENDBRANCH  14  16
ENDBRANCH  12  14
ENDBRANCH   1  12
BRANCH   7  17
ATOM     17  C   UNL     1      -0.744  11.621  22.478  0.00  0.00    +0.000 C 
BRANCH  17  18
ATOM     18  C   UNL     1      -2.191  12.038  22.470  0.00  0.00    +0.000 A 
ATOM     19  C   UNL     1      -2.871  12.118  23.691  0.00  0.00    +0.000 A 
ATOM     20  C   UNL     1      -4.164  12.631  23.752  0.00  0.00    +0.000 A 
ATOM     21  C   UNL     1      -4.794  13.079  22.593  0.00  0.00    +0.000 A 
ATOM     22  C   UNL     1      -4.134  13.001  21.367  0.00  0.00    +0.000 A 
ATOM     23  C   UNL     1      -2.839  12.481  21.304  0.00  0.00    +0.000 A 
ENDBRANCH  17  18
ENDBRANCH   7  17
BRANCH  10  24
ATOM     24  C   UNL     1       1.912   8.037  20.461  0.00  0.00    +0.000 C 
BRANCH  24  25
ATOM     25  C   UNL     1       1.924   6.546  20.336  0.00  0.00    +0.000 C 
ATOM     26  O   UNL     1       1.062   5.867  20.919  0.00  0.00    +0.000 OA
ATOM     27  N   UNL     1       2.901   5.948  19.569  0.00  0.00    +0.000 N 
ATOM     28  C   UNL     1       3.972   6.558  18.790  0.00  0.00    +0.000 C 
ATOM     29  C   UNL     1       3.704   5.986  17.408  0.00  0.00    +0.000 C 
ATOM     30  C   UNL     1       3.276   4.546  17.703  0.00  0.00    +0.000 C 
ATOM     31  C   UNL     1       2.714   4.582  19.126  0.00  0.00    +0.000 C 
ENDBRANCH  24  25
ENDBRANCH  10  24
TORSDOF 7
ENDMDL
MODEL 6
REMARK VINA RESULT:      -6.7      8.936     10.554
REMARK  Name = 
REMARK  8 active torsions:
REMARK  status: ('A' for Active; 'I' for Inactive)
REMARK    1  A    between atoms: C_1  and  C_2
REMARK    2  A    between atoms: C_2  and  O_3
REMARK    3  A    between atoms: O_3  and  C_4
REMARK    4  A    between atoms: C_4  and  C_6
REMARK    5  A    between atoms: N_12  and  C_13
REMARK    6  A    between atoms: C_13  and  C_14
REMARK    7  A    between atoms: C_22  and  C_23
REMARK    8  A    between atoms: C_23  and  C_24
REMARK                            x       y       z     vdW  Elec       q    Type
REMARK                         _______ _______ _______ _____ _____    ______ ____
ROOT
ATOM      1  C   UNL     1       9.899  14.098  18.070  0.00  0.00    +0.000 C 
ATOM      2  C   UNL     1       9.618  12.670  17.562  0.00  0.00    +0.000 C 
ATOM      3  C   UNL     1      10.500  11.574  18.178  0.00  0.00    +0.000 C 
ATOM      4  C   UNL     1      11.700  12.094  18.982  0.00  0.00    +0.000 C 
ATOM      5  C   UNL     1      11.261  12.973  20.133  0.00  0.00    +0.000 C 
ATOM      6  C   UNL     1      10.364  13.948  19.882  0.00  0.00    +0.000 C 
ATOM      7  N   UNL     1       9.557  14.847  21.057  0.00  0.00    +0.000 N 
ATOM      8  C   UNL     1       8.332  15.900  20.737  0.00  0.00    +0.000 C 
ATOM      9  O   UNL     1       7.930  16.671  21.619  0.00  0.00    +0.000 OA
ATOM     10  C   UNL     1       7.530  15.977  19.082  0.00  0.00    +0.000 C 
ATOM     11  C   UNL     1       8.366  15.095  17.620  0.00  0.00    +0.000 C 
ENDROOT
BRANCH   1  12
ATOM     12  C   UNL     1       9.168  14.525  19.082  0.00  0.00    +0.000 C 
ATOM     13  O   UNL     1       8.249  13.838  19.590  0.00  0.00    +0.000 OA
BRANCH  12  14
ATOM     14  O   UNL     1       9.667  16.101  18.829  0.00  0.00    +0.000 OA
BRANCH  14  16
ATOM     15  C   UNL     1      11.016  18.008  17.597  0.00  0.00    +0.000 C 
ATOM     16  C   UNL     1      10.983  16.740  18.445  0.00  0.00    +0.000 C 
ENDBRANCH  14  16
ENDBRANCH  12  14
ENDBRANCH   1  12
BRANCH   7  17
ATOM     17  C   UNL     1       9.839  14.721  22.469  0.00  0.00    +0.000 C 
BRANCH  17  18
ATOM     18  C   UNL     1       8.913  13.799  23.218  0.00  0.00    +0.000 A 
ATOM     19  C   UNL     1       8.721  12.502  22.727  0.00  0.00    +0.000 A 
ATOM     20  C   UNL     1       7.987  11.568  23.456  0.00  0.00    +0.000 A 
ATOM     21  C   UNL     1       7.441  11.917  24.689  0.00  0.00    +0.000 A 
ATOM     22  C   UNL     1       7.616  13.207  25.188  0.00  0.00    +0.000 A 
ATOM     23  C   UNL     1       8.347  14.146  24.457  0.00  0.00    +0.000 A 
ENDBRANCH  17  18
ENDBRANCH   7  17
BRANCH  10  24
ATOM     24  C   UNL     1       6.090  15.461  19.410  0.00  0.00    +0.000 C 
BRANCH  24  25
ATOM     25  C   UNL     1       5.030  16.518  19.422  0.00  0.00    +0.000 C 
ATOM     26  O   UNL     1       5.342  17.712  19.274  0.00  0.00    +0.000 OA
ATOM     27  N   UNL     1       3.716  16.144  19.599  0.00  0.00    +0.000 N 
ATOM     28  C   UNL     1       3.143  14.812  19.758  0.00  0.00    +0.000 C 
ATOM     29  C   UNL     1       2.133  14.779  18.624  0.00  0.00    +0.000 C 
ATOM     30  C   UNL     1       1.563  16.200  18.622  0.00  0.00    +0.000 C 
ATOM     31  C   UNL     1       2.662  17.069  19.238  0.00  0.00    +0.000 C 
ENDBRANCH  24  25
ENDBRANCH  10  24
TORSDOF 7
ENDMDL
MODEL 7
REMARK VINA RESULT:      -6.6      7.541     10.370
REMARK  Name = 
REMARK  8 active torsions:
REMARK  status: ('A' for Active; 'I' for Inactive)
REMARK    1  A    between atoms: C_1  and  C_2
REMARK    2  A    between atoms: C_2  and  O_3
REMARK    3  A    between atoms: O_3  and  C_4
REMARK    4  A    between atoms: C_4  and  C_6
REMARK    5  A    between atoms: N_12  and  C_13
REMARK    6  A    between atoms: C_13  and  C_14
REMARK    7  A    between atoms: C_22  and  C_23
REMARK    8  A    between atoms: C_23  and  C_24
REMARK                            x       y       z     vdW  Elec       q    Type
REMARK                         _______ _______ _______ _____ _____    ______ ____
ROOT
ATOM      1  C   UNL     1      -1.014  11.163  19.421  0.00  0.00    +0.000 C 
ATOM      2  C   UNL     1      -1.225  11.242  17.895  0.00  0.00    +0.000 C 
ATOM      3  C   UNL     1      -2.674  11.485  17.449  0.00  0.00    +0.000 C 
ATOM      4  C   UNL     1      -3.721  11.334  18.560  0.00  0.00    +0.000 C 
ATOM      5  C   UNL     1      -3.468  12.297  19.701  0.00  0.00    +0.000 C 
ATOM      6  C   UNL     1      -2.217  12.379  20.196  0.00  0.00    +0.000 C 
ATOM      7  N   UNL     1      -1.674  13.563  21.266  0.00  0.00    +0.000 N 
ATOM      8  C   UNL     1      -0.102  13.757  21.714  0.00  0.00    +0.000 C 
ATOM      9  O   UNL     1       0.188  14.510  22.653  0.00  0.00    +0.000 OA
ATOM     10  C   UNL     1       1.264  12.873  20.854  0.00  0.00    +0.000 C 
ATOM     11  C   UNL     1       0.829  11.440  19.682  0.00  0.00    +0.000 C 
ENDROOT
BRANCH   1  12
ATOM     12  C   UNL     1      -0.677  12.282  20.033  0.00  0.00    +0.000 C 
ATOM     13  O   UNL     1      -0.543  13.373  19.426  0.00  0.00    +0.000 OA
BRANCH  12  14
ATOM     14  O   UNL     1      -0.157  11.436  21.378  0.00  0.00    +0.000 OA
BRANCH  14  16
ATOM     15  C   UNL     1      -0.121   9.444  23.111  0.00  0.00    +0.000 C 
ATOM     16  C   UNL     1      -0.851  10.596  22.427  0.00  0.00    +0.000 C 
ENDBRANCH  14  16
ENDBRANCH  12  14
ENDBRANCH   1  12
BRANCH   7  17
ATOM     17  C   UNL     1      -2.553  14.558  21.842  0.00  0.00    +0.000 C 
BRANCH  17  18
ATOM     18  C   UNL     1      -3.590  14.011  22.787  0.00  0.00    +0.000 A 
ATOM     19  C   UNL     1      -4.937  14.307  22.546  0.00  0.00    +0.000 A 
ATOM     20  C   UNL     1      -5.942  13.714  23.306  0.00  0.00    +0.000 A 
ATOM     21  C   UNL     1      -5.615  12.809  24.313  0.00  0.00    +0.000 A 
ATOM     22  C   UNL     1      -4.279  12.508  24.571  0.00  0.00    +0.000 A 
ATOM     23  C   UNL     1      -3.269  13.106  23.814  0.00  0.00    +0.000 A 
ENDBRANCH  17  18
ENDBRANCH   7  17
BRANCH  10  24
ATOM     24  C   UNL     1       2.022  14.059  20.171  0.00  0.00    +0.000 C 
BRANCH  24  25
ATOM     25  C   UNL     1       3.374  14.353  20.740  0.00  0.00    +0.000 C 
ATOM     26  O   UNL     1       3.668  13.955  21.880  0.00  0.00    +0.000 OA
ATOM     27  N   UNL     1       4.276  15.069  19.983  0.00  0.00    +0.000 N 
ATOM     28  C   UNL     1       4.141  15.595  18.630  0.00  0.00    +0.000 C 
ATOM     29  C   UNL     1       5.329  14.952  17.934  0.00  0.00    +0.000 C 
ATOM     30  C   UNL     1       6.426  15.001  19.001  0.00  0.00    +0.000 C 
ATOM     31  C   UNL     1       5.680  15.035  20.337  0.00  0.00    +0.000 C 
ENDBRANCH  24  25
ENDBRANCH  10  24
TORSDOF 7
ENDMDL
MODEL 8
REMARK VINA RESULT:      -6.6      4.716      8.809
REMARK  Name = 
REMARK  8 active torsions:
REMARK  status: ('A' for Active; 'I' for Inactive)
REMARK    1  A    between atoms: C_1  and  C_2
REMARK    2  A    between atoms: C_2  and  O_3
REMARK    3  A    between atoms: O_3  and  C_4
REMARK    4  A    between atoms: C_4  and  C_6
REMARK    5  A    between atoms: N_12  and  C_13
REMARK    6  A    between atoms: C_13  and  C_14
REMARK    7  A    between atoms: C_22  and  C_23
REMARK    8  A    between atoms: C_23  and  C_24
REMARK                            x       y       z     vdW  Elec       q    Type
REMARK                         _______ _______ _______ _____ _____    ______ ____
ROOT
ATOM      1  C   UNL     1       0.200  13.778  20.298  0.00  0.00    +0.000 C 
ATOM      2  C   UNL     1       0.378  15.140  19.598  0.00  0.00    +0.000 C 
ATOM      3  C   UNL     1       1.682  15.297  18.802  0.00  0.00    +0.000 C 
ATOM      4  C   UNL     1       2.723  14.198  19.053  0.00  0.00    +0.000 C 
ATOM      5  C   UNL     1       2.183  12.828  18.703  0.00  0.00    +0.000 C 
ATOM      6  C   UNL     1       0.967  12.486  19.173  0.00  0.00    +0.000 C 
ATOM      7  N   UNL     1       0.084  11.136  18.684  0.00  0.00    +0.000 N 
ATOM      8  C   UNL     1      -1.472  10.836  19.129  0.00  0.00    +0.000 C 
ATOM      9  O   UNL     1      -1.982   9.731  18.900  0.00  0.00    +0.000 OA
ATOM     10  C   UNL     1      -2.498  12.108  19.977  0.00  0.00    +0.000 C 
ATOM     11  C   UNL     1      -1.640  13.653  20.677  0.00  0.00    +0.000 C 
ENDROOT
BRANCH   1  12
ATOM     12  C   UNL     1      -0.467  12.852  19.636  0.00  0.00    +0.000 C 
ATOM     13  O   UNL     1      -0.888  13.026  18.466  0.00  0.00    +0.000 OA
BRANCH  12  14
ATOM     14  O   UNL     1      -0.770  12.006  21.047  0.00  0.00    +0.000 OA
BRANCH  14  16
ATOM     15  C   UNL     1      -0.477  10.133  22.886  0.00  0.00    +0.000 C 
ATOM     16  C   UNL     1       0.100  11.261  22.035  0.00  0.00    +0.000 C 
ENDBRANCH  14  16
ENDBRANCH  12  14
ENDBRANCH   1  12
BRANCH   7  17
ATOM     17  C   UNL     1       0.612  10.145  17.772  0.00  0.00    +0.000 C 
BRANCH  17  18
ATOM     18  C   UNL     1       1.408   9.046  18.426  0.00  0.00    +0.000 A 
ATOM     19  C   UNL     1       1.203   8.793  19.788  0.00  0.00    +0.000 A 
ATOM     20  C   UNL     1       1.809   7.701  20.406  0.00  0.00    +0.000 A 
ATOM     21  C   UNL     1       2.621   6.843  19.668  0.00  0.00    +0.000 A 
ATOM     22  C   UNL     1       2.841   7.085  18.313  0.00  0.00    +0.000 A 
ATOM     23  C   UNL     1       2.239   8.183  17.693  0.00  0.00    +0.000 A 
ENDBRANCH  17  18
ENDBRANCH   7  17
BRANCH  10  24
ATOM     24  C   UNL     1      -3.583  12.408  18.890  0.00  0.00    +0.000 C 
BRANCH  24  25
ATOM     25  C   UNL     1      -4.994  12.378  19.385  0.00  0.00    +0.000 C 
ATOM     26  O   UNL     1      -5.224  12.264  20.601  0.00  0.00    +0.000 OA
ATOM     27  N   UNL     1      -6.024  12.477  18.474  0.00  0.00    +0.000 N 
ATOM     28  C   UNL     1      -5.970  12.644  17.027  0.00  0.00    +0.000 C 
ATOM     29  C   UNL     1      -6.787  13.910  16.837  0.00  0.00    +0.000 C 
ATOM     30  C   UNL     1      -7.917  13.752  17.859  0.00  0.00    +0.000 C 
ATOM     31  C   UNL     1      -7.349  12.831  18.940  0.00  0.00    +0.000 C 
ENDBRANCH  24  25
ENDBRANCH  10  24
TORSDOF 7
ENDMDL
MODEL 9
REMARK VINA RESULT:      -6.5      8.531     11.352
REMARK  Name = 
REMARK  8 active torsions:
REMARK  status: ('A' for Active; 'I' for Inactive)
REMARK    1  A    between atoms: C_1  and  C_2
REMARK    2  A    between atoms: C_2  and  O_3
REMARK    3  A    between atoms: O_3  and  C_4
REMARK    4  A    between atoms: C_4  and  C_6
REMARK    5  A    between atoms: N_12  and  C_13
REMARK    6  A    between atoms: C_13  and  C_14
REMARK    7  A    between atoms: C_22  and  C_23
REMARK    8  A    between atoms: C_23  and  C_24
REMARK                            x       y       z     vdW  Elec       q    Type
REMARK                         _______ _______ _______ _____ _____    ______ ____
ROOT
ATOM      1  C   UNL     1       9.062  13.953  22.264  0.00  0.00    +0.000 C 
ATOM      2  C   UNL     1       9.171  12.430  22.053  0.00  0.00    +0.000 C 
ATOM      3  C   UNL     1       8.089  11.596  22.756  0.00  0.00    +0.000 C 
ATOM      4  C   UNL     1       7.244  12.370  23.776  0.00  0.00    +0.000 C 
ATOM      5  C   UNL     1       6.522  13.535  23.133  0.00  0.00    +0.000 C 
ATOM      6  C   UNL     1       7.231  14.360  22.336  0.00  0.00    +0.000 C 
ATOM      7  N   UNL     1       6.569  15.538  21.328  0.00  0.00    +0.000 N 
ATOM      8  C   UNL     1       7.433  16.406  20.228  0.00  0.00    +0.000 C 
ATOM      9  O   UNL     1       6.922  17.389  19.674  0.00  0.00    +0.000 OA
ATOM     10  C   UNL     1       9.165  15.964  19.791  0.00  0.00    +0.000 C 
ATOM     11  C   UNL     1      10.094  14.719  20.888  0.00  0.00    +0.000 C 
ENDROOT
BRANCH   1  12
ATOM     12  C   UNL     1       8.396  14.634  21.351  0.00  0.00    +0.000 C 
ATOM     13  O   UNL     1       7.889  14.092  20.338  0.00  0.00    +0.000 OA
BRANCH  12  14
ATOM     14  O   UNL     1       9.024  16.078  21.912  0.00  0.00    +0.000 OA
BRANCH  14  16
ATOM     15  C   UNL     1      10.501  16.877  23.951  0.00  0.00    +0.000 C 
ATOM     16  C   UNL     1       9.141  16.715  23.279  0.00  0.00    +0.000 C 
ENDBRANCH  14  16
ENDBRANCH  12  14
ENDBRANCH   1  12
BRANCH   7  17
ATOM     17  C   UNL     1       5.156  15.844  21.306  0.00  0.00    +0.000 C 
BRANCH  17  18
ATOM     18  C   UNL     1       4.326  14.930  20.443  0.00  0.00    +0.000 A 
ATOM     19  C   UNL     1       3.354  14.131  21.056  0.00  0.00    +0.000 A 
ATOM     20  C   UNL     1       2.469  13.375  20.291  0.00  0.00    +0.000 A 
ATOM     21  C   UNL     1       2.539  13.414  18.901  0.00  0.00    +0.000 A 
ATOM     22  C   UNL     1       3.506  14.198  18.273  0.00  0.00    +0.000 A 
ATOM     23  C   UNL     1       4.398  14.953  19.040  0.00  0.00    +0.000 A 
ENDBRANCH  17  18
ENDBRANCH   7  17
BRANCH  10  24
ATOM     24  C   UNL     1       9.006  15.518  18.300  0.00  0.00    +0.000 C 
BRANCH  24  25
ATOM     25  C   UNL     1      10.253  14.989  17.665  0.00  0.00    +0.000 C 
ATOM     26  O   UNL     1      11.169  15.767  17.349  0.00  0.00    +0.000 OA
ATOM     27  N   UNL     1      10.364  13.633  17.440  0.00  0.00    +0.000 N 
ATOM     28  C   UNL     1       9.430  12.560  17.759  0.00  0.00    +0.000 C 
ATOM     29  C   UNL     1      10.296  11.648  18.611  0.00  0.00    +0.000 C 
ATOM     30  C   UNL     1      11.660  11.715  17.919  0.00  0.00    +0.000 C 
ATOM     31  C   UNL     1      11.672  13.062  17.193  0.00  0.00    +0.000 C 
ENDBRANCH  24  25
ENDBRANCH  10  24
TORSDOF 7
ENDMDL
