MODEL 1
REMARK VINA RESULT:      -5.2      0.000      0.000
REMARK  Name = 
REMARK  10 active torsions:
REMARK  status: ('A' for Active; 'I' for Inactive)
REMARK    1  A    between atoms: N_1  and  CA_2
REMARK    2  A    between atoms: CA_2  and  C_3
REMARK    3  A    between atoms: CA_2  and  C_12
REMARK    4  A    between atoms: C_3  and  C_4
REMARK    5  A    between atoms: C_4  and  C_5
REMARK    6  A    between atoms: C_5  and  CA_7
REMARK    7  A    between atoms: CA_7  and  N_8
REMARK    8  A    between atoms: CA_7  and  C_9
REMARK    9  A    between atoms: C_9  and  OXT_11
REMARK   10  A    between atoms: C_12  and  OXT_14
REMARK                            x       y       z     vdW  Elec       q    Type
REMARK                         _______ _______ _______ _____ _____    ______ ____
ROOT
ATOM      1  C   UNL     1       4.127   4.989  16.952  0.00  0.00    +0.000 C 
ENDROOT
BRANCH   1   2
ATOM      2  C   UNL     1       2.972   4.208  17.593  0.00  0.00    +0.000 C 
ATOM      3  F   UNL     1       1.863   5.014  17.605  0.00  0.00    +0.000 F 
BRANCH   2   4
ATOM      4  CA  UNL     1       3.268   3.818  19.048  0.00  0.00    +0.000 C 
BRANCH   4   5
ATOM      5  N   UNL     1       4.178   4.796  19.709  0.00  0.00    +0.000 NA
ATOM      6  H1  UNL     1       4.616   4.324  20.506  0.00  0.00    +0.000 HD
ATOM      7  H2  UNL     1       3.585   5.498  20.165  0.00  0.00    +0.000 HD
ENDBRANCH   4   5
BRANCH   4   8
ATOM      8  C   UNL     1       3.893   2.413  19.117  0.00  0.00    +0.000 C 
ATOM      9  O   UNL     1       3.366   1.418  18.633  0.00  0.00    +0.000 OA
BRANCH   8  10
ATOM     10  OXT UNL     1       5.104   2.363  19.709  0.00  0.00    +0.000 OA
ATOM     11  HXT UNL     1       5.677   1.627  19.394  0.00  0.00    +0.000 HD
ENDBRANCH   8  10
ENDBRANCH   4   8
ENDBRANCH   2   4
ENDBRANCH   1   2
BRANCH   1  12
ATOM     12  C   UNL     1       5.040   4.094  16.103  0.00  0.00    +0.000 C 
BRANCH  12  13
ATOM     13  CA  UNL     1       6.535   4.172  16.474  0.00  0.00    +0.000 C 
BRANCH  13  14
ATOM     14  N   UNL     1       6.773   4.284  17.935  0.00  0.00    +0.000 NA
ATOM     15  H1  UNL     1       6.819   5.277  18.173  0.00  0.00    +0.000 HD
ATOM     16  H2  UNL     1       7.707   3.932  18.151  0.00  0.00    +0.000 HD
ENDBRANCH  13  14
BRANCH  13  17
ATOM     17  C   UNL     1       7.251   5.327  15.753  0.00  0.00    +0.000 C 
ATOM     18  O   UNL     1       7.612   5.313  14.583  0.00  0.00    +0.000 OA
BRANCH  17  19
ATOM     19  OXT UNL     1       7.464   6.383  16.577  0.00  0.00    +0.000 OA
ATOM     20  HXT UNL     1       7.095   7.184  16.128  0.00  0.00    +0.000 HD
ENDBRANCH  17  19
ENDBRANCH  13  17
ENDBRANCH  12  13
ENDBRANCH   1  12
TORSDOF 10
ENDMDL
MODEL 2
REMARK VINA RESULT:      -5.2      3.269      3.826
REMARK  Name = 
REMARK  10 active torsions:
REMARK  status: ('A' for Active; 'I' for Inactive)
REMARK    1  A    between atoms: N_1  and  CA_2
REMARK    2  A    between atoms: CA_2  and  C_3
REMARK    3  A    between atoms: CA_2  and  C_12
REMARK    4  A    between atoms: C_3  and  C_4
REMARK    5  A    between atoms: C_4  and  C_5
REMARK    6  A    between atoms: C_5  and  CA_7
REMARK    7  A    between atoms: CA_7  and  N_8
REMARK    8  A    between atoms: CA_7  and  C_9
REMARK    9  A    between atoms: C_9  and  OXT_11
REMARK   10  A    between atoms: C_12  and  OXT_14
REMARK                            x       y       z     vdW  Elec       q    Type
REMARK                         _______ _______ _______ _____ _____    ______ ____
ROOT
ATOM      1  C   UNL     1       5.294   5.937  15.630  0.00  0.00    +0.000 C 
ENDROOT
BRANCH   1   2
ATOM      2  C   UNL     1       5.396   5.571  17.117  0.00  0.00    +0.000 C 
ATOM      3  F   UNL     1       4.298   6.080  17.761  0.00  0.00    +0.000 F 
BRANCH   2   4
ATOM      4  CA  UNL     1       6.638   6.179  17.784  0.00  0.00    +0.000 C 
BRANCH   4   5
ATOM      5  N   UNL     1       7.297   7.190  16.909  0.00  0.00    +0.000 NA
ATOM      6  H1  UNL     1       8.221   6.828  16.657  0.00  0.00    +0.000 HD
ATOM      7  H2  UNL     1       7.527   7.995  17.501  0.00  0.00    +0.000 HD
ENDBRANCH   4   5
BRANCH   4   8
ATOM      8  C   UNL     1       7.653   5.080  18.146  0.00  0.00    +0.000 C 
ATOM      9  O   UNL     1       8.074   4.260  17.336  0.00  0.00    +0.000 OA
BRANCH   8  10
ATOM     10  OXT UNL     1       8.095   5.117  19.419  0.00  0.00    +0.000 OA
ATOM     11  HXT UNL     1       7.956   4.280  19.919  0.00  0.00    +0.000 HD
ENDBRANCH   8  10
ENDBRANCH   4   8
ENDBRANCH   2   4
ENDBRANCH   1   2
BRANCH   1  12
ATOM     12  C   UNL     1       5.364   4.705  14.717  0.00  0.00    +0.000 C 
BRANCH  12  13
ATOM     13  CA  UNL     1       6.780   4.361  14.216  0.00  0.00    +0.000 C 
BRANCH  13  14
ATOM     14  N   UNL     1       7.749   5.474  14.382  0.00  0.00    +0.000 NA
ATOM     15  H1  UNL     1       8.692   5.078  14.364  0.00  0.00    +0.000 HD
ATOM     16  H2  UNL     1       7.659   5.861  15.323  0.00  0.00    +0.000 HD
ENDBRANCH  13  14
BRANCH  13  17
ATOM     17  C   UNL     1       6.781   3.902  12.747  0.00  0.00    +0.000 C 
ATOM     18  O   UNL     1       7.290   4.514  11.817  0.00  0.00    +0.000 OA
BRANCH  17  19
ATOM     19  OXT UNL     1       6.124   2.726  12.586  0.00  0.00    +0.000 OA
ATOM     20  HXT UNL     1       6.217   2.220  13.433  0.00  0.00    +0.000 HD
ENDBRANCH  17  19
ENDBRANCH  13  17
ENDBRANCH  12  13
ENDBRANCH   1  12
TORSDOF 10
ENDMDL
MODEL 3
REMARK VINA RESULT:      -5.2      1.696      1.922
REMARK  Name = 
REMARK  10 active torsions:
REMARK  status: ('A' for Active; 'I' for Inactive)
REMARK    1  A    between atoms: N_1  and  CA_2
REMARK    2  A    between atoms: CA_2  and  C_3
REMARK    3  A    between atoms: CA_2  and  C_12
REMARK    4  A    between atoms: C_3  and  C_4
REMARK    5  A    between atoms: C_4  and  C_5
REMARK    6  A    between atoms: C_5  and  CA_7
REMARK    7  A    between atoms: CA_7  and  N_8
REMARK    8  A    between atoms: CA_7  and  C_9
REMARK    9  A    between atoms: C_9  and  OXT_11
REMARK   10  A    between atoms: C_12  and  OXT_14
REMARK                            x       y       z     vdW  Elec       q    Type
REMARK                         _______ _______ _______ _____ _____    ______ ____
ROOT
ATOM      1  C   UNL     1       3.586   4.967  17.698  0.00  0.00    +0.000 C 
ENDROOT
BRANCH   1   2
ATOM      2  C   UNL     1       3.573   4.805  19.224  0.00  0.00    +0.000 C 
ATOM      3  F   UNL     1       4.667   5.454  19.734  0.00  0.00    +0.000 F 
BRANCH   2   4
ATOM      4  CA  UNL     1       3.674   3.335  19.655  0.00  0.00    +0.000 C 
BRANCH   4   5
ATOM      5  N   UNL     1       5.048   2.793  19.457  0.00  0.00    +0.000 NA
ATOM      6  H1  UNL     1       5.452   3.259  18.639  0.00  0.00    +0.000 HD
ATOM      7  H2  UNL     1       4.946   1.825  19.132  0.00  0.00    +0.000 HD
ENDBRANCH   4   5
BRANCH   4   8
ATOM      8  C   UNL     1       2.668   2.469  18.875  0.00  0.00    +0.000 C 
ATOM      9  O   UNL     1       1.457   2.663  18.895  0.00  0.00    +0.000 OA
BRANCH   8  10
ATOM     10  OXT UNL     1       3.223   1.504  18.115  0.00  0.00    +0.000 OA
ATOM     11  HXT UNL     1       2.881   0.599  18.297  0.00  0.00    +0.000 HD
ENDBRANCH   8  10
ENDBRANCH   4   8
ENDBRANCH   2   4
ENDBRANCH   1   2
BRANCH   1  12
ATOM     12  C   UNL     1       4.937   5.474  17.174  0.00  0.00    +0.000 C 
BRANCH  12  13
ATOM     13  CA  UNL     1       5.619   4.538  16.156  0.00  0.00    +0.000 C 
BRANCH  13  14
ATOM     14  N   UNL     1       5.404   3.098  16.445  0.00  0.00    +0.000 NA
ATOM     15  H1  UNL     1       6.303   2.619  16.350  0.00  0.00    +0.000 HD
ATOM     16  H2  UNL     1       4.825   2.690  15.709  0.00  0.00    +0.000 HD
ENDBRANCH  13  14
BRANCH  13  17
ATOM     17  C   UNL     1       7.127   4.813  16.034  0.00  0.00    +0.000 C 
ATOM     18  O   UNL     1       7.650   5.520  15.182  0.00  0.00    +0.000 OA
BRANCH  17  19
ATOM     19  OXT UNL     1       7.838   4.156  16.985  0.00  0.00    +0.000 OA
ATOM     20  HXT UNL     1       7.247   4.052  17.773  0.00  0.00    +0.000 HD
ENDBRANCH  17  19
ENDBRANCH  13  17
ENDBRANCH  12  13
ENDBRANCH   1  12
TORSDOF 10
ENDMDL
MODEL 4
REMARK VINA RESULT:      -5.2      2.112      2.431
REMARK  Name = 
REMARK  10 active torsions:
REMARK  status: ('A' for Active; 'I' for Inactive)
REMARK    1  A    between atoms: N_1  and  CA_2
REMARK    2  A    between atoms: CA_2  and  C_3
REMARK    3  A    between atoms: CA_2  and  C_12
REMARK    4  A    between atoms: C_3  and  C_4
REMARK    5  A    between atoms: C_4  and  C_5
REMARK    6  A    between atoms: C_5  and  CA_7
REMARK    7  A    between atoms: CA_7  and  N_8
REMARK    8  A    between atoms: CA_7  and  C_9
REMARK    9  A    between atoms: C_9  and  OXT_11
REMARK   10  A    between atoms: C_12  and  OXT_14
REMARK                            x       y       z     vdW  Elec       q    Type
REMARK                         _______ _______ _______ _____ _____    ______ ____
ROOT
ATOM      1  C   UNL     1       3.998   5.022  17.742  0.00  0.00    +0.000 C 
ENDROOT
BRANCH   1   2
ATOM      2  C   UNL     1       3.132   3.844  17.277  0.00  0.00    +0.000 C 
ATOM      3  F   UNL     1       1.820   4.149  17.531  0.00  0.00    +0.000 F 
BRANCH   2   4
ATOM      4  CA  UNL     1       3.455   2.549  18.035  0.00  0.00    +0.000 C 
BRANCH   4   5
ATOM      5  N   UNL     1       2.293   1.615  18.054  0.00  0.00    +0.000 NA
ATOM      6  H1  UNL     1       2.089   1.351  17.086  0.00  0.00    +0.000 HD
ATOM      7  H2  UNL     1       1.468   2.166  18.313  0.00  0.00    +0.000 HD
ENDBRANCH   4   5
BRANCH   4   8
ATOM      8  C   UNL     1       3.885   2.857  19.480  0.00  0.00    +0.000 C 
ATOM      9  O   UNL     1       3.100   3.212  20.354  0.00  0.00    +0.000 OA
BRANCH   8  10
ATOM     10  OXT UNL     1       5.193   2.654  19.735  0.00  0.00    +0.000 OA
ATOM     11  HXT UNL     1       5.746   2.525  18.932  0.00  0.00    +0.000 HD
ENDBRANCH   8  10
ENDBRANCH   4   8
ENDBRANCH   2   4
ENDBRANCH   1   2
BRANCH   1  12
ATOM     12  C   UNL     1       5.161   5.310  16.782  0.00  0.00    +0.000 C 
BRANCH  12  13
ATOM     13  CA  UNL     1       6.364   6.023  17.432  0.00  0.00    +0.000 C 
BRANCH  13  14
ATOM     14  N   UNL     1       7.396   6.445  16.452  0.00  0.00    +0.000 NA
ATOM     15  H1  UNL     1       8.068   7.043  16.939  0.00  0.00    +0.000 HD
ATOM     16  H2  UNL     1       6.970   7.062  15.759  0.00  0.00    +0.000 HD
ENDBRANCH  13  14
BRANCH  13  17
ATOM     17  C   UNL     1       7.023   5.168  18.528  0.00  0.00    +0.000 C 
ATOM     18  O   UNL     1       6.852   5.310  19.732  0.00  0.00    +0.000 OA
BRANCH  17  19
ATOM     19  OXT UNL     1       7.848   4.227  18.006  0.00  0.00    +0.000 OA
ATOM     20  HXT UNL     1       8.332   3.809  18.762  0.00  0.00    +0.000 HD
ENDBRANCH  17  19
ENDBRANCH  13  17
ENDBRANCH  12  13
ENDBRANCH   1  12
TORSDOF 10
ENDMDL
MODEL 5
REMARK VINA RESULT:      -5.2      2.134      4.840
REMARK  Name = 
REMARK  10 active torsions:
REMARK  status: ('A' for Active; 'I' for Inactive)
REMARK    1  A    between atoms: N_1  and  CA_2
REMARK    2  A    between atoms: CA_2  and  C_3
REMARK    3  A    between atoms: CA_2  and  C_12
REMARK    4  A    between atoms: C_3  and  C_4
REMARK    5  A    between atoms: C_4  and  C_5
REMARK    6  A    between atoms: C_5  and  CA_7
REMARK    7  A    between atoms: CA_7  and  N_8
REMARK    8  A    between atoms: CA_7  and  C_9
REMARK    9  A    between atoms: C_9  and  OXT_11
REMARK   10  A    between atoms: C_12  and  OXT_14
REMARK                            x       y       z     vdW  Elec       q    Type
REMARK                         _______ _______ _______ _____ _____    ______ ____
ROOT
ATOM      1  C   UNL     1       4.817   4.269  16.920  0.00  0.00    +0.000 C 
ENDROOT
BRANCH   1   2
ATOM      2  C   UNL     1       5.268   5.731  17.029  0.00  0.00    +0.000 C 
ATOM      3  F   UNL     1       4.774   6.415  15.949  0.00  0.00    +0.000 F 
BRANCH   2   4
ATOM      4  CA  UNL     1       6.796   5.874  16.998  0.00  0.00    +0.000 C 
BRANCH   4   5
ATOM      5  N   UNL     1       7.362   5.487  15.675  0.00  0.00    +0.000 NA
ATOM      6  H1  UNL     1       8.368   5.341  15.797  0.00  0.00    +0.000 HD
ATOM      7  H2  UNL     1       7.330   6.320  15.078  0.00  0.00    +0.000 HD
ENDBRANCH   4   5
BRANCH   4   8
ATOM      8  C   UNL     1       7.445   5.016  18.100  0.00  0.00    +0.000 C 
ATOM      9  O   UNL     1       7.202   5.158  19.293  0.00  0.00    +0.000 OA
BRANCH   8  10
ATOM     10  OXT UNL     1       8.268   4.048  17.650  0.00  0.00    +0.000 OA
ATOM     11  HXT UNL     1       8.997   3.817  18.270  0.00  0.00    +0.000 HD
ENDBRANCH   8  10
ENDBRANCH   4   8
ENDBRANCH   2   4
ENDBRANCH   1   2
BRANCH   1  12
ATOM     12  C   UNL     1       3.578   3.972  17.775  0.00  0.00    +0.000 C 
BRANCH  12  13
ATOM     13  CA  UNL     1       3.889   3.552  19.226  0.00  0.00    +0.000 C 
BRANCH  13  14
ATOM     14  N   UNL     1       5.164   2.806  19.361  0.00  0.00    +0.000 NA
ATOM     15  H1  UNL     1       5.921   3.487  19.459  0.00  0.00    +0.000 HD
ATOM     16  H2  UNL     1       5.370   2.328  18.482  0.00  0.00    +0.000 HD
ENDBRANCH  13  14
BRANCH  13  17
ATOM     17  C   UNL     1       2.749   2.728  19.849  0.00  0.00    +0.000 C 
ATOM     18  O   UNL     1       1.860   2.166  19.222  0.00  0.00    +0.000 OA
BRANCH  17  19
ATOM     19  OXT UNL     1       2.825   2.704  21.203  0.00  0.00    +0.000 OA
ATOM     20  HXT UNL     1       3.041   1.775  21.468  0.00  0.00    +0.000 HD
ENDBRANCH  17  19
ENDBRANCH  13  17
ENDBRANCH  12  13
ENDBRANCH   1  12
TORSDOF 10
ENDMDL
MODEL 6
REMARK VINA RESULT:      -5.2      1.670      4.818
REMARK  Name = 
REMARK  10 active torsions:
REMARK  status: ('A' for Active; 'I' for Inactive)
REMARK    1  A    between atoms: N_1  and  CA_2
REMARK    2  A    between atoms: CA_2  and  C_3
REMARK    3  A    between atoms: CA_2  and  C_12
REMARK    4  A    between atoms: C_3  and  C_4
REMARK    5  A    between atoms: C_4  and  C_5
REMARK    6  A    between atoms: C_5  and  CA_7
REMARK    7  A    between atoms: CA_7  and  N_8
REMARK    8  A    between atoms: CA_7  and  C_9
REMARK    9  A    between atoms: C_9  and  OXT_11
REMARK   10  A    between atoms: C_12  and  OXT_14
REMARK                            x       y       z     vdW  Elec       q    Type
REMARK                         _______ _______ _______ _____ _____    ______ ____
ROOT
ATOM      1  C   UNL     1       3.402   4.535  17.779  0.00  0.00    +0.000 C 
ENDROOT
BRANCH   1   2
ATOM      2  C   UNL     1       4.673   5.380  17.619  0.00  0.00    +0.000 C 
ATOM      3  F   UNL     1       4.440   6.328  16.657  0.00  0.00    +0.000 F 
BRANCH   2   4
ATOM      4  CA  UNL     1       5.874   4.544  17.153  0.00  0.00    +0.000 C 
BRANCH   4   5
ATOM      5  N   UNL     1       6.838   4.294  18.262  0.00  0.00    +0.000 NA
ATOM      6  H1  UNL     1       6.393   3.648  18.921  0.00  0.00    +0.000 HD
ATOM      7  H2  UNL     1       6.900   5.160  18.808  0.00  0.00    +0.000 HD
ENDBRANCH   4   5
BRANCH   4   8
ATOM      8  C   UNL     1       6.604   5.242  15.991  0.00  0.00    +0.000 C 
ATOM      9  O   UNL     1       7.461   6.103  16.157  0.00  0.00    +0.000 OA
BRANCH   8  10
ATOM     10  OXT UNL     1       6.268   4.796  14.764  0.00  0.00    +0.000 OA
ATOM     11  HXT UNL     1       5.313   4.888  14.548  0.00  0.00    +0.000 HD
ENDBRANCH   8  10
ENDBRANCH   4   8
ENDBRANCH   2   4
ENDBRANCH   1   2
BRANCH   1  12
ATOM     12  C   UNL     1       3.601   3.085  17.317  0.00  0.00    +0.000 C 
BRANCH  12  13
ATOM     13  CA  UNL     1       3.261   2.023  18.382  0.00  0.00    +0.000 C 
BRANCH  13  14
ATOM     14  N   UNL     1       1.806   1.756  18.502  0.00  0.00    +0.000 NA
ATOM     15  H1  UNL     1       1.402   1.773  17.562  0.00  0.00    +0.000 HD
ATOM     16  H2  UNL     1       1.358   2.540  18.980  0.00  0.00    +0.000 HD
ENDBRANCH  13  14
BRANCH  13  17
ATOM     17  C   UNL     1       3.827   2.387  19.765  0.00  0.00    +0.000 C 
ATOM     18  O   UNL     1       3.163   2.757  20.725  0.00  0.00    +0.000 OA
BRANCH  17  19
ATOM     19  OXT UNL     1       5.178   2.269  19.804  0.00  0.00    +0.000 OA
ATOM     20  HXT UNL     1       5.545   2.865  19.104  0.00  0.00    +0.000 HD
ENDBRANCH  17  19
ENDBRANCH  13  17
ENDBRANCH  12  13
ENDBRANCH   1  12
TORSDOF 10
ENDMDL
MODEL 7
REMARK VINA RESULT:      -5.1      1.999      4.502
REMARK  Name = 
REMARK  10 active torsions:
REMARK  status: ('A' for Active; 'I' for Inactive)
REMARK    1  A    between atoms: N_1  and  CA_2
REMARK    2  A    between atoms: CA_2  and  C_3
REMARK    3  A    between atoms: CA_2  and  C_12
REMARK    4  A    between atoms: C_3  and  C_4
REMARK    5  A    between atoms: C_4  and  C_5
REMARK    6  A    between atoms: C_5  and  CA_7
REMARK    7  A    between atoms: CA_7  and  N_8
REMARK    8  A    between atoms: CA_7  and  C_9
REMARK    9  A    between atoms: C_9  and  OXT_11
REMARK   10  A    between atoms: C_12  and  OXT_14
REMARK                            x       y       z     vdW  Elec       q    Type
REMARK                         _______ _______ _______ _____ _____    ______ ____
ROOT
ATOM      1  C   UNL     1       3.963   5.092  17.072  0.00  0.00    +0.000 C 
ENDROOT
BRANCH   1   2
ATOM      2  C   UNL     1       5.174   6.002  16.830  0.00  0.00    +0.000 C 
ATOM      3  F   UNL     1       4.941   6.733  15.694  0.00  0.00    +0.000 F 
BRANCH   2   4
ATOM      4  CA  UNL     1       6.466   5.205  16.602  0.00  0.00    +0.000 C 
BRANCH   4   5
ATOM      5  N   UNL     1       6.192   3.757  16.383  0.00  0.00    +0.000 NA
ATOM      6  H1  UNL     1       5.665   3.668  15.510  0.00  0.00    +0.000 HD
ATOM      7  H2  UNL     1       5.505   3.471  17.088  0.00  0.00    +0.000 HD
ENDBRANCH   4   5
BRANCH   4   8
ATOM      8  C   UNL     1       7.423   5.368  17.796  0.00  0.00    +0.000 C 
ATOM      9  O   UNL     1       7.921   4.419  18.393  0.00  0.00    +0.000 OA
BRANCH   8  10
ATOM     10  OXT UNL     1       7.723   6.644  18.110  0.00  0.00    +0.000 OA
ATOM     11  HXT UNL     1       8.618   6.765  18.501  0.00  0.00    +0.000 HD
ENDBRANCH   8  10
ENDBRANCH   4   8
ENDBRANCH   2   4
ENDBRANCH   1   2
BRANCH   1  12
ATOM     12  C   UNL     1       3.654   4.913  18.565  0.00  0.00    +0.000 C 
BRANCH  12  13
ATOM     13  CA  UNL     1       3.810   3.469  19.081  0.00  0.00    +0.000 C 
BRANCH  13  14
ATOM     14  N   UNL     1       5.213   3.107  19.401  0.00  0.00    +0.000 NA
ATOM     15  H1  UNL     1       5.210   2.555  20.261  0.00  0.00    +0.000 HD
ATOM     16  H2  UNL     1       5.730   3.952  19.649  0.00  0.00    +0.000 HD
ENDBRANCH  13  14
BRANCH  13  17
ATOM     17  C   UNL     1       3.230   2.436  18.099  0.00  0.00    +0.000 C 
ATOM     18  O   UNL     1       2.068   2.402  17.714  0.00  0.00    +0.000 OA
BRANCH  17  19
ATOM     19  OXT UNL     1       4.163   1.531  17.709  0.00  0.00    +0.000 OA
ATOM     20  HXT UNL     1       3.709   0.877  17.121  0.00  0.00    +0.000 HD
ENDBRANCH  17  19
ENDBRANCH  13  17
ENDBRANCH  12  13
ENDBRANCH   1  12
TORSDOF 10
ENDMDL
MODEL 8
REMARK VINA RESULT:      -5.1      1.513      4.887
REMARK  Name = 
REMARK  10 active torsions:
REMARK  status: ('A' for Active; 'I' for Inactive)
REMARK    1  A    between atoms: N_1  and  CA_2
REMARK    2  A    between atoms: CA_2  and  C_3
REMARK    3  A    between atoms: CA_2  and  C_12
REMARK    4  A    between atoms: C_3  and  C_4
REMARK    5  A    between atoms: C_4  and  C_5
REMARK    6  A    between atoms: C_5  and  CA_7
REMARK    7  A    between atoms: CA_7  and  N_8
REMARK    8  A    between atoms: CA_7  and  C_9
REMARK    9  A    between atoms: C_9  and  OXT_11
REMARK   10  A    between atoms: C_12  and  OXT_14
REMARK                            x       y       z     vdW  Elec       q    Type
REMARK                         _______ _______ _______ _____ _____    ______ ____
ROOT
ATOM      1  C   UNL     1       3.467   4.871  17.509  0.00  0.00    +0.000 C 
ENDROOT
BRANCH   1   2
ATOM      2  C   UNL     1       4.753   5.548  17.018  0.00  0.00    +0.000 C 
ATOM      3  F   UNL     1       4.420   6.760  16.472  0.00  0.00    +0.000 F 
BRANCH   2   4
ATOM      4  CA  UNL     1       5.459   4.734  15.924  0.00  0.00    +0.000 C 
BRANCH   4   5
ATOM      5  N   UNL     1       5.741   3.339  16.366  0.00  0.00    +0.000 NA
ATOM      6  H1  UNL     1       4.940   2.759  16.097  0.00  0.00    +0.000 HD
ATOM      7  H2  UNL     1       5.687   3.331  17.390  0.00  0.00    +0.000 HD
ENDBRANCH   4   5
BRANCH   4   8
ATOM      8  C   UNL     1       6.776   5.412  15.506  0.00  0.00    +0.000 C 
ATOM      9  O   UNL     1       7.472   6.061  16.279  0.00  0.00    +0.000 OA
BRANCH   8  10
ATOM     10  OXT UNL     1       7.143   5.193  14.227  0.00  0.00    +0.000 OA
ATOM     11  HXT UNL     1       7.331   4.250  14.016  0.00  0.00    +0.000 HD
ENDBRANCH   8  10
ENDBRANCH   4   8
ENDBRANCH   2   4
ENDBRANCH   1   2
BRANCH   1  12
ATOM     12  C   UNL     1       3.452   4.675  19.031  0.00  0.00    +0.000 C 
BRANCH  12  13
ATOM     13  CA  UNL     1       3.832   3.255  19.496  0.00  0.00    +0.000 C 
BRANCH  13  14
ATOM     14  N   UNL     1       5.294   3.000  19.473  0.00  0.00    +0.000 NA
ATOM     15  H1  UNL     1       5.481   2.175  20.048  0.00  0.00    +0.000 HD
ATOM     16  H2  UNL     1       5.776   3.758  19.959  0.00  0.00    +0.000 HD
ENDBRANCH  13  14
BRANCH  13  17
ATOM     17  C   UNL     1       3.113   2.166  18.680  0.00  0.00    +0.000 C 
ATOM     18  O   UNL     1       1.903   1.980  18.663  0.00  0.00    +0.000 OA
BRANCH  17  19
ATOM     19  OXT UNL     1       3.987   1.402  17.978  0.00  0.00    +0.000 OA
ATOM     20  HXT UNL     1       3.465   0.916  17.291  0.00  0.00    +0.000 HD
ENDBRANCH  17  19
ENDBRANCH  13  17
ENDBRANCH  12  13
ENDBRANCH   1  12
TORSDOF 10
ENDMDL
MODEL 9
REMARK VINA RESULT:      -5.1      2.282      4.909
REMARK  Name = 
REMARK  10 active torsions:
REMARK  status: ('A' for Active; 'I' for Inactive)
REMARK    1  A    between atoms: N_1  and  CA_2
REMARK    2  A    between atoms: CA_2  and  C_3
REMARK    3  A    between atoms: CA_2  and  C_12
REMARK    4  A    between atoms: C_3  and  C_4
REMARK    5  A    between atoms: C_4  and  C_5
REMARK    6  A    between atoms: C_5  and  CA_7
REMARK    7  A    between atoms: CA_7  and  N_8
REMARK    8  A    between atoms: CA_7  and  C_9
REMARK    9  A    between atoms: C_9  and  OXT_11
REMARK   10  A    between atoms: C_12  and  OXT_14
REMARK                            x       y       z     vdW  Elec       q    Type
REMARK                         _______ _______ _______ _____ _____    ______ ____
ROOT
ATOM      1  C   UNL     1       4.104   4.539  17.073  0.00  0.00    +0.000 C 
ENDROOT
BRANCH   1   2
ATOM      2  C   UNL     1       5.340   4.516  16.163  0.00  0.00    +0.000 C 
ATOM      3  F   UNL     1       5.826   3.236  16.131  0.00  0.00    +0.000 F 
BRANCH   2   4
ATOM      4  CA  UNL     1       6.466   5.418  16.688  0.00  0.00    +0.000 C 
BRANCH   4   5
ATOM      5  N   UNL     1       7.471   5.721  15.629  0.00  0.00    +0.000 NA
ATOM      6  H1  UNL     1       6.960   5.953  14.772  0.00  0.00    +0.000 HD
ATOM      7  H2  UNL     1       7.926   4.836  15.384  0.00  0.00    +0.000 HD
ENDBRANCH   4   5
BRANCH   4   8
ATOM      8  C   UNL     1       7.173   4.764  17.888  0.00  0.00    +0.000 C 
ATOM      9  O   UNL     1       6.771   4.866  19.042  0.00  0.00    +0.000 OA
BRANCH   8  10
ATOM     10  OXT UNL     1       8.248   4.015  17.571  0.00  0.00    +0.000 OA
ATOM     11  HXT UNL     1       9.049   4.536  17.337  0.00  0.00    +0.000 HD
ENDBRANCH   8  10
ENDBRANCH   4   8
ENDBRANCH   2   4
ENDBRANCH   1   2
BRANCH   1  12
ATOM     12  C   UNL     1       3.794   3.161  17.674  0.00  0.00    +0.000 C 
BRANCH  12  13
ATOM     13  CA  UNL     1       3.889   3.098  19.211  0.00  0.00    +0.000 C 
BRANCH  13  14
ATOM     14  N   UNL     1       5.070   2.342  19.697  0.00  0.00    +0.000 NA
ATOM     15  H1  UNL     1       5.343   1.679  18.968  0.00  0.00    +0.000 HD
ATOM     16  H2  UNL     1       4.792   1.750  20.481  0.00  0.00    +0.000 HD
ENDBRANCH  13  14
BRANCH  13  17
ATOM     17  C   UNL     1       2.616   2.516  19.849  0.00  0.00    +0.000 C 
ATOM     18  O   UNL     1       1.673   2.038  19.231  0.00  0.00    +0.000 OA
BRANCH  17  19
ATOM     19  OXT UNL     1       2.642   2.607  21.202  0.00  0.00    +0.000 OA
ATOM     20  HXT UNL     1       3.423   2.086  21.516  0.00  0.00    +0.000 HD
ENDBRANCH  17  19
ENDBRANCH  13  17
ENDBRANCH  12  13
ENDBRANCH   1  12
TORSDOF 10
ENDMDL
