MODEL 1
REMARK VINA RESULT:      -8.8      0.000      0.000
REMARK  Name = 
REMARK  4 active torsions:
REMARK  status: ('A' for Active; 'I' for Inactive)
REMARK    1  A    between atoms: C_1  and  N_2
REMARK    2  A    between atoms: C_6  and  C_7
REMARK    3  A    between atoms: C_11  and  C_12
REMARK    4  A    between atoms: C_12  and  N_13
REMARK                            x       y       z     vdW  Elec       q    Type
REMARK                         _______ _______ _______ _____ _____    ______ ____
ROOT
ATOM      1  C   UNL     1       8.076   8.677  18.119  0.00  0.00    +0.000 A 
ATOM      2  C   UNL     1       7.069   8.354  17.191  0.00  0.00    +0.000 A 
ATOM      3  C   UNL     1       6.549   7.059  17.103  0.00  0.00    +0.000 A 
ATOM      4  F   UNL     1       5.569   6.823  16.222  0.00  0.00    +0.000 F 
ATOM      5  C   UNL     1       7.018   6.029  17.912  0.00  0.00    +0.000 A 
ATOM      6  C   UNL     1       8.016   6.341  18.828  0.00  0.00    +0.000 A 
ATOM      7  F   UNL     1       8.515   5.382  19.621  0.00  0.00    +0.000 F 
ATOM      8  C   UNL     1       8.530   7.634  18.944  0.00  0.00    +0.000 A 
ENDROOT
BRANCH   1  14
ATOM      9  C   UNL     1      12.249  14.442  19.755  0.00  0.00    +0.000 C 
ATOM     10  N   UNL     1      11.284  13.453  19.337  0.00  0.00    +0.000 N 
ATOM     11  C   UNL     1      11.274  12.130  19.671  0.00  0.00    +0.000 A 
ATOM     12  C   UNL     1      10.192  11.619  19.009  0.00  0.00    +0.000 A 
ATOM     13  C   UNL     1       9.784  10.289  19.030  0.00  0.00    +0.000 A 
ATOM     14  C   UNL     1       8.626  10.055  18.237  0.00  0.00    +0.000 A 
ATOM     15  C   UNL     1       7.989  11.148  17.529  0.00  0.00    +0.000 A 
ATOM     16  C   UNL     1       8.435  12.493  17.521  0.00  0.00    +0.000 A 
ATOM     17  C   UNL     1       9.579  12.705  18.297  0.00  0.00    +0.000 A 
ATOM     18  N   UNL     1      10.277  13.831  18.520  0.00  0.00    +0.000 NA
ENDBRANCH   1  14
BRANCH   5  19
ATOM     19  C   UNL     1       6.495   4.629  17.794  0.00  0.00    +0.000 C 
BRANCH  19  20
ATOM     20  N   UNL     1       5.157   4.479  18.325  0.00  0.00    +0.000 N 
ATOM     21  C   UNL     1       4.780   4.914  19.685  0.00  0.00    +0.000 C 
ATOM     22  C   UNL     1       3.352   4.538  19.659  0.00  0.00    +0.000 A 
ATOM     23  S   UNL     1       2.154   4.558  20.823  0.00  0.00    +0.000 S 
ATOM     24  C   UNL     1       1.019   3.913  19.682  0.00  0.00    +0.000 A 
ATOM     25  C   UNL     1       1.582   3.706  18.432  0.00  0.00    +0.000 A 
ATOM     26  C   UNL     1       2.947   4.053  18.448  0.00  0.00    +0.000 A 
ATOM     27  C   UNL     1       4.078   4.038  17.556  0.00  0.00    +0.000 C 
ATOM     28  O   UNL     1       4.069   3.705  16.382  0.00  0.00    +0.000 OA
ENDBRANCH  19  20
ENDBRANCH   5  19
TORSDOF 3
ENDMDL
MODEL 2
REMARK VINA RESULT:      -8.7      0.750      1.249
REMARK  Name = 
REMARK  4 active torsions:
REMARK  status: ('A' for Active; 'I' for Inactive)
REMARK    1  A    between atoms: C_1  and  N_2
REMARK    2  A    between atoms: C_6  and  C_7
REMARK    3  A    between atoms: C_11  and  C_12
REMARK    4  A    between atoms: C_12  and  N_13
REMARK                            x       y       z     vdW  Elec       q    Type
REMARK                         _______ _______ _______ _____ _____    ______ ____
ROOT
ATOM      1  C   UNL     1       8.302   8.633  18.450  0.00  0.00    +0.000 A 
ATOM      2  C   UNL     1       7.323   8.498  17.450  0.00  0.00    +0.000 A 
ATOM      3  C   UNL     1       6.715   7.267  17.190  0.00  0.00    +0.000 A 
ATOM      4  F   UNL     1       5.766   7.210  16.246  0.00  0.00    +0.000 F 
ATOM      5  C   UNL     1       7.064   6.117  17.892  0.00  0.00    +0.000 A 
ATOM      6  C   UNL     1       8.034   6.244  18.879  0.00  0.00    +0.000 A 
ATOM      7  F   UNL     1       8.420   5.165  19.575  0.00  0.00    +0.000 F 
ATOM      8  C   UNL     1       8.635   7.471  19.167  0.00  0.00    +0.000 A 
ENDROOT
BRANCH   1  14
ATOM      9  C   UNL     1      11.173  15.325  17.897  0.00  0.00    +0.000 C 
ATOM     10  N   UNL     1      10.667  14.013  18.224  0.00  0.00    +0.000 N 
ATOM     11  C   UNL     1      10.199  13.078  17.348  0.00  0.00    +0.000 A 
ATOM     12  C   UNL     1       9.814  12.031  18.140  0.00  0.00    +0.000 A 
ATOM     13  C   UNL     1       9.249  10.841  17.691  0.00  0.00    +0.000 A 
ATOM     14  C   UNL     1       8.946   9.942  18.752  0.00  0.00    +0.000 A 
ATOM     15  C   UNL     1       9.242  10.298  20.125  0.00  0.00    +0.000 A 
ATOM     16  C   UNL     1       9.811  11.525  20.550  0.00  0.00    +0.000 A 
ATOM     17  C   UNL     1      10.095  12.402  19.498  0.00  0.00    +0.000 A 
ATOM     18  N   UNL     1      10.626  13.636  19.519  0.00  0.00    +0.000 NA
ENDBRANCH   1  14
BRANCH   5  19
ATOM     19  C   UNL     1       6.446   4.785  17.590  0.00  0.00    +0.000 C 
BRANCH  19  20
ATOM     20  N   UNL     1       5.134   4.625  18.179  0.00  0.00    +0.000 N 
ATOM     21  C   UNL     1       4.793   5.122  19.527  0.00  0.00    +0.000 C 
ATOM     22  C   UNL     1       3.378   4.702  19.576  0.00  0.00    +0.000 A 
ATOM     23  S   UNL     1       2.224   4.750  20.783  0.00  0.00    +0.000 S 
ATOM     24  C   UNL     1       1.069   4.009  19.722  0.00  0.00    +0.000 A 
ATOM     25  C   UNL     1       1.592   3.751  18.465  0.00  0.00    +0.000 A 
ATOM     26  C   UNL     1       2.945   4.140  18.410  0.00  0.00    +0.000 A 
ATOM     27  C   UNL     1       4.042   4.110  17.477  0.00  0.00    +0.000 C 
ATOM     28  O   UNL     1       4.000   3.713  16.324  0.00  0.00    +0.000 OA
ENDBRANCH  19  20
ENDBRANCH   5  19
TORSDOF 3
ENDMDL
MODEL 3
REMARK VINA RESULT:      -8.7      0.105      1.554
REMARK  Name = 
REMARK  4 active torsions:
REMARK  status: ('A' for Active; 'I' for Inactive)
REMARK    1  A    between atoms: C_1  and  N_2
REMARK    2  A    between atoms: C_6  and  C_7
REMARK    3  A    between atoms: C_11  and  C_12
REMARK    4  A    between atoms: C_12  and  N_13
REMARK                            x       y       z     vdW  Elec       q    Type
REMARK                         _______ _______ _______ _____ _____    ______ ____
ROOT
ATOM      1  C   UNL     1       8.073   8.612  18.137  0.00  0.00    +0.000 A 
ATOM      2  C   UNL     1       8.512   7.581  18.987  0.00  0.00    +0.000 A 
ATOM      3  C   UNL     1       8.028   6.276  18.858  0.00  0.00    +0.000 A 
ATOM      4  F   UNL     1       8.510   5.333  19.678  0.00  0.00    +0.000 F 
ATOM      5  C   UNL     1       7.077   5.942  17.899  0.00  0.00    +0.000 A 
ATOM      6  C   UNL     1       6.636   6.958  17.058  0.00  0.00    +0.000 A 
ATOM      7  F   UNL     1       5.708   6.694  16.126  0.00  0.00    +0.000 F 
ATOM      8  C   UNL     1       7.126   8.261  17.159  0.00  0.00    +0.000 A 
ENDROOT
BRANCH   1  14
ATOM      9  C   UNL     1      12.062  14.487  19.836  0.00  0.00    +0.000 C 
ATOM     10  N   UNL     1      11.136  13.472  19.396  0.00  0.00    +0.000 N 
ATOM     11  C   UNL     1      11.134  12.156  19.758  0.00  0.00    +0.000 A 
ATOM     12  C   UNL     1      10.093  11.611  19.059  0.00  0.00    +0.000 A 
ATOM     13  C   UNL     1       9.709  10.274  19.090  0.00  0.00    +0.000 A 
ATOM     14  C   UNL     1       8.592  10.002  18.250  0.00  0.00    +0.000 A 
ATOM     15  C   UNL     1       7.968  11.068  17.491  0.00  0.00    +0.000 A 
ATOM     16  C   UNL     1       8.390  12.421  17.474  0.00  0.00    +0.000 A 
ATOM     17  C   UNL     1       9.494  12.670  18.297  0.00  0.00    +0.000 A 
ATOM     18  N   UNL     1      10.161  13.813  18.527  0.00  0.00    +0.000 NA
ENDBRANCH   1  14
BRANCH   5  19
ATOM     19  C   UNL     1       6.523   4.554  17.782  0.00  0.00    +0.000 C 
BRANCH  19  20
ATOM     20  N   UNL     1       5.183   4.434  18.316  0.00  0.00    +0.000 N 
ATOM     21  C   UNL     1       4.828   4.839  19.691  0.00  0.00    +0.000 C 
ATOM     22  C   UNL     1       3.388   4.513  19.662  0.00  0.00    +0.000 A 
ATOM     23  S   UNL     1       2.197   4.538  20.833  0.00  0.00    +0.000 S 
ATOM     24  C   UNL     1       1.035   3.968  19.679  0.00  0.00    +0.000 A 
ATOM     25  C   UNL     1       1.584   3.781  18.420  0.00  0.00    +0.000 A 
ATOM     26  C   UNL     1       2.960   4.080  18.439  0.00  0.00    +0.000 A 
ATOM     27  C   UNL     1       4.085   4.055  17.540  0.00  0.00    +0.000 C 
ATOM     28  O   UNL     1       4.059   3.759  16.356  0.00  0.00    +0.000 OA
ENDBRANCH  19  20
ENDBRANCH   5  19
TORSDOF 3
ENDMDL
MODEL 4
REMARK VINA RESULT:      -8.6      0.779      2.041
REMARK  Name = 
REMARK  4 active torsions:
REMARK  status: ('A' for Active; 'I' for Inactive)
REMARK    1  A    between atoms: C_1  and  N_2
REMARK    2  A    between atoms: C_6  and  C_7
REMARK    3  A    between atoms: C_11  and  C_12
REMARK    4  A    between atoms: C_12  and  N_13
REMARK                            x       y       z     vdW  Elec       q    Type
REMARK                         _______ _______ _______ _____ _____    ______ ____
ROOT
ATOM      1  C   UNL     1       8.253   8.643  18.436  0.00  0.00    +0.000 A 
ATOM      2  C   UNL     1       8.624   7.496  19.161  0.00  0.00    +0.000 A 
ATOM      3  C   UNL     1       8.072   6.244  18.872  0.00  0.00    +0.000 A 
ATOM      4  F   UNL     1       8.490   5.184  19.576  0.00  0.00    +0.000 F 
ATOM      5  C   UNL     1       7.118   6.081  17.872  0.00  0.00    +0.000 A 
ATOM      6  C   UNL     1       6.746   7.212  17.155  0.00  0.00    +0.000 A 
ATOM      7  F   UNL     1       5.819   7.113  16.191  0.00  0.00    +0.000 F 
ATOM      8  C   UNL     1       7.303   8.464  17.416  0.00  0.00    +0.000 A 
ENDROOT
BRANCH   1  14
ATOM      9  C   UNL     1      10.457  15.586  17.918  0.00  0.00    +0.000 C 
ATOM     10  N   UNL     1      10.124  14.215  18.222  0.00  0.00    +0.000 N 
ATOM     11  C   UNL     1       9.562  13.304  17.375  0.00  0.00    +0.000 A 
ATOM     12  C   UNL     1       9.420  12.175  18.134  0.00  0.00    +0.000 A 
ATOM     13  C   UNL     1       8.866  10.974  17.701  0.00  0.00    +0.000 A 
ATOM     14  C   UNL     1       8.846   9.979  18.719  0.00  0.00    +0.000 A 
ATOM     15  C   UNL     1       9.381  10.265  20.036  0.00  0.00    +0.000 A 
ATOM     16  C   UNL     1       9.930  11.505  20.448  0.00  0.00    +0.000 A 
ATOM     17  C   UNL     1       9.936  12.475  19.440  0.00  0.00    +0.000 A 
ATOM     18  N   UNL     1      10.367  13.746  19.465  0.00  0.00    +0.000 NA
ENDBRANCH   1  14
BRANCH   5  19
ATOM     19  C   UNL     1       6.492   4.749  17.585  0.00  0.00    +0.000 C 
BRANCH  19  20
ATOM     20  N   UNL     1       5.174   4.608  18.167  0.00  0.00    +0.000 N 
ATOM     21  C   UNL     1       4.838   5.097  19.519  0.00  0.00    +0.000 C 
ATOM     22  C   UNL     1       3.415   4.704  19.558  0.00  0.00    +0.000 A 
ATOM     23  S   UNL     1       2.256   4.761  20.761  0.00  0.00    +0.000 S 
ATOM     24  C   UNL     1       1.092   4.055  19.688  0.00  0.00    +0.000 A 
ATOM     25  C   UNL     1       1.615   3.800  18.429  0.00  0.00    +0.000 A 
ATOM     26  C   UNL     1       2.975   4.163  18.384  0.00  0.00    +0.000 A 
ATOM     27  C   UNL     1       4.075   4.122  17.455  0.00  0.00    +0.000 C 
ATOM     28  O   UNL     1       4.031   3.739  16.297  0.00  0.00    +0.000 OA
ENDBRANCH  19  20
ENDBRANCH   5  19
TORSDOF 3
ENDMDL
MODEL 5
REMARK VINA RESULT:      -8.4      1.324      1.942
REMARK  Name = 
REMARK  4 active torsions:
REMARK  status: ('A' for Active; 'I' for Inactive)
REMARK    1  A    between atoms: C_1  and  N_2
REMARK    2  A    between atoms: C_6  and  C_7
REMARK    3  A    between atoms: C_11  and  C_12
REMARK    4  A    between atoms: C_12  and  N_13
REMARK                            x       y       z     vdW  Elec       q    Type
REMARK                         _______ _______ _______ _____ _____    ______ ____
ROOT
ATOM      1  C   UNL     1       8.152   8.605  18.247  0.00  0.00    +0.000 A 
ATOM      2  C   UNL     1       7.227   8.369  17.215  0.00  0.00    +0.000 A 
ATOM      3  C   UNL     1       6.718   7.089  16.973  0.00  0.00    +0.000 A 
ATOM      4  F   UNL     1       5.815   6.936  15.996  0.00  0.00    +0.000 F 
ATOM      5  C   UNL     1       7.120   5.990  17.726  0.00  0.00    +0.000 A 
ATOM      6  C   UNL     1       8.037   6.217  18.745  0.00  0.00    +0.000 A 
ATOM      7  F   UNL     1       8.470   5.190  19.491  0.00  0.00    +0.000 F 
ATOM      8  C   UNL     1       8.538   7.492  19.014  0.00  0.00    +0.000 A 
ENDROOT
BRANCH   1  14
ATOM      9  C   UNL     1       9.534  15.773  18.057  0.00  0.00    +0.000 C 
ATOM     10  N   UNL     1       9.417  14.348  18.258  0.00  0.00    +0.000 N 
ATOM     11  C   UNL     1       8.712  13.470  17.488  0.00  0.00    +0.000 A 
ATOM     12  C   UNL     1       8.887  12.261  18.101  0.00  0.00    +0.000 A 
ATOM     13  C   UNL     1       8.334  11.054  17.684  0.00  0.00    +0.000 A 
ATOM     14  C   UNL     1       8.689   9.965  18.529  0.00  0.00    +0.000 A 
ATOM     15  C   UNL     1       9.556  10.174  19.671  0.00  0.00    +0.000 A 
ATOM     16  C   UNL     1      10.097  11.420  20.075  0.00  0.00    +0.000 A 
ATOM     17  C   UNL     1       9.731  12.483  19.241  0.00  0.00    +0.000 A 
ATOM     18  N   UNL     1      10.046  13.786  19.313  0.00  0.00    +0.000 NA
ENDBRANCH   1  14
BRANCH   5  19
ATOM     19  C   UNL     1       6.610   4.609  17.445  0.00  0.00    +0.000 C 
BRANCH  19  20
ATOM     20  N   UNL     1       5.250   4.406  17.897  0.00  0.00    +0.000 N 
ATOM     21  C   UNL     1       4.101   4.328  16.972  0.00  0.00    +0.000 C 
ATOM     22  C   UNL     1       3.026   4.106  17.960  0.00  0.00    +0.000 A 
ATOM     23  S   UNL     1       1.363   4.015  17.824  0.00  0.00    +0.000 S 
ATOM     24  C   UNL     1       1.225   3.775  19.536  0.00  0.00    +0.000 A 
ATOM     25  C   UNL     1       2.457   3.761  20.171  0.00  0.00    +0.000 A 
ATOM     26  C   UNL     1       3.490   3.981  19.239  0.00  0.00    +0.000 A 
ATOM     27  C   UNL     1       4.922   4.131  19.226  0.00  0.00    +0.000 C 
ATOM     28  O   UNL     1       5.668   4.034  20.187  0.00  0.00    +0.000 OA
ENDBRANCH  19  20
ENDBRANCH   5  19
TORSDOF 3
ENDMDL
MODEL 6
REMARK VINA RESULT:      -8.3      1.514      2.127
REMARK  Name = 
REMARK  4 active torsions:
REMARK  status: ('A' for Active; 'I' for Inactive)
REMARK    1  A    between atoms: C_1  and  N_2
REMARK    2  A    between atoms: C_6  and  C_7
REMARK    3  A    between atoms: C_11  and  C_12
REMARK    4  A    between atoms: C_12  and  N_13
REMARK                            x       y       z     vdW  Elec       q    Type
REMARK                         _______ _______ _______ _____ _____    ______ ____
ROOT
ATOM      1  C   UNL     1       7.526   8.002  17.811  0.00  0.00    +0.000 A 
ATOM      2  C   UNL     1       6.294   7.947  17.136  0.00  0.00    +0.000 A 
ATOM      3  C   UNL     1       5.682   6.725  16.839  0.00  0.00    +0.000 A 
ATOM      4  F   UNL     1       4.493   6.740  16.223  0.00  0.00    +0.000 F 
ATOM      5  C   UNL     1       6.273   5.512  17.178  0.00  0.00    +0.000 A 
ATOM      6  C   UNL     1       7.493   5.561  17.842  0.00  0.00    +0.000 A 
ATOM      7  F   UNL     1       8.113   4.420  18.178  0.00  0.00    +0.000 F 
ATOM      8  C   UNL     1       8.106   6.772  18.166  0.00  0.00    +0.000 A 
ENDROOT
BRANCH   1  14
ATOM      9  C   UNL     1       9.426  15.049  18.040  0.00  0.00    +0.000 C 
ATOM     10  N   UNL     1       9.217  13.626  18.146  0.00  0.00    +0.000 N 
ATOM     11  C   UNL     1       8.397  12.861  17.368  0.00  0.00    +0.000 A 
ATOM     12  C   UNL     1       8.522  11.598  17.877  0.00  0.00    +0.000 A 
ATOM     13  C   UNL     1       7.852  10.469  17.416  0.00  0.00    +0.000 A 
ATOM     14  C   UNL     1       8.182   9.296  18.151  0.00  0.00    +0.000 A 
ATOM     15  C   UNL     1       9.137   9.354  19.239  0.00  0.00    +0.000 A 
ATOM     16  C   UNL     1       9.796  10.525  19.691  0.00  0.00    +0.000 A 
ATOM     17  C   UNL     1       9.456  11.672  18.965  0.00  0.00    +0.000 A 
ATOM     18  N   UNL     1       9.871  12.941  19.108  0.00  0.00    +0.000 NA
ENDBRANCH   1  14
BRANCH   5  19
ATOM     19  C   UNL     1       5.643   4.198  16.826  0.00  0.00    +0.000 C 
BRANCH  19  20
ATOM     20  N   UNL     1       4.503   3.877  17.659  0.00  0.00    +0.000 N 
ATOM     21  C   UNL     1       3.154   3.630  17.112  0.00  0.00    +0.000 C 
ATOM     22  C   UNL     1       2.442   3.348  18.376  0.00  0.00    +0.000 A 
ATOM     23  S   UNL     1       0.833   3.075  18.733  0.00  0.00    +0.000 S 
ATOM     24  C   UNL     1       1.223   2.913  20.415  0.00  0.00    +0.000 A 
ATOM     25  C   UNL     1       2.578   3.063  20.663  0.00  0.00    +0.000 A 
ATOM     26  C   UNL     1       3.266   3.340  19.465  0.00  0.00    +0.000 A 
ATOM     27  C   UNL     1       4.607   3.640  19.032  0.00  0.00    +0.000 C 
ATOM     28  O   UNL     1       5.603   3.674  19.735  0.00  0.00    +0.000 OA
ENDBRANCH  19  20
ENDBRANCH   5  19
TORSDOF 3
ENDMDL
MODEL 7
REMARK VINA RESULT:      -8.3      1.542      2.622
REMARK  Name = 
REMARK  4 active torsions:
REMARK  status: ('A' for Active; 'I' for Inactive)
REMARK    1  A    between atoms: C_1  and  N_2
REMARK    2  A    between atoms: C_6  and  C_7
REMARK    3  A    between atoms: C_11  and  C_12
REMARK    4  A    between atoms: C_12  and  N_13
REMARK                            x       y       z     vdW  Elec       q    Type
REMARK                         _______ _______ _______ _____ _____    ______ ____
ROOT
ATOM      1  C   UNL     1       7.473   7.903  17.796  0.00  0.00    +0.000 A 
ATOM      2  C   UNL     1       8.084   6.664  18.060  0.00  0.00    +0.000 A 
ATOM      3  C   UNL     1       7.466   5.460  17.710  0.00  0.00    +0.000 A 
ATOM      4  F   UNL     1       8.114   4.314  17.958  0.00  0.00    +0.000 F 
ATOM      5  C   UNL     1       6.212   5.432  17.108  0.00  0.00    +0.000 A 
ATOM      6  C   UNL     1       5.601   6.653  16.849  0.00  0.00    +0.000 A 
ATOM      7  F   UNL     1       4.385   6.683  16.285  0.00  0.00    +0.000 F 
ATOM      8  C   UNL     1       6.215   7.865  17.171  0.00  0.00    +0.000 A 
ENDROOT
BRANCH   1  14
ATOM      9  C   UNL     1       9.397  14.943  18.047  0.00  0.00    +0.000 C 
ATOM     10  N   UNL     1       9.180  13.520  18.152  0.00  0.00    +0.000 N 
ATOM     11  C   UNL     1       8.372  12.758  17.360  0.00  0.00    +0.000 A 
ATOM     12  C   UNL     1       8.482  11.495  17.874  0.00  0.00    +0.000 A 
ATOM     13  C   UNL     1       7.817  10.368  17.402  0.00  0.00    +0.000 A 
ATOM     14  C   UNL     1       8.127   9.194  18.146  0.00  0.00    +0.000 A 
ATOM     15  C   UNL     1       9.061   9.252  19.252  0.00  0.00    +0.000 A 
ATOM     16  C   UNL     1       9.717  10.420  19.714  0.00  0.00    +0.000 A 
ATOM     17  C   UNL     1       9.395  11.567  18.980  0.00  0.00    +0.000 A 
ATOM     18  N   UNL     1       9.813  12.835  19.128  0.00  0.00    +0.000 NA
ENDBRANCH   1  14
BRANCH   5  19
ATOM     19  C   UNL     1       5.525   4.143  16.769  0.00  0.00    +0.000 C 
BRANCH  19  20
ATOM     20  N   UNL     1       4.422   3.841  17.656  0.00  0.00    +0.000 N 
ATOM     21  C   UNL     1       3.044   3.612  17.176  0.00  0.00    +0.000 C 
ATOM     22  C   UNL     1       2.390   3.344  18.472  0.00  0.00    +0.000 A 
ATOM     23  S   UNL     1       0.796   3.095  18.907  0.00  0.00    +0.000 S 
ATOM     24  C   UNL     1       1.264   2.931  20.569  0.00  0.00    +0.000 A 
ATOM     25  C   UNL     1       2.631   3.062  20.751  0.00  0.00    +0.000 A 
ATOM     26  C   UNL     1       3.265   3.327  19.521  0.00  0.00    +0.000 A 
ATOM     27  C   UNL     1       4.588   3.605  19.023  0.00  0.00    +0.000 C 
ATOM     28  O   UNL     1       5.617   3.626  19.678  0.00  0.00    +0.000 OA
ENDBRANCH  19  20
ENDBRANCH   5  19
TORSDOF 3
ENDMDL
MODEL 8
REMARK VINA RESULT:      -8.2      1.342      2.485
REMARK  Name = 
REMARK  4 active torsions:
REMARK  status: ('A' for Active; 'I' for Inactive)
REMARK    1  A    between atoms: C_1  and  N_2
REMARK    2  A    between atoms: C_6  and  C_7
REMARK    3  A    between atoms: C_11  and  C_12
REMARK    4  A    between atoms: C_12  and  N_13
REMARK                            x       y       z     vdW  Elec       q    Type
REMARK                         _______ _______ _______ _____ _____    ______ ____
ROOT
ATOM      1  C   UNL     1       8.162   8.583  18.290  0.00  0.00    +0.000 A 
ATOM      2  C   UNL     1       8.564   7.464  19.040  0.00  0.00    +0.000 A 
ATOM      3  C   UNL     1       8.087   6.183  18.747  0.00  0.00    +0.000 A 
ATOM      4  F   UNL     1       8.533   5.153  19.478  0.00  0.00    +0.000 F 
ATOM      5  C   UNL     1       7.179   5.961  17.716  0.00  0.00    +0.000 A 
ATOM      6  C   UNL     1       6.776   7.065  16.974  0.00  0.00    +0.000 A 
ATOM      7  F   UNL     1       5.890   6.909  15.979  0.00  0.00    +0.000 F 
ATOM      8  C   UNL     1       7.260   8.346  17.239  0.00  0.00    +0.000 A 
ENDROOT
BRANCH   1  14
ATOM      9  C   UNL     1       9.528  15.753  18.050  0.00  0.00    +0.000 C 
ATOM     10  N   UNL     1       9.404  14.332  18.270  0.00  0.00    +0.000 N 
ATOM     11  C   UNL     1       8.750  13.437  17.475  0.00  0.00    +0.000 A 
ATOM     12  C   UNL     1       8.892  12.239  18.120  0.00  0.00    +0.000 A 
ATOM     13  C   UNL     1       8.369  11.022  17.693  0.00  0.00    +0.000 A 
ATOM     14  C   UNL     1       8.676   9.951  18.578  0.00  0.00    +0.000 A 
ATOM     15  C   UNL     1       9.470  10.185  19.768  0.00  0.00    +0.000 A 
ATOM     16  C   UNL     1       9.981  11.441  20.180  0.00  0.00    +0.000 A 
ATOM     17  C   UNL     1       9.663  12.487  19.305  0.00  0.00    +0.000 A 
ATOM     18  N   UNL     1       9.968  13.793  19.371  0.00  0.00    +0.000 NA
ENDBRANCH   1  14
BRANCH   5  19
ATOM     19  C   UNL     1       6.631   4.597  17.423  0.00  0.00    +0.000 C 
BRANCH  19  20
ATOM     20  N   UNL     1       5.272   4.422  17.888  0.00  0.00    +0.000 N 
ATOM     21  C   UNL     1       4.114   4.345  16.974  0.00  0.00    +0.000 C 
ATOM     22  C   UNL     1       3.044   4.157  17.974  0.00  0.00    +0.000 A 
ATOM     23  S   UNL     1       1.379   4.088  17.853  0.00  0.00    +0.000 S 
ATOM     24  C   UNL     1       1.251   3.881  19.569  0.00  0.00    +0.000 A 
ATOM     25  C   UNL     1       2.488   3.861  20.195  0.00  0.00    +0.000 A 
ATOM     26  C   UNL     1       3.516   4.048  19.251  0.00  0.00    +0.000 A 
ATOM     27  C   UNL     1       4.951   4.176  19.225  0.00  0.00    +0.000 C 
ATOM     28  O   UNL     1       5.702   4.086  20.182  0.00  0.00    +0.000 OA
ENDBRANCH  19  20
ENDBRANCH   5  19
TORSDOF 3
ENDMDL
MODEL 9
REMARK VINA RESULT:      -8.2      1.207      2.296
REMARK  Name = 
REMARK  4 active torsions:
REMARK  status: ('A' for Active; 'I' for Inactive)
REMARK    1  A    between atoms: C_1  and  N_2
REMARK    2  A    between atoms: C_6  and  C_7
REMARK    3  A    between atoms: C_11  and  C_12
REMARK    4  A    between atoms: C_12  and  N_13
REMARK                            x       y       z     vdW  Elec       q    Type
REMARK                         _______ _______ _______ _____ _____    ______ ____
ROOT
ATOM      1  C   UNL     1       7.503   8.025  17.878  0.00  0.00    +0.000 A 
ATOM      2  C   UNL     1       8.062   6.787  18.243  0.00  0.00    +0.000 A 
ATOM      3  C   UNL     1       7.419   5.583  17.944  0.00  0.00    +0.000 A 
ATOM      4  F   UNL     1       8.020   4.436  18.290  0.00  0.00    +0.000 F 
ATOM      5  C   UNL     1       6.190   5.554  17.293  0.00  0.00    +0.000 A 
ATOM      6  C   UNL     1       5.630   6.774  16.934  0.00  0.00    +0.000 A 
ATOM      7  F   UNL     1       4.439   6.804  16.318  0.00  0.00    +0.000 F 
ATOM      8  C   UNL     1       6.270   7.985  17.205  0.00  0.00    +0.000 A 
ENDROOT
BRANCH   1  14
ATOM      9  C   UNL     1       9.478  15.055  17.938  0.00  0.00    +0.000 C 
ATOM     10  N   UNL     1       9.260  13.635  18.070  0.00  0.00    +0.000 N 
ATOM     11  C   UNL     1       8.400  12.869  17.337  0.00  0.00    +0.000 A 
ATOM     12  C   UNL     1       8.535  11.611  17.856  0.00  0.00    +0.000 A 
ATOM     13  C   UNL     1       7.835  10.483  17.438  0.00  0.00    +0.000 A 
ATOM     14  C   UNL     1       8.185   9.316  18.173  0.00  0.00    +0.000 A 
ATOM     15  C   UNL     1       9.187   9.378  19.218  0.00  0.00    +0.000 A 
ATOM     16  C   UNL     1       9.876  10.547  19.627  0.00  0.00    +0.000 A 
ATOM     17  C   UNL     1       9.515  11.689  18.902  0.00  0.00    +0.000 A 
ATOM     18  N   UNL     1       9.949  12.955  19.011  0.00  0.00    +0.000 NA
ENDBRANCH   1  14
BRANCH   5  19
ATOM     19  C   UNL     1       5.475   4.268  17.007  0.00  0.00    +0.000 C 
BRANCH  19  20
ATOM     20  N   UNL     1       4.398   4.001  17.936  0.00  0.00    +0.000 N 
ATOM     21  C   UNL     1       4.505   4.264  19.386  0.00  0.00    +0.000 C 
ATOM     22  C   UNL     1       3.154   3.832  19.798  0.00  0.00    +0.000 A 
ATOM     23  S   UNL     1       2.424   3.669  21.292  0.00  0.00    +0.000 S 
ATOM     24  C   UNL     1       0.970   3.108  20.532  0.00  0.00    +0.000 A 
ATOM     25  C   UNL     1       1.075   3.067  19.150  0.00  0.00    +0.000 A 
ATOM     26  C   UNL     1       2.363   3.469  18.746  0.00  0.00    +0.000 A 
ATOM     27  C   UNL     1       3.122   3.603  17.529  0.00  0.00    +0.000 C 
ATOM     28  O   UNL     1       2.715   3.404  16.397  0.00  0.00    +0.000 OA
ENDBRANCH  19  20
ENDBRANCH   5  19
TORSDOF 3
ENDMDL
