MODEL 1
REMARK VINA RESULT:      -6.7      0.000      0.000
REMARK  Name = 
REMARK  5 active torsions:
REMARK  status: ('A' for Active; 'I' for Inactive)
REMARK    1  A    between atoms: C_1  and  N_2
REMARK    2  A    between atoms: N_2  and  C_3
REMARK    3  A    between atoms: N_2  and  N_4
REMARK    4  A    between atoms: C_5  and  C_6
REMARK    5  A    between atoms: C_12  and  C_13
REMARK                            x       y       z     vdW  Elec       q    Type
REMARK                         _______ _______ _______ _____ _____    ______ ____
ROOT
ATOM      1  C   UNL     1       5.277   3.855  15.966  0.00  0.00    +0.000 C 
ATOM      2  C   UNL     1       4.932   5.011  16.563  0.00  0.00    +0.000 C 
ATOM      3  C   UNL     1       5.268   6.387  16.071  0.00  0.00    +0.000 C 
ATOM      4  C   UNL     1       4.936   7.475  17.085  0.00  0.00    +0.000 C 
ATOM      5  C   UNL     1       3.499   7.319  17.564  0.00  0.00    +0.000 C 
ATOM      6  C   UNL     1       3.288   5.996  18.255  0.00  0.00    +0.000 C 
ATOM      7  C   UNL     1       2.344   5.892  19.218  0.00  0.00    +0.000 C 
ATOM      8  C   UNL     1       4.187   4.858  17.852  0.00  0.00    +0.000 C 
ATOM      9  O   UNL     1       4.360   3.859  18.543  0.00  0.00    +0.000 OA
ENDROOT
BRANCH   7  10
ATOM     10  C   UNL     1       2.083   4.697  19.936  0.00  0.00    +0.000 A 
ATOM     11  C   UNL     1       2.484   4.357  21.216  0.00  0.00    +0.000 A 
ATOM     12  C   UNL     1       2.124   3.025  21.569  0.00  0.00    +0.000 A 
ATOM     13  C   UNL     1       1.416   2.404  20.567  0.00  0.00    +0.000 A 
ATOM     14  S   UNL     1       1.159   3.434  19.226  0.00  0.00    +0.000 S 
ENDBRANCH   7  10
BRANCH   1  16
ATOM     15  N   UNL     1       5.353   3.748  13.561  0.00  0.00    +0.000 NA
ATOM     16  C   UNL     1       6.003   3.777  14.679  0.00  0.00    +0.000 C 
BRANCH  15  18
ATOM     17  C   UNL     1       6.037   2.407  11.733  0.00  0.00    +0.000 C 
ATOM     18  N   UNL     1       6.061   3.714  12.396  0.00  0.00    +0.000 N 
ATOM     19  C   UNL     1       7.364   4.367  12.267  0.00  0.00    +0.000 C 
ENDBRANCH  15  18
ENDBRANCH   1  16
TORSDOF 3
ENDMDL
MODEL 2
REMARK VINA RESULT:      -6.7      0.804      1.056
REMARK  Name = 
REMARK  5 active torsions:
REMARK  status: ('A' for Active; 'I' for Inactive)
REMARK    1  A    between atoms: C_1  and  N_2
REMARK    2  A    between atoms: N_2  and  C_3
REMARK    3  A    between atoms: N_2  and  N_4
REMARK    4  A    between atoms: C_5  and  C_6
REMARK    5  A    between atoms: C_12  and  C_13
REMARK                            x       y       z     vdW  Elec       q    Type
REMARK                         _______ _______ _______ _____ _____    ______ ____
ROOT
ATOM      1  C   UNL     1       5.323   3.878  15.620  0.00  0.00    +0.000 C 
ATOM      2  C   UNL     1       5.045   4.980  16.341  0.00  0.00    +0.000 C 
ATOM      3  C   UNL     1       5.550   6.363  16.058  0.00  0.00    +0.000 C 
ATOM      4  C   UNL     1       5.244   7.345  17.183  0.00  0.00    +0.000 C 
ATOM      5  C   UNL     1       3.765   7.284  17.540  0.00  0.00    +0.000 C 
ATOM      6  C   UNL     1       3.374   5.915  18.035  0.00  0.00    +0.000 C 
ATOM      7  C   UNL     1       2.350   5.792  18.910  0.00  0.00    +0.000 C 
ATOM      8  C   UNL     1       4.188   4.747  17.545  0.00  0.00    +0.000 C 
ATOM      9  O   UNL     1       4.209   3.658  18.109  0.00  0.00    +0.000 OA
ENDROOT
BRANCH   7  10
ATOM     10  C   UNL     1       1.919   4.551  19.446  0.00  0.00    +0.000 A 
ATOM     11  C   UNL     1       1.151   3.572  18.840  0.00  0.00    +0.000 A 
ATOM     12  C   UNL     1       0.826   2.504  19.724  0.00  0.00    +0.000 A 
ATOM     13  C   UNL     1       1.396   2.674  20.964  0.00  0.00    +0.000 A 
ATOM     14  S   UNL     1       2.344   4.095  21.047  0.00  0.00    +0.000 S 
ENDBRANCH   7  10
BRANCH   1  16
ATOM     15  N   UNL     1       5.605   3.578  13.247  0.00  0.00    +0.000 NA
ATOM     16  C   UNL     1       6.138   3.884  14.386  0.00  0.00    +0.000 C 
BRANCH  15  18
ATOM     17  C   UNL     1       6.721   2.315  11.584  0.00  0.00    +0.000 C 
ATOM     18  N   UNL     1       6.382   3.633  12.128  0.00  0.00    +0.000 N 
ATOM     19  C   UNL     1       7.496   4.575  12.009  0.00  0.00    +0.000 C 
ENDBRANCH  15  18
ENDBRANCH   1  16
TORSDOF 3
ENDMDL
MODEL 3
REMARK VINA RESULT:      -6.6      4.063      7.140
REMARK  Name = 
REMARK  5 active torsions:
REMARK  status: ('A' for Active; 'I' for Inactive)
REMARK    1  A    between atoms: C_1  and  N_2
REMARK    2  A    between atoms: N_2  and  C_3
REMARK    3  A    between atoms: N_2  and  N_4
REMARK    4  A    between atoms: C_5  and  C_6
REMARK    5  A    between atoms: C_12  and  C_13
REMARK                            x       y       z     vdW  Elec       q    Type
REMARK                         _______ _______ _______ _____ _____    ______ ____
ROOT
ATOM      1  C   UNL     1       2.477   8.029  18.238  0.00  0.00    +0.000 C 
ATOM      2  C   UNL     1       2.727   6.814  18.761  0.00  0.00    +0.000 C 
ATOM      3  C   UNL     1       2.042   6.215  19.953  0.00  0.00    +0.000 C 
ATOM      4  C   UNL     1       2.706   4.929  20.431  0.00  0.00    +0.000 C 
ATOM      5  C   UNL     1       2.879   3.967  19.263  0.00  0.00    +0.000 C 
ATOM      6  C   UNL     1       3.770   4.549  18.195  0.00  0.00    +0.000 C 
ATOM      7  C   UNL     1       4.500   3.722  17.415  0.00  0.00    +0.000 C 
ATOM      8  C   UNL     1       3.822   6.050  18.087  0.00  0.00    +0.000 C 
ATOM      9  O   UNL     1       4.729   6.652  17.522  0.00  0.00    +0.000 OA
ENDROOT
BRANCH   7  10
ATOM     10  C   UNL     1       5.379   4.174  16.397  0.00  0.00    +0.000 A 
ATOM     11  C   UNL     1       5.118   4.351  15.050  0.00  0.00    +0.000 A 
ATOM     12  C   UNL     1       6.276   4.719  14.309  0.00  0.00    +0.000 A 
ATOM     13  C   UNL     1       7.378   4.861  15.120  0.00  0.00    +0.000 A 
ATOM     14  S   UNL     1       7.006   4.586  16.766  0.00  0.00    +0.000 S 
ENDBRANCH   7  10
BRANCH   1  16
ATOM     15  N   UNL     1       0.753   9.681  17.920  0.00  0.00    +0.000 NA
ATOM     16  C   UNL     1       1.428   8.942  18.741  0.00  0.00    +0.000 C 
BRANCH  15  18
ATOM     17  C   UNL     1      -0.180  10.633  19.877  0.00  0.00    +0.000 C 
ATOM     18  N   UNL     1      -0.231  10.481  18.420  0.00  0.00    +0.000 N 
ATOM     19  C   UNL     1      -1.608  10.409  17.927  0.00  0.00    +0.000 C 
ENDBRANCH  15  18
ENDBRANCH   1  16
TORSDOF 3
ENDMDL
MODEL 4
REMARK VINA RESULT:      -6.5      4.504      7.688
REMARK  Name = 
REMARK  5 active torsions:
REMARK  status: ('A' for Active; 'I' for Inactive)
REMARK    1  A    between atoms: C_1  and  N_2
REMARK    2  A    between atoms: N_2  and  C_3
REMARK    3  A    between atoms: N_2  and  N_4
REMARK    4  A    between atoms: C_5  and  C_6
REMARK    5  A    between atoms: C_12  and  C_13
REMARK                            x       y       z     vdW  Elec       q    Type
REMARK                         _______ _______ _______ _____ _____    ______ ____
ROOT
ATOM      1  C   UNL     1       2.129   7.078  20.403  0.00  0.00    +0.000 C 
ATOM      2  C   UNL     1       2.060   5.784  20.036  0.00  0.00    +0.000 C 
ATOM      3  C   UNL     1       0.932   4.845  20.342  0.00  0.00    +0.000 C 
ATOM      4  C   UNL     1       1.256   3.398  19.989  0.00  0.00    +0.000 C 
ATOM      5  C   UNL     1       1.766   3.313  18.556  0.00  0.00    +0.000 C 
ATOM      6  C   UNL     1       3.037   4.104  18.375  0.00  0.00    +0.000 C 
ATOM      7  C   UNL     1       3.930   3.720  17.435  0.00  0.00    +0.000 C 
ATOM      8  C   UNL     1       3.256   5.274  19.296  0.00  0.00    +0.000 C 
ATOM      9  O   UNL     1       4.357   5.779  19.492  0.00  0.00    +0.000 OA
ENDROOT
BRANCH   7  10
ATOM     10  C   UNL     1       5.159   4.388  17.201  0.00  0.00    +0.000 A 
ATOM     11  C   UNL     1       6.387   4.166  17.800  0.00  0.00    +0.000 A 
ATOM     12  C   UNL     1       7.377   5.103  17.388  0.00  0.00    +0.000 A 
ATOM     13  C   UNL     1       6.888   5.983  16.450  0.00  0.00    +0.000 A 
ATOM     14  S   UNL     1       5.260   5.655  16.045  0.00  0.00    +0.000 S 
ENDBRANCH   7  10
BRANCH   1  16
ATOM     15  N   UNL     1       0.987   9.079  21.104  0.00  0.00    +0.000 NA
ATOM     16  C   UNL     1       1.052   7.787  21.127  0.00  0.00    +0.000 C 
BRANCH  15  18
ATOM     17  C   UNL     1      -0.319  11.048  21.270  0.00  0.00    +0.000 C 
ATOM     18  N   UNL     1      -0.043   9.692  21.754  0.00  0.00    +0.000 N 
ATOM     19  C   UNL     1      -0.212   9.586  23.204  0.00  0.00    +0.000 C 
ENDBRANCH  15  18
ENDBRANCH   1  16
TORSDOF 3
ENDMDL
MODEL 5
REMARK VINA RESULT:      -6.5      1.625      1.924
REMARK  Name = 
REMARK  5 active torsions:
REMARK  status: ('A' for Active; 'I' for Inactive)
REMARK    1  A    between atoms: C_1  and  N_2
REMARK    2  A    between atoms: N_2  and  C_3
REMARK    3  A    between atoms: N_2  and  N_4
REMARK    4  A    between atoms: C_5  and  C_6
REMARK    5  A    between atoms: C_12  and  C_13
REMARK                            x       y       z     vdW  Elec       q    Type
REMARK                         _______ _______ _______ _____ _____    ______ ____
ROOT
ATOM      1  C   UNL     1       5.368   3.962  15.335  0.00  0.00    +0.000 C 
ATOM      2  C   UNL     1       5.876   4.319  16.529  0.00  0.00    +0.000 C 
ATOM      3  C   UNL     1       7.235   4.907  16.764  0.00  0.00    +0.000 C 
ATOM      4  C   UNL     1       7.597   4.987  18.242  0.00  0.00    +0.000 C 
ATOM      5  C   UNL     1       6.479   5.674  19.016  0.00  0.00    +0.000 C 
ATOM      6  C   UNL     1       5.188   4.902  18.922  0.00  0.00    +0.000 C 
ATOM      7  C   UNL     1       4.293   4.977  19.932  0.00  0.00    +0.000 C 
ATOM      8  C   UNL     1       4.986   4.045  17.701  0.00  0.00    +0.000 C 
ATOM      9  O   UNL     1       4.174   3.126  17.650  0.00  0.00    +0.000 OA
ENDROOT
BRANCH   7  10
ATOM     10  C   UNL     1       3.060   4.276  19.944  0.00  0.00    +0.000 A 
ATOM     11  C   UNL     1       1.858   4.636  19.361  0.00  0.00    +0.000 A 
ATOM     12  C   UNL     1       0.803   3.732  19.673  0.00  0.00    +0.000 A 
ATOM     13  C   UNL     1       1.241   2.682  20.445  0.00  0.00    +0.000 A 
ATOM     14  S   UNL     1       2.919   2.769  20.759  0.00  0.00    +0.000 S 
ENDBRANCH   7  10
BRANCH   1  16
ATOM     15  N   UNL     1       5.957   3.286  13.099  0.00  0.00    +0.000 NA
ATOM     16  C   UNL     1       6.072   4.158  14.049  0.00  0.00    +0.000 C 
BRANCH  15  18
ATOM     17  C   UNL     1       7.152   2.318  11.298  0.00  0.00    +0.000 C 
ATOM     18  N   UNL     1       6.592   3.523  11.917  0.00  0.00    +0.000 N 
ATOM     19  C   UNL     1       7.461   4.686  11.728  0.00  0.00    +0.000 C 
ENDBRANCH  15  18
ENDBRANCH   1  16
TORSDOF 3
ENDMDL
MODEL 6
REMARK VINA RESULT:      -6.3      4.363      7.674
REMARK  Name = 
REMARK  5 active torsions:
REMARK  status: ('A' for Active; 'I' for Inactive)
REMARK    1  A    between atoms: C_1  and  N_2
REMARK    2  A    between atoms: N_2  and  C_3
REMARK    3  A    between atoms: N_2  and  N_4
REMARK    4  A    between atoms: C_5  and  C_6
REMARK    5  A    between atoms: C_12  and  C_13
REMARK                            x       y       z     vdW  Elec       q    Type
REMARK                         _______ _______ _______ _____ _____    ______ ____
ROOT
ATOM      1  C   UNL     1       2.170   7.044  20.091  0.00  0.00    +0.000 C 
ATOM      2  C   UNL     1       2.334   5.708  20.051  0.00  0.00    +0.000 C 
ATOM      3  C   UNL     1       1.558   4.705  20.851  0.00  0.00    +0.000 C 
ATOM      4  C   UNL     1       2.133   3.297  20.751  0.00  0.00    +0.000 C 
ATOM      5  C   UNL     1       2.323   2.915  19.290  0.00  0.00    +0.000 C 
ATOM      6  C   UNL     1       3.297   3.836  18.600  0.00  0.00    +0.000 C 
ATOM      7  C   UNL     1       4.029   3.373  17.562  0.00  0.00    +0.000 C 
ATOM      8  C   UNL     1       3.427   5.233  19.146  0.00  0.00    +0.000 C 
ATOM      9  O   UNL     1       4.391   5.957  18.919  0.00  0.00    +0.000 OA
ENDROOT
BRANCH   7  10
ATOM     10  C   UNL     1       4.982   4.156  16.862  0.00  0.00    +0.000 A 
ATOM     11  C   UNL     1       4.814   4.873  15.690  0.00  0.00    +0.000 A 
ATOM     12  C   UNL     1       6.027   5.455  15.223  0.00  0.00    +0.000 A 
ATOM     13  C   UNL     1       7.076   5.207  16.078  0.00  0.00    +0.000 A 
ATOM     14  S   UNL     1       6.590   4.309  17.449  0.00  0.00    +0.000 S 
ENDBRANCH   7  10
BRANCH   1  16
ATOM     15  N   UNL     1       0.908   8.987  20.749  0.00  0.00    +0.000 NA
ATOM     16  C   UNL     1       1.140   7.723  20.906  0.00  0.00    +0.000 C 
BRANCH  15  18
ATOM     17  C   UNL     1      -0.479  10.889  21.006  0.00  0.00    +0.000 C 
ATOM     18  N   UNL     1      -0.076   9.566  21.493  0.00  0.00    +0.000 N 
ATOM     19  C   UNL     1      -0.076   9.501  22.956  0.00  0.00    +0.000 C 
ENDBRANCH  15  18
ENDBRANCH   1  16
TORSDOF 3
ENDMDL
MODEL 7
REMARK VINA RESULT:      -6.3      3.983      6.992
REMARK  Name = 
REMARK  5 active torsions:
REMARK  status: ('A' for Active; 'I' for Inactive)
REMARK    1  A    between atoms: C_1  and  N_2
REMARK    2  A    between atoms: N_2  and  C_3
REMARK    3  A    between atoms: N_2  and  N_4
REMARK    4  A    between atoms: C_5  and  C_6
REMARK    5  A    between atoms: C_12  and  C_13
REMARK                            x       y       z     vdW  Elec       q    Type
REMARK                         _______ _______ _______ _____ _____    ______ ____
ROOT
ATOM      1  C   UNL     1       2.732   8.265  17.949  0.00  0.00    +0.000 C 
ATOM      2  C   UNL     1       2.869   7.053  18.519  0.00  0.00    +0.000 C 
ATOM      3  C   UNL     1       2.055   6.525  19.662  0.00  0.00    +0.000 C 
ATOM      4  C   UNL     1       2.603   5.218  20.223  0.00  0.00    +0.000 C 
ATOM      5  C   UNL     1       2.817   4.216  19.097  0.00  0.00    +0.000 C 
ATOM      6  C   UNL     1       3.824   4.719  18.094  0.00  0.00    +0.000 C 
ATOM      7  C   UNL     1       4.568   3.832  17.397  0.00  0.00    +0.000 C 
ATOM      8  C   UNL     1       3.971   6.211  17.956  0.00  0.00    +0.000 C 
ATOM      9  O   UNL     1       4.954   6.747  17.455  0.00  0.00    +0.000 OA
ENDROOT
BRANCH   7  10
ATOM     10  C   UNL     1       5.552   4.207  16.446  0.00  0.00    +0.000 A 
ATOM     11  C   UNL     1       6.894   4.471  16.654  0.00  0.00    +0.000 A 
ATOM     12  C   UNL     1       7.555   4.923  15.477  0.00  0.00    +0.000 A 
ATOM     13  C   UNL     1       6.709   4.945  14.392  0.00  0.00    +0.000 A 
ATOM     14  S   UNL     1       5.141   4.389  14.788  0.00  0.00    +0.000 S 
ENDBRANCH   7  10
BRANCH   1  16
ATOM     15  N   UNL     1       0.552   9.267  17.742  0.00  0.00    +0.000 NA
ATOM     16  C   UNL     1       1.699   9.248  18.340  0.00  0.00    +0.000 C 
BRANCH  15  18
ATOM     17  C   UNL     1      -0.459  10.304  19.615  0.00  0.00    +0.000 C 
ATOM     18  N   UNL     1      -0.386  10.164  18.158  0.00  0.00    +0.000 N 
ATOM     19  C   UNL     1      -1.710  10.239  17.537  0.00  0.00    +0.000 C 
ENDBRANCH  15  18
ENDBRANCH   1  16
TORSDOF 3
ENDMDL
MODEL 8
REMARK VINA RESULT:      -6.0      4.077      5.804
REMARK  Name = 
REMARK  5 active torsions:
REMARK  status: ('A' for Active; 'I' for Inactive)
REMARK    1  A    between atoms: C_1  and  N_2
REMARK    2  A    between atoms: N_2  and  C_3
REMARK    3  A    between atoms: N_2  and  N_4
REMARK    4  A    between atoms: C_5  and  C_6
REMARK    5  A    between atoms: C_12  and  C_13
REMARK                            x       y       z     vdW  Elec       q    Type
REMARK                         _______ _______ _______ _____ _____    ______ ____
ROOT
ATOM      1  C   UNL     1       3.775   7.441  17.260  0.00  0.00    +0.000 C 
ATOM      2  C   UNL     1       2.987   7.200  18.325  0.00  0.00    +0.000 C 
ATOM      3  C   UNL     1       3.024   5.971  19.183  0.00  0.00    +0.000 C 
ATOM      4  C   UNL     1       1.858   5.900  20.163  0.00  0.00    +0.000 C 
ATOM      5  C   UNL     1       1.754   7.202  20.945  0.00  0.00    +0.000 C 
ATOM      6  C   UNL     1       1.490   8.374  20.033  0.00  0.00    +0.000 C 
ATOM      7  C   UNL     1       0.812   9.444  20.506  0.00  0.00    +0.000 C 
ATOM      8  C   UNL     1       1.972   8.262  18.612  0.00  0.00    +0.000 C 
ATOM      9  O   UNL     1       1.542   8.958  17.698  0.00  0.00    +0.000 OA
ENDROOT
BRANCH   7  10
ATOM     10  C   UNL     1       0.499  10.584  19.722  0.00  0.00    +0.000 A 
ATOM     11  C   UNL     1       1.295  11.681  19.443  0.00  0.00    +0.000 A 
ATOM     12  C   UNL     1       0.606  12.686  18.707  0.00  0.00    +0.000 A 
ATOM     13  C   UNL     1      -0.681  12.306  18.402  0.00  0.00    +0.000 A 
ATOM     14  S   UNL     1      -1.039  10.734  18.972  0.00  0.00    +0.000 S 
ENDBRANCH   7  10
BRANCH   1  16
ATOM     15  N   UNL     1       6.033   6.606  17.335  0.00  0.00    +0.000 NA
ATOM     16  C   UNL     1       4.852   6.532  16.811  0.00  0.00    +0.000 C 
BRANCH  15  18
ATOM     17  C   UNL     1       6.711   5.137  15.605  0.00  0.00    +0.000 C 
ATOM     18  N   UNL     1       6.987   5.725  16.919  0.00  0.00    +0.000 N 
ATOM     19  C   UNL     1       7.592   4.756  17.834  0.00  0.00    +0.000 C 
ENDBRANCH  15  18
ENDBRANCH   1  16
TORSDOF 3
ENDMDL
MODEL 9
REMARK VINA RESULT:      -6.0      5.202      7.279
REMARK  Name = 
REMARK  5 active torsions:
REMARK  status: ('A' for Active; 'I' for Inactive)
REMARK    1  A    between atoms: C_1  and  N_2
REMARK    2  A    between atoms: N_2  and  C_3
REMARK    3  A    between atoms: N_2  and  N_4
REMARK    4  A    between atoms: C_5  and  C_6
REMARK    5  A    between atoms: C_12  and  C_13
REMARK                            x       y       z     vdW  Elec       q    Type
REMARK                         _______ _______ _______ _____ _____    ______ ____
ROOT
ATOM      1  C   UNL     1       1.511   6.392  20.904  0.00  0.00    +0.000 C 
ATOM      2  C   UNL     1       1.888   7.194  19.890  0.00  0.00    +0.000 C 
ATOM      3  C   UNL     1       2.660   6.769  18.678  0.00  0.00    +0.000 C 
ATOM      4  C   UNL     1       3.127   7.948  17.831  0.00  0.00    +0.000 C 
ATOM      5  C   UNL     1       1.952   8.869  17.530  0.00  0.00    +0.000 C 
ATOM      6  C   UNL     1       1.363   9.443  18.794  0.00  0.00    +0.000 C 
ATOM      7  C   UNL     1       0.760  10.652  18.757  0.00  0.00    +0.000 C 
ATOM      8  C   UNL     1       1.519   8.634  20.054  0.00  0.00    +0.000 C 
ATOM      9  O   UNL     1       1.403   9.111  21.178  0.00  0.00    +0.000 OA
ENDROOT
BRANCH   7  10
ATOM     10  C   UNL     1       0.191  11.282  19.893  0.00  0.00    +0.000 A 
ATOM     11  C   UNL     1      -1.063  11.091  20.447  0.00  0.00    +0.000 A 
ATOM     12  C   UNL     1      -1.327  11.979  21.528  0.00  0.00    +0.000 A 
ATOM     13  C   UNL     1      -0.249  12.789  21.800  0.00  0.00    +0.000 A 
ATOM     14  S   UNL     1       1.082  12.453  20.781  0.00  0.00    +0.000 S 
ENDBRANCH   7  10
BRANCH   1  16
ATOM     15  N   UNL     1       0.950   4.116  20.349  0.00  0.00    +0.000 NA
ATOM     16  C   UNL     1       1.761   4.935  20.939  0.00  0.00    +0.000 C 
BRANCH  15  18
ATOM     17  C   UNL     1       2.029   2.374  21.536  0.00  0.00    +0.000 C 
ATOM     18  N   UNL     1       1.237   2.784  20.373  0.00  0.00    +0.000 N 
ATOM     19  C   UNL     1       1.629   2.058  19.163  0.00  0.00    +0.000 C 
ENDBRANCH  15  18
ENDBRANCH   1  16
TORSDOF 3
ENDMDL
