MODEL 1
REMARK VINA RESULT:      -8.5      0.000      0.000
REMARK  Name = 
REMARK  4 active torsions:
REMARK  status: ('A' for Active; 'I' for Inactive)
REMARK    1  A    between atoms: C_2  and  C_11
REMARK    2  A    between atoms: N_3  and  C_4
REMARK    3  A    between atoms: N_14  and  S_15
REMARK    4  A    between atoms: S_15  and  C_18
REMARK                            x       y       z     vdW  Elec       q    Type
REMARK                         _______ _______ _______ _____ _____    ______ ____
ROOT
ATOM      1  C   UNL     1       7.644   6.265  17.777  0.00  0.00    +0.000 C 
ATOM      2  C   UNL     1       7.297   5.706  19.156  0.00  0.00    +0.000 C 
ATOM      3  C   UNL     1       5.863   5.198  19.180  0.00  0.00    +0.000 C 
ATOM      4  N   UNL     1       4.910   6.302  18.875  0.00  0.00    +0.000 NA
ATOM      5  C   UNL     1       5.218   7.033  17.603  0.00  0.00    +0.000 C 
ATOM      6  C   UNL     1       6.692   7.441  17.507  0.00  0.00    +0.000 C 
ENDROOT
BRANCH   1   8
ATOM      7  O   UNL     1       7.971   4.090  16.806  0.00  0.00    +0.000 OA
ATOM      8  C   UNL     1       7.560   5.236  16.639  0.00  0.00    +0.000 C 
ATOM      9  N   UNL     1       6.989   5.706  15.471  0.00  0.00    +0.000 N 
ATOM     10  H   UNL     1       6.777   6.692  15.383  0.00  0.00    +0.000 HD
BRANCH   9  11
ATOM     11  C   UNL     1       6.847   4.966  14.269  0.00  0.00    +0.000 A 
ATOM     12  C   UNL     1       7.732   5.059  13.192  0.00  0.00    +0.000 A 
ATOM     13  C   UNL     1       7.497   4.338  12.019  0.00  0.00    +0.000 A 
ATOM     14  C   UNL     1       6.381   3.513  11.906  0.00  0.00    +0.000 A 
ATOM     15  C   UNL     1       5.505   3.389  12.986  0.00  0.00    +0.000 A 
ATOM     16  C   UNL     1       5.749   4.102  14.154  0.00  0.00    +0.000 A 
ATOM     17  F   UNL     1       4.893   3.988  15.182  0.00  0.00    +0.000 F 
ENDBRANCH   9  11
ENDBRANCH   1   8
BRANCH   4  18
ATOM     18  S   UNL     1       3.255   5.779  18.895  0.00  0.00    +0.000 S 
ATOM     19  O   UNL     1       2.945   5.211  17.601  0.00  0.00    +0.000 OA
ATOM     20  O   UNL     1       3.056   5.027  20.116  0.00  0.00    +0.000 OA
BRANCH  18  21
ATOM     21  C   UNL     1       2.366   7.286  19.024  0.00  0.00    +0.000 A 
ATOM     22  C   UNL     1       2.156   8.078  17.897  0.00  0.00    +0.000 A 
ATOM     23  C   UNL     1       1.439   9.260  18.039  0.00  0.00    +0.000 A 
ATOM     24  C   UNL     1       0.964   9.595  19.298  0.00  0.00    +0.000 A 
ATOM     25  N   UNL     1       1.155   8.839  20.403  0.00  0.00    +0.000 NA
ATOM     26  C   UNL     1       1.849   7.685  20.240  0.00  0.00    +0.000 A 
ENDBRANCH  18  21
ENDBRANCH   4  18
TORSDOF 4
ENDMDL
MODEL 2
REMARK VINA RESULT:      -8.4      0.921      1.331
REMARK  Name = 
REMARK  4 active torsions:
REMARK  status: ('A' for Active; 'I' for Inactive)
REMARK    1  A    between atoms: C_2  and  C_11
REMARK    2  A    between atoms: N_3  and  C_4
REMARK    3  A    between atoms: N_14  and  S_15
REMARK    4  A    between atoms: S_15  and  C_18
REMARK                            x       y       z     vdW  Elec       q    Type
REMARK                         _______ _______ _______ _____ _____    ______ ____
ROOT
ATOM      1  C   UNL     1       7.557   6.224  17.611  0.00  0.00    +0.000 C 
ATOM      2  C   UNL     1       7.264   5.687  19.012  0.00  0.00    +0.000 C 
ATOM      3  C   UNL     1       5.830   5.187  19.103  0.00  0.00    +0.000 C 
ATOM      4  N   UNL     1       4.870   6.291  18.820  0.00  0.00    +0.000 NA
ATOM      5  C   UNL     1       5.129   7.001  17.525  0.00  0.00    +0.000 C 
ATOM      6  C   UNL     1       6.599   7.400  17.363  0.00  0.00    +0.000 C 
ENDROOT
BRANCH   1   8
ATOM      7  O   UNL     1       7.839   4.035  16.659  0.00  0.00    +0.000 OA
ATOM      8  C   UNL     1       7.422   5.178  16.494  0.00  0.00    +0.000 C 
ATOM      9  N   UNL     1       6.798   5.631  15.345  0.00  0.00    +0.000 N 
ATOM     10  H   UNL     1       6.582   6.615  15.252  0.00  0.00    +0.000 HD
BRANCH   9  11
ATOM     11  C   UNL     1       6.602   4.873  14.163  0.00  0.00    +0.000 A 
ATOM     12  C   UNL     1       5.520   4.013  13.963  0.00  0.00    +0.000 A 
ATOM     13  C   UNL     1       5.422   3.258  12.792  0.00  0.00    +0.000 A 
ATOM     14  C   UNL     1       6.399   3.354  11.804  0.00  0.00    +0.000 A 
ATOM     15  C   UNL     1       7.470   4.232  11.979  0.00  0.00    +0.000 A 
ATOM     16  C   UNL     1       7.557   4.987  13.143  0.00  0.00    +0.000 A 
ATOM     17  F   UNL     1       8.598   5.818  13.308  0.00  0.00    +0.000 F 
ENDBRANCH   9  11
ENDBRANCH   1   8
BRANCH   4  18
ATOM     18  S   UNL     1       3.215   5.776  18.916  0.00  0.00    +0.000 S 
ATOM     19  O   UNL     1       2.852   5.184  17.647  0.00  0.00    +0.000 OA
ATOM     20  O   UNL     1       3.062   5.050  20.159  0.00  0.00    +0.000 OA
BRANCH  18  21
ATOM     21  C   UNL     1       2.338   7.290  19.049  0.00  0.00    +0.000 A 
ATOM     22  C   UNL     1       2.112   8.073  17.920  0.00  0.00    +0.000 A 
ATOM     23  C   UNL     1       1.404   9.262  18.065  0.00  0.00    +0.000 A 
ATOM     24  C   UNL     1       0.956   9.610  19.331  0.00  0.00    +0.000 A 
ATOM     25  N   UNL     1       1.163   8.861  20.438  0.00  0.00    +0.000 NA
ATOM     26  C   UNL     1       1.846   7.702  20.271  0.00  0.00    +0.000 A 
ENDBRANCH  18  21
ENDBRANCH   4  18
TORSDOF 4
ENDMDL
MODEL 3
REMARK VINA RESULT:      -8.3      2.214      2.952
REMARK  Name = 
REMARK  4 active torsions:
REMARK  status: ('A' for Active; 'I' for Inactive)
REMARK    1  A    between atoms: C_2  and  C_11
REMARK    2  A    between atoms: N_3  and  C_4
REMARK    3  A    between atoms: N_14  and  S_15
REMARK    4  A    between atoms: S_15  and  C_18
REMARK                            x       y       z     vdW  Elec       q    Type
REMARK                         _______ _______ _______ _____ _____    ______ ____
ROOT
ATOM      1  C   UNL     1       7.215   6.096  17.936  0.00  0.00    +0.000 C 
ATOM      2  C   UNL     1       6.653   5.372  19.159  0.00  0.00    +0.000 C 
ATOM      3  C   UNL     1       5.277   4.797  18.852  0.00  0.00    +0.000 C 
ATOM      4  N   UNL     1       4.327   5.880  18.478  0.00  0.00    +0.000 NA
ATOM      5  C   UNL     1       4.819   6.761  17.369  0.00  0.00    +0.000 C 
ATOM      6  C   UNL     1       6.252   7.248  17.604  0.00  0.00    +0.000 C 
ENDROOT
BRANCH   1   8
ATOM      7  O   UNL     1       8.060   4.153  16.800  0.00  0.00    +0.000 OA
ATOM      8  C   UNL     1       7.418   5.197  16.707  0.00  0.00    +0.000 C 
ATOM      9  N   UNL     1       6.819   5.653  15.547  0.00  0.00    +0.000 N 
ATOM     10  H   UNL     1       6.401   6.575  15.533  0.00  0.00    +0.000 HD
BRANCH   9  11
ATOM     11  C   UNL     1       6.906   5.029  14.277  0.00  0.00    +0.000 A 
ATOM     12  C   UNL     1       7.829   5.394  13.294  0.00  0.00    +0.000 A 
ATOM     13  C   UNL     1       7.819   4.769  12.045  0.00  0.00    +0.000 A 
ATOM     14  C   UNL     1       6.892   3.769  11.762  0.00  0.00    +0.000 A 
ATOM     15  C   UNL     1       5.984   3.374  12.746  0.00  0.00    +0.000 A 
ATOM     16  C   UNL     1       6.005   3.994  13.989  0.00  0.00    +0.000 A 
ATOM     17  F   UNL     1       5.117   3.618  14.924  0.00  0.00    +0.000 F 
ENDBRANCH   9  11
ENDBRANCH   1   8
BRANCH   4  18
ATOM     18  S   UNL     1       2.737   5.279  18.122  0.00  0.00    +0.000 S 
ATOM     19  O   UNL     1       1.809   6.386  18.195  0.00  0.00    +0.000 OA
ATOM     20  O   UNL     1       2.844   4.461  16.932  0.00  0.00    +0.000 OA
BRANCH  18  21
ATOM     21  C   UNL     1       2.398   4.229  19.486  0.00  0.00    +0.000 A 
ATOM     22  C   UNL     1       2.419   4.733  20.784  0.00  0.00    +0.000 A 
ATOM     23  C   UNL     1       2.136   3.870  21.837  0.00  0.00    +0.000 A 
ATOM     24  C   UNL     1       1.842   2.547  21.544  0.00  0.00    +0.000 A 
ATOM     25  N   UNL     1       1.813   2.040  20.290  0.00  0.00    +0.000 NA
ATOM     26  C   UNL     1       2.083   2.900  19.278  0.00  0.00    +0.000 A 
ENDBRANCH  18  21
ENDBRANCH   4  18
TORSDOF 4
ENDMDL
MODEL 4
REMARK VINA RESULT:      -8.1      2.259      3.401
REMARK  Name = 
REMARK  4 active torsions:
REMARK  status: ('A' for Active; 'I' for Inactive)
REMARK    1  A    between atoms: C_2  and  C_11
REMARK    2  A    between atoms: N_3  and  C_4
REMARK    3  A    between atoms: N_14  and  S_15
REMARK    4  A    between atoms: S_15  and  C_18
REMARK                            x       y       z     vdW  Elec       q    Type
REMARK                         _______ _______ _______ _____ _____    ______ ____
ROOT
ATOM      1  C   UNL     1       7.542   6.276  17.659  0.00  0.00    +0.000 C 
ATOM      2  C   UNL     1       7.215   5.765  19.062  0.00  0.00    +0.000 C 
ATOM      3  C   UNL     1       5.768   5.299  19.135  0.00  0.00    +0.000 C 
ATOM      4  N   UNL     1       4.838   6.419  18.821  0.00  0.00    +0.000 NA
ATOM      5  C   UNL     1       5.134   7.105  17.521  0.00  0.00    +0.000 C 
ATOM      6  C   UNL     1       6.615   7.470  17.378  0.00  0.00    +0.000 C 
ENDROOT
BRANCH   1   8
ATOM      7  O   UNL     1       7.843   4.083  16.720  0.00  0.00    +0.000 OA
ATOM      8  C   UNL     1       7.402   5.219  16.554  0.00  0.00    +0.000 C 
ATOM      9  N   UNL     1       6.748   5.650  15.414  0.00  0.00    +0.000 N 
ATOM     10  H   UNL     1       6.514   6.630  15.317  0.00  0.00    +0.000 HD
BRANCH   9  11
ATOM     11  C   UNL     1       6.542   4.879  14.242  0.00  0.00    +0.000 A 
ATOM     12  C   UNL     1       5.448   4.030  14.055  0.00  0.00    +0.000 A 
ATOM     13  C   UNL     1       5.340   3.260  12.895  0.00  0.00    +0.000 A 
ATOM     14  C   UNL     1       6.317   3.330  11.905  0.00  0.00    +0.000 A 
ATOM     15  C   UNL     1       7.399   4.197  12.067  0.00  0.00    +0.000 A 
ATOM     16  C   UNL     1       7.497   4.966  13.220  0.00  0.00    +0.000 A 
ATOM     17  F   UNL     1       8.549   5.786  13.374  0.00  0.00    +0.000 F 
ENDBRANCH   9  11
ENDBRANCH   1   8
BRANCH   4  18
ATOM     18  S   UNL     1       3.170   5.942  18.895  0.00  0.00    +0.000 S 
ATOM     19  O   UNL     1       2.690   6.183  20.238  0.00  0.00    +0.000 OA
ATOM     20  O   UNL     1       2.508   6.517  17.743  0.00  0.00    +0.000 OA
BRANCH  18  21
ATOM     21  C   UNL     1       3.247   4.203  18.677  0.00  0.00    +0.000 A 
ATOM     22  C   UNL     1       3.384   3.659  17.403  0.00  0.00    +0.000 A 
ATOM     23  C   UNL     1       3.451   2.276  17.273  0.00  0.00    +0.000 A 
ATOM     24  C   UNL     1       3.381   1.503  18.422  0.00  0.00    +0.000 A 
ATOM     25  N   UNL     1       3.252   2.012  19.668  0.00  0.00    +0.000 NA
ATOM     26  C   UNL     1       3.198   3.363  19.772  0.00  0.00    +0.000 A 
ENDBRANCH  18  21
ENDBRANCH   4  18
TORSDOF 4
ENDMDL
MODEL 5
REMARK VINA RESULT:      -8.1      2.086      3.212
REMARK  Name = 
REMARK  4 active torsions:
REMARK  status: ('A' for Active; 'I' for Inactive)
REMARK    1  A    between atoms: C_2  and  C_11
REMARK    2  A    between atoms: N_3  and  C_4
REMARK    3  A    between atoms: N_14  and  S_15
REMARK    4  A    between atoms: S_15  and  C_18
REMARK                            x       y       z     vdW  Elec       q    Type
REMARK                         _______ _______ _______ _____ _____    ______ ____
ROOT
ATOM      1  C   UNL     1       7.586   6.279  17.772  0.00  0.00    +0.000 C 
ATOM      2  C   UNL     1       7.231   5.723  19.151  0.00  0.00    +0.000 C 
ATOM      3  C   UNL     1       5.795   5.218  19.169  0.00  0.00    +0.000 C 
ATOM      4  N   UNL     1       4.847   6.323  18.857  0.00  0.00    +0.000 NA
ATOM      5  C   UNL     1       5.162   7.051  17.584  0.00  0.00    +0.000 C 
ATOM      6  C   UNL     1       6.637   7.456  17.495  0.00  0.00    +0.000 C 
ENDROOT
BRANCH   1   8
ATOM      7  O   UNL     1       7.887   4.094  16.817  0.00  0.00    +0.000 OA
ATOM      8  C   UNL     1       7.506   5.248  16.636  0.00  0.00    +0.000 C 
ATOM      9  N   UNL     1       6.972   5.725  15.453  0.00  0.00    +0.000 N 
ATOM     10  H   UNL     1       6.784   6.716  15.357  0.00  0.00    +0.000 HD
BRANCH   9  11
ATOM     11  C   UNL     1       6.842   4.984  14.251  0.00  0.00    +0.000 A 
ATOM     12  C   UNL     1       7.731   5.085  13.178  0.00  0.00    +0.000 A 
ATOM     13  C   UNL     1       7.507   4.362  12.004  0.00  0.00    +0.000 A 
ATOM     14  C   UNL     1       6.398   3.528  11.886  0.00  0.00    +0.000 A 
ATOM     15  C   UNL     1       5.519   3.397  12.962  0.00  0.00    +0.000 A 
ATOM     16  C   UNL     1       5.751   4.112  14.131  0.00  0.00    +0.000 A 
ATOM     17  F   UNL     1       4.892   3.991  15.155  0.00  0.00    +0.000 F 
ENDBRANCH   9  11
ENDBRANCH   1   8
BRANCH   4  18
ATOM     18  S   UNL     1       3.190   5.803  18.869  0.00  0.00    +0.000 S 
ATOM     19  O   UNL     1       2.633   6.098  20.170  0.00  0.00    +0.000 OA
ATOM     20  O   UNL     1       2.576   6.299  17.655  0.00  0.00    +0.000 OA
BRANCH  18  21
ATOM     21  C   UNL     1       3.324   4.057  18.747  0.00  0.00    +0.000 A 
ATOM     22  C   UNL     1       3.059   3.414  17.541  0.00  0.00    +0.000 A 
ATOM     23  C   UNL     1       3.186   2.031  17.483  0.00  0.00    +0.000 A 
ATOM     24  C   UNL     1       3.573   1.356  18.631  0.00  0.00    +0.000 A 
ATOM     25  N   UNL     1       3.839   1.963  19.810  0.00  0.00    +0.000 NA
ATOM     26  C   UNL     1       3.718   3.313  19.842  0.00  0.00    +0.000 A 
ENDBRANCH  18  21
ENDBRANCH   4  18
TORSDOF 4
ENDMDL
MODEL 6
REMARK VINA RESULT:      -7.8      2.218      3.279
REMARK  Name = 
REMARK  4 active torsions:
REMARK  status: ('A' for Active; 'I' for Inactive)
REMARK    1  A    between atoms: C_2  and  C_11
REMARK    2  A    between atoms: N_3  and  C_4
REMARK    3  A    between atoms: N_14  and  S_15
REMARK    4  A    between atoms: S_15  and  C_18
REMARK                            x       y       z     vdW  Elec       q    Type
REMARK                         _______ _______ _______ _____ _____    ______ ____
ROOT
ATOM      1  C   UNL     1       7.457   6.169  17.658  0.00  0.00    +0.000 C 
ATOM      2  C   UNL     1       7.046   5.620  19.024  0.00  0.00    +0.000 C 
ATOM      3  C   UNL     1       5.595   5.160  19.000  0.00  0.00    +0.000 C 
ATOM      4  N   UNL     1       4.690   6.295  18.666  0.00  0.00    +0.000 NA
ATOM      5  C   UNL     1       5.065   7.016  17.406  0.00  0.00    +0.000 C 
ATOM      6  C   UNL     1       6.553   7.376  17.360  0.00  0.00    +0.000 C 
ENDROOT
BRANCH   1   8
ATOM      7  O   UNL     1       7.842   4.016  16.660  0.00  0.00    +0.000 OA
ATOM      8  C   UNL     1       7.377   5.145  16.517  0.00  0.00    +0.000 C 
ATOM      9  N   UNL     1       6.745   5.596  15.372  0.00  0.00    +0.000 N 
ATOM     10  H   UNL     1       6.488   6.573  15.300  0.00  0.00    +0.000 HD
BRANCH   9  11
ATOM     11  C   UNL     1       6.593   4.859  14.171  0.00  0.00    +0.000 A 
ATOM     12  C   UNL     1       5.541   3.970  13.935  0.00  0.00    +0.000 A 
ATOM     13  C   UNL     1       5.487   3.237  12.746  0.00  0.00    +0.000 A 
ATOM     14  C   UNL     1       6.477   3.385  11.778  0.00  0.00    +0.000 A 
ATOM     15  C   UNL     1       7.517   4.292  11.990  0.00  0.00    +0.000 A 
ATOM     16  C   UNL     1       7.561   5.024  13.171  0.00  0.00    +0.000 A 
ATOM     17  F   UNL     1       8.573   5.883  13.372  0.00  0.00    +0.000 F 
ENDBRANCH   9  11
ENDBRANCH   1   8
BRANCH   4  18
ATOM     18  S   UNL     1       3.019   5.826  18.628  0.00  0.00    +0.000 S 
ATOM     19  O   UNL     1       2.235   6.905  19.186  0.00  0.00    +0.000 OA
ATOM     20  O   UNL     1       2.749   5.303  17.306  0.00  0.00    +0.000 OA
BRANCH  18  21
ATOM     21  C   UNL     1       2.957   4.496  19.772  0.00  0.00    +0.000 A 
ATOM     22  C   UNL     1       2.214   4.611  20.944  0.00  0.00    +0.000 A 
ATOM     23  C   UNL     1       2.181   3.532  21.820  0.00  0.00    +0.000 A 
ATOM     24  C   UNL     1       2.891   2.389  21.483  0.00  0.00    +0.000 A 
ATOM     25  N   UNL     1       3.616   2.257  20.348  0.00  0.00    +0.000 NA
ATOM     26  C   UNL     1       3.625   3.318  19.504  0.00  0.00    +0.000 A 
ENDBRANCH  18  21
ENDBRANCH   4  18
TORSDOF 4
ENDMDL
MODEL 7
REMARK VINA RESULT:      -7.7      1.126      1.701
REMARK  Name = 
REMARK  4 active torsions:
REMARK  status: ('A' for Active; 'I' for Inactive)
REMARK    1  A    between atoms: C_2  and  C_11
REMARK    2  A    between atoms: N_3  and  C_4
REMARK    3  A    between atoms: N_14  and  S_15
REMARK    4  A    between atoms: S_15  and  C_18
REMARK                            x       y       z     vdW  Elec       q    Type
REMARK                         _______ _______ _______ _____ _____    ______ ____
ROOT
ATOM      1  C   UNL     1       7.278   6.203  17.521  0.00  0.00    +0.000 C 
ATOM      2  C   UNL     1       7.086   5.689  18.947  0.00  0.00    +0.000 C 
ATOM      3  C   UNL     1       5.662   5.189  19.147  0.00  0.00    +0.000 C 
ATOM      4  N   UNL     1       4.683   6.288  18.915  0.00  0.00    +0.000 NA
ATOM      5  C   UNL     1       4.849   6.978  17.594  0.00  0.00    +0.000 C 
ATOM      6  C   UNL     1       6.303   7.375  17.322  0.00  0.00    +0.000 C 
ENDROOT
BRANCH   1   8
ATOM      7  O   UNL     1       7.097   3.945  16.717  0.00  0.00    +0.000 OA
ATOM      8  C   UNL     1       7.067   5.141  16.433  0.00  0.00    +0.000 C 
ATOM      9  N   UNL     1       6.835   5.643  15.165  0.00  0.00    +0.000 N 
ATOM     10  H   UNL     1       6.934   6.637  14.999  0.00  0.00    +0.000 HD
BRANCH   9  11
ATOM     11  C   UNL     1       6.662   4.867  13.991  0.00  0.00    +0.000 A 
ATOM     12  C   UNL     1       5.597   3.984  13.796  0.00  0.00    +0.000 A 
ATOM     13  C   UNL     1       5.523   3.212  12.633  0.00  0.00    +0.000 A 
ATOM     14  C   UNL     1       6.504   3.314  11.651  0.00  0.00    +0.000 A 
ATOM     15  C   UNL     1       7.557   4.215  11.822  0.00  0.00    +0.000 A 
ATOM     16  C   UNL     1       7.621   4.986  12.977  0.00  0.00    +0.000 A 
ATOM     17  F   UNL     1       8.646   5.839  13.139  0.00  0.00    +0.000 F 
ENDBRANCH   9  11
ENDBRANCH   1   8
BRANCH   4  18
ATOM     18  S   UNL     1       3.039   5.774  19.135  0.00  0.00    +0.000 S 
ATOM     19  O   UNL     1       2.559   5.249  17.876  0.00  0.00    +0.000 OA
ATOM     20  O   UNL     1       2.995   4.985  20.348  0.00  0.00    +0.000 OA
BRANCH  18  21
ATOM     21  C   UNL     1       2.190   7.282  19.424  0.00  0.00    +0.000 A 
ATOM     22  C   UNL     1       1.682   7.572  20.688  0.00  0.00    +0.000 A 
ATOM     23  C   UNL     1       1.024   8.781  20.879  0.00  0.00    +0.000 A 
ATOM     24  C   UNL     1       0.906   9.645  19.800  0.00  0.00    +0.000 A 
ATOM     25  N   UNL     1       1.396   9.383  18.567  0.00  0.00    +0.000 NA
ATOM     26  C   UNL     1       2.042   8.202  18.405  0.00  0.00    +0.000 A 
ENDBRANCH  18  21
ENDBRANCH   4  18
TORSDOF 4
ENDMDL
MODEL 8
REMARK VINA RESULT:      -7.6      2.225      7.306
REMARK  Name = 
REMARK  4 active torsions:
REMARK  status: ('A' for Active; 'I' for Inactive)
REMARK    1  A    between atoms: C_2  and  C_11
REMARK    2  A    between atoms: N_3  and  C_4
REMARK    3  A    between atoms: N_14  and  S_15
REMARK    4  A    between atoms: S_15  and  C_18
REMARK                            x       y       z     vdW  Elec       q    Type
REMARK                         _______ _______ _______ _____ _____    ______ ____
ROOT
ATOM      1  C   UNL     1       3.611   3.652  18.870  0.00  0.00    +0.000 C 
ATOM      2  C   UNL     1       5.027   4.051  19.286  0.00  0.00    +0.000 C 
ATOM      3  C   UNL     1       5.568   5.134  18.363  0.00  0.00    +0.000 C 
ATOM      4  N   UNL     1       5.619   4.648  16.957  0.00  0.00    +0.000 NA
ATOM      5  C   UNL     1       4.316   4.097  16.459  0.00  0.00    +0.000 C 
ATOM      6  C   UNL     1       3.694   3.096  17.439  0.00  0.00    +0.000 C 
ENDROOT
BRANCH   1   8
ATOM      7  O   UNL     1       1.463   4.652  18.464  0.00  0.00    +0.000 OA
ATOM      8  C   UNL     1       2.586   4.793  18.942  0.00  0.00    +0.000 C 
ATOM      9  N   UNL     1       3.031   5.935  19.584  0.00  0.00    +0.000 N 
ATOM     10  H   UNL     1       4.004   6.007  19.853  0.00  0.00    +0.000 HD
BRANCH   9  11
ATOM     11  C   UNL     1       2.292   7.136  19.732  0.00  0.00    +0.000 A 
ATOM     12  C   UNL     1       1.585   7.474  20.889  0.00  0.00    +0.000 A 
ATOM     13  C   UNL     1       0.835   8.651  20.942  0.00  0.00    +0.000 A 
ATOM     14  C   UNL     1       0.784   9.508  19.845  0.00  0.00    +0.000 A 
ATOM     15  C   UNL     1       1.510   9.196  18.694  0.00  0.00    +0.000 A 
ATOM     16  C   UNL     1       2.261   8.027  18.651  0.00  0.00    +0.000 A 
ATOM     17  F   UNL     1       2.943   7.728  17.534  0.00  0.00    +0.000 F 
ENDBRANCH   9  11
ENDBRANCH   1   8
BRANCH   4  18
ATOM     18  S   UNL     1       6.235   5.845  15.859  0.00  0.00    +0.000 S 
ATOM     19  O   UNL     1       5.203   6.834  15.644  0.00  0.00    +0.000 OA
ATOM     20  O   UNL     1       7.553   6.218  16.328  0.00  0.00    +0.000 OA
BRANCH  18  21
ATOM     21  C   UNL     1       6.414   4.950  14.360  0.00  0.00    +0.000 A 
ATOM     22  C   UNL     1       5.424   4.060  13.949  0.00  0.00    +0.000 A 
ATOM     23  C   UNL     1       5.599   3.378  12.751  0.00  0.00    +0.000 A 
ATOM     24  C   UNL     1       6.753   3.617  12.019  0.00  0.00    +0.000 A 
ATOM     25  N   UNL     1       7.723   4.479  12.400  0.00  0.00    +0.000 NA
ATOM     26  C   UNL     1       7.528   5.141  13.567  0.00  0.00    +0.000 A 
ENDBRANCH  18  21
ENDBRANCH   4  18
TORSDOF 4
ENDMDL
MODEL 9
REMARK VINA RESULT:      -7.4      2.454      3.182
REMARK  Name = 
REMARK  4 active torsions:
REMARK  status: ('A' for Active; 'I' for Inactive)
REMARK    1  A    between atoms: C_2  and  C_11
REMARK    2  A    between atoms: N_3  and  C_4
REMARK    3  A    between atoms: N_14  and  S_15
REMARK    4  A    between atoms: S_15  and  C_18
REMARK                            x       y       z     vdW  Elec       q    Type
REMARK                         _______ _______ _______ _____ _____    ______ ____
ROOT
ATOM      1  C   UNL     1       6.939   5.578  17.692  0.00  0.00    +0.000 C 
ATOM      2  C   UNL     1       6.475   4.977  19.018  0.00  0.00    +0.000 C 
ATOM      3  C   UNL     1       4.957   4.878  19.056  0.00  0.00    +0.000 C 
ATOM      4  N   UNL     1       4.339   6.226  18.918  0.00  0.00    +0.000 NA
ATOM      5  C   UNL     1       4.814   6.989  17.718  0.00  0.00    +0.000 C 
ATOM      6  C   UNL     1       6.341   6.991  17.596  0.00  0.00    +0.000 C 
ENDROOT
BRANCH   1   8
ATOM      7  O   UNL     1       5.937   3.697  16.581  0.00  0.00    +0.000 OA
ATOM      8  C   UNL     1       6.557   4.751  16.456  0.00  0.00    +0.000 C 
ATOM      9  N   UNL     1       6.950   5.294  15.246  0.00  0.00    +0.000 N 
ATOM     10  H   UNL     1       7.550   6.110  15.240  0.00  0.00    +0.000 HD
BRANCH   9  11
ATOM     11  C   UNL     1       6.760   4.697  13.975  0.00  0.00    +0.000 A 
ATOM     12  C   UNL     1       5.713   3.820  13.679  0.00  0.00    +0.000 A 
ATOM     13  C   UNL     1       5.622   3.228  12.417  0.00  0.00    +0.000 A 
ATOM     14  C   UNL     1       6.569   3.504  11.434  0.00  0.00    +0.000 A 
ATOM     15  C   UNL     1       7.603   4.401  11.709  0.00  0.00    +0.000 A 
ATOM     16  C   UNL     1       7.684   4.994  12.964  0.00  0.00    +0.000 A 
ATOM     17  F   UNL     1       8.691   5.844  13.223  0.00  0.00    +0.000 F 
ENDBRANCH   9  11
ENDBRANCH   1   8
BRANCH   4  18
ATOM     18  S   UNL     1       2.603   6.171  18.960  0.00  0.00    +0.000 S 
ATOM     19  O   UNL     1       2.137   7.258  19.791  0.00  0.00    +0.000 OA
ATOM     20  O   UNL     1       2.146   6.016  17.595  0.00  0.00    +0.000 OA
BRANCH  18  21
ATOM     21  C   UNL     1       2.277   4.680  19.826  0.00  0.00    +0.000 A 
ATOM     22  C   UNL     1       1.906   3.531  19.132  0.00  0.00    +0.000 A 
ATOM     23  C   UNL     1       1.665   2.367  19.854  0.00  0.00    +0.000 A 
ATOM     24  C   UNL     1       1.808   2.406  21.233  0.00  0.00    +0.000 A 
ATOM     25  N   UNL     1       2.170   3.511  21.924  0.00  0.00    +0.000 NA
ATOM     26  C   UNL     1       2.409   4.632  21.199  0.00  0.00    +0.000 A 
ENDBRANCH  18  21
ENDBRANCH   4  18
TORSDOF 4
ENDMDL
