MODEL 1
REMARK VINA RESULT:      -8.8      0.000      0.000
REMARK  Name = 
REMARK  9 active torsions:
REMARK  status: ('A' for Active; 'I' for Inactive)
REMARK    1  A    between atoms: C_1  and  S_2
REMARK    2  A    between atoms: S_2  and  C_3
REMARK    3  A    between atoms: N_6  and  C_7
REMARK    4  A    between atoms: C_7  and  C_8
REMARK    5  A    between atoms: C_17  and  C_18
REMARK    6  A    between atoms: C_18  and  C_19
REMARK    7  A    between atoms: C_18  and  C_20
REMARK    8  A    between atoms: C_27  and  C_28
REMARK    9  A    between atoms: C_27  and  C_29
REMARK                            x       y       z     vdW  Elec       q    Type
REMARK                         _______ _______ _______ _____ _____    ______ ____
ROOT
ATOM      1  C   UNL     1       0.333   8.927  21.158  0.00  0.00    +0.000 A 
ATOM      2  N   UNL     1       0.255  10.066  20.450  0.00  0.00    +0.000 NA
ATOM      3  C   UNL     1       0.969  10.182  19.320  0.00  0.00    +0.000 A 
ATOM      4  N   UNL     1       0.916  11.323  18.537  0.00  0.00    +0.000 N 
ATOM      5  C   UNL     1       1.754   9.088  18.935  0.00  0.00    +0.000 A 
ATOM      6  S   UNL     1       2.755   8.936  17.555  0.00  0.00    +0.000 S 
ATOM      7  C   UNL     1       3.156   7.340  17.944  0.00  0.00    +0.000 A 
ATOM      8  N   UNL     1       3.983   6.672  17.128  0.00  0.00    +0.000 NA
ATOM      9  C   UNL     1       4.311   5.425  17.501  0.00  0.00    +0.000 A 
ATOM     10  C   UNL     1       3.806   4.819  18.665  0.00  0.00    +0.000 A 
ATOM     11  C   UNL     1       2.883   5.531  19.477  0.00  0.00    +0.000 A 
ATOM     12  C   UNL     1       2.573   6.875  19.112  0.00  0.00    +0.000 A 
ATOM     13  C   UNL     1       1.751   7.921  19.694  0.00  0.00    +0.000 A 
ATOM     14  N   UNL     1       1.035   7.830  20.845  0.00  0.00    +0.000 NA
ATOM     15  C   UNL     1       2.311   4.846  20.704  0.00  0.00    +0.000 C 
ATOM     16  C   UNL     1       2.407   3.308  20.629  0.00  0.00    +0.000 C 
ATOM     17  C   UNL     1       1.406   2.690  19.640  0.00  0.00    +0.000 C 
ATOM     18  C   UNL     1       2.144   2.695  22.013  0.00  0.00    +0.000 C 
ATOM     19  O   UNL     1       3.757   2.953  20.305  0.00  0.00    +0.000 OA
ATOM     20  C   UNL     1       4.198   3.403  19.026  0.00  0.00    +0.000 C 
ATOM     21  H   UNL     1       1.833  11.697  18.317  0.00  0.00    +0.000 HD
ENDROOT
BRANCH   9  22
ATOM     22  C   UNL     1       5.208   4.687  16.512  0.00  0.00    +0.000 C 
ATOM     23  C   UNL     1       5.173   5.381  15.148  0.00  0.00    +0.000 C 
ATOM     24  C   UNL     1       6.661   4.592  17.004  0.00  0.00    +0.000 C 
ENDBRANCH   9  22
BRANCH   1  26
ATOM     25  C   UNL     1      -0.826  10.672  22.865  0.00  0.00    +0.000 C 
ATOM     26  S   UNL     1      -0.546   8.893  22.703  0.00  0.00    +0.000 S 
ENDBRANCH   1  26
BRANCH   4  27
ATOM     27  C   UNL     1      -0.107  12.323  18.787  0.00  0.00    +0.000 C 
BRANCH  27  28
ATOM     28  C   UNL     1      -1.462  11.882  18.325  0.00  0.00    +0.000 A 
ATOM     29  C   UNL     1      -1.905  11.182  17.218  0.00  0.00    +0.000 A 
ATOM     30  C   UNL     1      -3.305  11.035  17.366  0.00  0.00    +0.000 A 
ATOM     31  C   UNL     1      -3.629  11.653  18.550  0.00  0.00    +0.000 A 
ATOM     32  O   UNL     1      -2.520  12.174  19.137  0.00  0.00    +0.000 OA
ENDBRANCH  27  28
ENDBRANCH   4  27
TORSDOF 4
ENDMDL
MODEL 2
REMARK VINA RESULT:      -8.6      1.447      2.193
REMARK  Name = 
REMARK  9 active torsions:
REMARK  status: ('A' for Active; 'I' for Inactive)
REMARK    1  A    between atoms: C_1  and  S_2
REMARK    2  A    between atoms: S_2  and  C_3
REMARK    3  A    between atoms: N_6  and  C_7
REMARK    4  A    between atoms: C_7  and  C_8
REMARK    5  A    between atoms: C_17  and  C_18
REMARK    6  A    between atoms: C_18  and  C_19
REMARK    7  A    between atoms: C_18  and  C_20
REMARK    8  A    between atoms: C_27  and  C_28
REMARK    9  A    between atoms: C_27  and  C_29
REMARK                            x       y       z     vdW  Elec       q    Type
REMARK                         _______ _______ _______ _____ _____    ______ ____
ROOT
ATOM      1  C   UNL     1       0.397   8.949  21.098  0.00  0.00    +0.000 A 
ATOM      2  N   UNL     1       0.372  10.087  20.384  0.00  0.00    +0.000 NA
ATOM      3  C   UNL     1       1.115  10.175  19.269  0.00  0.00    +0.000 A 
ATOM      4  N   UNL     1       1.117  11.314  18.482  0.00  0.00    +0.000 N 
ATOM      5  C   UNL     1       1.873   9.055  18.906  0.00  0.00    +0.000 A 
ATOM      6  S   UNL     1       2.899   8.865  17.550  0.00  0.00    +0.000 S 
ATOM      7  C   UNL     1       3.240   7.259  17.954  0.00  0.00    +0.000 A 
ATOM      8  N   UNL     1       4.063   6.561  17.159  0.00  0.00    +0.000 NA
ATOM      9  C   UNL     1       4.342   5.305  17.544  0.00  0.00    +0.000 A 
ATOM     10  C   UNL     1       3.792   4.721  18.697  0.00  0.00    +0.000 A 
ATOM     11  C   UNL     1       2.874   5.466  19.486  0.00  0.00    +0.000 A 
ATOM     12  C   UNL     1       2.616   6.817  19.110  0.00  0.00    +0.000 A 
ATOM     13  C   UNL     1       1.815   7.891  19.670  0.00  0.00    +0.000 A 
ATOM     14  N   UNL     1       1.071   7.829  20.804  0.00  0.00    +0.000 NA
ATOM     15  C   UNL     1       2.253   4.805  20.702  0.00  0.00    +0.000 C 
ATOM     16  C   UNL     1       2.301   3.264  20.635  0.00  0.00    +0.000 C 
ATOM     17  C   UNL     1       1.303   2.675  19.625  0.00  0.00    +0.000 C 
ATOM     18  C   UNL     1       1.988   2.666  22.015  0.00  0.00    +0.000 C 
ATOM     19  O   UNL     1       3.646   2.864  20.343  0.00  0.00    +0.000 OA
ATOM     20  C   UNL     1       4.130   3.295  19.072  0.00  0.00    +0.000 C 
ATOM     21  H   UNL     1       2.050  11.657  18.281  0.00  0.00    +0.000 HD
ENDROOT
BRANCH   9  22
ATOM     22  C   UNL     1       5.237   4.536  16.577  0.00  0.00    +0.000 C 
ATOM     23  C   UNL     1       5.137   5.135  15.173  0.00  0.00    +0.000 C 
ATOM     24  C   UNL     1       6.706   4.525  17.030  0.00  0.00    +0.000 C 
ENDBRANCH   9  22
BRANCH   1  26
ATOM     25  C   UNL     1      -0.751  10.737  22.766  0.00  0.00    +0.000 C 
ATOM     26  S   UNL     1      -0.516   8.950  22.622  0.00  0.00    +0.000 S 
ENDBRANCH   1  26
BRANCH   4  27
ATOM     27  C   UNL     1       0.121  12.347  18.706  0.00  0.00    +0.000 C 
BRANCH  27  28
ATOM     28  C   UNL     1       0.710  13.724  18.682  0.00  0.00    +0.000 A 
ATOM     29  C   UNL     1       0.186  14.984  18.903  0.00  0.00    +0.000 A 
ATOM     30  C   UNL     1       1.261  15.896  18.780  0.00  0.00    +0.000 A 
ATOM     31  C   UNL     1       2.371  15.140  18.491  0.00  0.00    +0.000 A 
ATOM     32  O   UNL     1       2.048  13.822  18.424  0.00  0.00    +0.000 OA
ENDBRANCH  27  28
ENDBRANCH   4  27
TORSDOF 4
ENDMDL
MODEL 3
REMARK VINA RESULT:      -7.5      2.448      4.651
REMARK  Name = 
REMARK  9 active torsions:
REMARK  status: ('A' for Active; 'I' for Inactive)
REMARK    1  A    between atoms: C_1  and  S_2
REMARK    2  A    between atoms: S_2  and  C_3
REMARK    3  A    between atoms: N_6  and  C_7
REMARK    4  A    between atoms: C_7  and  C_8
REMARK    5  A    between atoms: C_17  and  C_18
REMARK    6  A    between atoms: C_18  and  C_19
REMARK    7  A    between atoms: C_18  and  C_20
REMARK    8  A    between atoms: C_27  and  C_28
REMARK    9  A    between atoms: C_27  and  C_29
REMARK                            x       y       z     vdW  Elec       q    Type
REMARK                         _______ _______ _______ _____ _____    ______ ____
ROOT
ATOM      1  C   UNL     1       1.785  11.162  18.828  0.00  0.00    +0.000 A 
ATOM      2  N   UNL     1       1.027  11.573  19.859  0.00  0.00    +0.000 NA
ATOM      3  C   UNL     1       0.563  10.663  20.731  0.00  0.00    +0.000 A 
ATOM      4  N   UNL     1      -0.207  11.026  21.823  0.00  0.00    +0.000 N 
ATOM      5  C   UNL     1       0.913   9.324  20.516  0.00  0.00    +0.000 A 
ATOM      6  S   UNL     1       0.485   7.956  21.451  0.00  0.00    +0.000 S 
ATOM      7  C   UNL     1       1.404   6.925  20.476  0.00  0.00    +0.000 A 
ATOM      8  N   UNL     1       1.437   5.620  20.779  0.00  0.00    +0.000 NA
ATOM      9  C   UNL     1       2.140   4.832  19.951  0.00  0.00    +0.000 A 
ATOM     10  C   UNL     1       2.837   5.327  18.835  0.00  0.00    +0.000 A 
ATOM     11  C   UNL     1       2.833   6.724  18.575  0.00  0.00    +0.000 A 
ATOM     12  C   UNL     1       2.044   7.557  19.422  0.00  0.00    +0.000 A 
ATOM     13  C   UNL     1       1.740   8.977  19.452  0.00  0.00    +0.000 A 
ATOM     14  N   UNL     1       2.184   9.910  18.571  0.00  0.00    +0.000 NA
ATOM     15  C   UNL     1       3.628   7.249  17.394  0.00  0.00    +0.000 C 
ATOM     16  C   UNL     1       4.737   6.276  16.941  0.00  0.00    +0.000 C 
ATOM     17  C   UNL     1       5.930   6.231  17.909  0.00  0.00    +0.000 C 
ATOM     18  C   UNL     1       5.264   6.686  15.557  0.00  0.00    +0.000 C 
ATOM     19  O   UNL     1       4.155   4.979  16.758  0.00  0.00    +0.000 OA
ATOM     20  C   UNL     1       3.627   4.392  17.946  0.00  0.00    +0.000 C 
ATOM     21  H   UNL     1      -1.068  10.494  21.897  0.00  0.00    +0.000 HD
ENDROOT
BRANCH   9  22
ATOM     22  C   UNL     1       2.193   3.366  20.370  0.00  0.00    +0.000 C 
ATOM     23  C   UNL     1       2.129   3.250  21.895  0.00  0.00    +0.000 C 
ATOM     24  C   UNL     1       1.059   2.541  19.742  0.00  0.00    +0.000 C 
ENDBRANCH   9  22
BRANCH   1  26
ATOM     25  C   UNL     1       2.354  13.803  18.795  0.00  0.00    +0.000 C 
ATOM     26  S   UNL     1       2.260  12.406  17.651  0.00  0.00    +0.000 S 
ENDBRANCH   1  26
BRANCH   4  27
ATOM     27  C   UNL     1      -0.320  12.426  22.193  0.00  0.00    +0.000 C 
BRANCH  27  28
ATOM     28  C   UNL     1      -1.587  12.720  22.936  0.00  0.00    +0.000 A 
ATOM     29  C   UNL     1      -2.703  11.965  23.243  0.00  0.00    +0.000 A 
ATOM     30  C   UNL     1      -3.552  12.794  24.015  0.00  0.00    +0.000 A 
ATOM     31  C   UNL     1      -2.905  14.001  24.129  0.00  0.00    +0.000 A 
ATOM     32  O   UNL     1      -1.715  13.969  23.475  0.00  0.00    +0.000 OA
ENDBRANCH  27  28
ENDBRANCH   4  27
TORSDOF 4
ENDMDL
MODEL 4
REMARK VINA RESULT:      -7.1      3.259      9.851
REMARK  Name = 
REMARK  9 active torsions:
REMARK  status: ('A' for Active; 'I' for Inactive)
REMARK    1  A    between atoms: C_1  and  S_2
REMARK    2  A    between atoms: S_2  and  C_3
REMARK    3  A    between atoms: N_6  and  C_7
REMARK    4  A    between atoms: C_7  and  C_8
REMARK    5  A    between atoms: C_17  and  C_18
REMARK    6  A    between atoms: C_18  and  C_19
REMARK    7  A    between atoms: C_18  and  C_20
REMARK    8  A    between atoms: C_27  and  C_28
REMARK    9  A    between atoms: C_27  and  C_29
REMARK                            x       y       z     vdW  Elec       q    Type
REMARK                         _______ _______ _______ _____ _____    ______ ____
ROOT
ATOM      1  C   UNL     1      -1.979  10.434  17.216  0.00  0.00    +0.000 A 
ATOM      2  N   UNL     1      -0.716  10.035  17.447  0.00  0.00    +0.000 NA
ATOM      3  C   UNL     1      -0.117  10.396  18.593  0.00  0.00    +0.000 A 
ATOM      4  N   UNL     1       1.175  10.002  18.895  0.00  0.00    +0.000 N 
ATOM      5  C   UNL     1      -0.859  11.166  19.497  0.00  0.00    +0.000 A 
ATOM      6  S   UNL     1      -0.374  11.763  21.025  0.00  0.00    +0.000 S 
ATOM      7  C   UNL     1      -1.899  12.435  21.316  0.00  0.00    +0.000 A 
ATOM      8  N   UNL     1      -2.103  13.079  22.473  0.00  0.00    +0.000 NA
ATOM      9  C   UNL     1      -3.313  13.636  22.641  0.00  0.00    +0.000 A 
ATOM     10  C   UNL     1      -4.336  13.541  21.682  0.00  0.00    +0.000 A 
ATOM     11  C   UNL     1      -4.109  12.799  20.492  0.00  0.00    +0.000 A 
ATOM     12  C   UNL     1      -2.808  12.250  20.287  0.00  0.00    +0.000 A 
ATOM     13  C   UNL     1      -2.180  11.504  19.212  0.00  0.00    +0.000 A 
ATOM     14  N   UNL     1      -2.762  11.144  18.039  0.00  0.00    +0.000 NA
ATOM     15  C   UNL     1      -5.239  12.666  19.488  0.00  0.00    +0.000 C 
ATOM     16  C   UNL     1      -6.627  12.914  20.115  0.00  0.00    +0.000 C 
ATOM     17  C   UNL     1      -7.096  11.758  21.013  0.00  0.00    +0.000 C 
ATOM     18  C   UNL     1      -7.677  13.110  19.010  0.00  0.00    +0.000 C 
ATOM     19  O   UNL     1      -6.588  14.155  20.829  0.00  0.00    +0.000 OA
ATOM     20  C   UNL     1      -5.686  14.176  21.934  0.00  0.00    +0.000 C 
ATOM     21  H   UNL     1       1.774  10.775  19.166  0.00  0.00    +0.000 HD
ENDROOT
BRANCH   9  22
ATOM     22  C   UNL     1      -3.514  14.308  23.996  0.00  0.00    +0.000 C 
ATOM     23  C   UNL     1      -3.791  13.256  25.072  0.00  0.00    +0.000 C 
ATOM     24  C   UNL     1      -2.303  15.159  24.408  0.00  0.00    +0.000 C 
ENDBRANCH   9  22
BRANCH   1  26
ATOM     25  C   UNL     1      -4.140  11.057  15.719  0.00  0.00    +0.000 C 
ATOM     26  S   UNL     1      -2.662  10.020  15.629  0.00  0.00    +0.000 S 
ENDBRANCH   1  26
BRANCH   4  27
ATOM     27  C   UNL     1       1.823   8.978  18.094  0.00  0.00    +0.000 C 
BRANCH  27  28
ATOM     28  C   UNL     1       2.095   7.729  18.875  0.00  0.00    +0.000 A 
ATOM     29  C   UNL     1       1.846   7.354  20.182  0.00  0.00    +0.000 A 
ATOM     30  C   UNL     1       2.299   6.020  20.314  0.00  0.00    +0.000 A 
ATOM     31  C   UNL     1       2.797   5.664  19.083  0.00  0.00    +0.000 A 
ATOM     32  O   UNL     1       2.682   6.694  18.205  0.00  0.00    +0.000 OA
ENDBRANCH  27  28
ENDBRANCH   4  27
TORSDOF 4
ENDMDL
MODEL 5
REMARK VINA RESULT:      -7.0      2.134      4.314
REMARK  Name = 
REMARK  9 active torsions:
REMARK  status: ('A' for Active; 'I' for Inactive)
REMARK    1  A    between atoms: C_1  and  S_2
REMARK    2  A    between atoms: S_2  and  C_3
REMARK    3  A    between atoms: N_6  and  C_7
REMARK    4  A    between atoms: C_7  and  C_8
REMARK    5  A    between atoms: C_17  and  C_18
REMARK    6  A    between atoms: C_18  and  C_19
REMARK    7  A    between atoms: C_18  and  C_20
REMARK    8  A    between atoms: C_27  and  C_28
REMARK    9  A    between atoms: C_27  and  C_29
REMARK                            x       y       z     vdW  Elec       q    Type
REMARK                         _______ _______ _______ _____ _____    ______ ____
ROOT
ATOM      1  C   UNL     1       1.703  10.796  18.898  0.00  0.00    +0.000 A 
ATOM      2  N   UNL     1       0.925  11.145  19.937  0.00  0.00    +0.000 NA
ATOM      3  C   UNL     1       0.505  10.194  20.787  0.00  0.00    +0.000 A 
ATOM      4  N   UNL     1      -0.282  10.494  21.885  0.00  0.00    +0.000 N 
ATOM      5  C   UNL     1       0.920   8.879  20.543  0.00  0.00    +0.000 A 
ATOM      6  S   UNL     1       0.559   7.471  21.446  0.00  0.00    +0.000 S 
ATOM      7  C   UNL     1       1.528   6.508  20.449  0.00  0.00    +0.000 A 
ATOM      8  N   UNL     1       1.624   5.200  20.722  0.00  0.00    +0.000 NA
ATOM      9  C   UNL     1       2.366   4.466  19.877  0.00  0.00    +0.000 A 
ATOM     10  C   UNL     1       3.038   5.020  18.774  0.00  0.00    +0.000 A 
ATOM     11  C   UNL     1       2.967   6.421  18.546  0.00  0.00    +0.000 A 
ATOM     12  C   UNL     1       2.137   7.195  19.411  0.00  0.00    +0.000 A 
ATOM     13  C   UNL     1       1.764   8.597  19.472  0.00  0.00    +0.000 A 
ATOM     14  N   UNL     1       2.163   9.571  18.613  0.00  0.00    +0.000 NA
ATOM     15  C   UNL     1       3.736   7.011  17.379  0.00  0.00    +0.000 C 
ATOM     16  C   UNL     1       4.891   6.103  16.906  0.00  0.00    +0.000 C 
ATOM     17  C   UNL     1       6.085   6.095  17.875  0.00  0.00    +0.000 C 
ATOM     18  C   UNL     1       5.399   6.570  15.533  0.00  0.00    +0.000 C 
ATOM     19  O   UNL     1       4.374   4.784  16.692  0.00  0.00    +0.000 OA
ATOM     20  C   UNL     1       3.874   4.146  17.866  0.00  0.00    +0.000 C 
ATOM     21  H   UNL     1      -1.116   9.920  21.946  0.00  0.00    +0.000 HD
ENDROOT
BRANCH   9  22
ATOM     22  C   UNL     1       2.490   2.995  20.264  0.00  0.00    +0.000 C 
ATOM     23  C   UNL     1       3.944   2.660  20.607  0.00  0.00    +0.000 C 
ATOM     24  C   UNL     1       1.583   2.627  21.448  0.00  0.00    +0.000 C 
ENDBRANCH   9  22
BRANCH   1  26
ATOM     25  C   UNL     1       1.140  13.409  18.504  0.00  0.00    +0.000 C 
ATOM     26  S   UNL     1       2.118  12.088  17.751  0.00  0.00    +0.000 S 
ENDBRANCH   1  26
BRANCH   4  27
ATOM     27  C   UNL     1      -0.464  11.878  22.287  0.00  0.00    +0.000 C 
BRANCH  27  28
ATOM     28  C   UNL     1      -1.908  12.273  22.342  0.00  0.00    +0.000 A 
ATOM     29  C   UNL     1      -2.820  12.393  23.374  0.00  0.00    +0.000 A 
ATOM     30  C   UNL     1      -4.027  12.852  22.797  0.00  0.00    +0.000 A 
ATOM     31  C   UNL     1      -3.779  12.982  21.451  0.00  0.00    +0.000 A 
ATOM     32  O   UNL     1      -2.500  12.628  21.164  0.00  0.00    +0.000 OA
ENDBRANCH  27  28
ENDBRANCH   4  27
TORSDOF 4
ENDMDL
MODEL 6
REMARK VINA RESULT:      -6.6      3.863      9.807
REMARK  Name = 
REMARK  9 active torsions:
REMARK  status: ('A' for Active; 'I' for Inactive)
REMARK    1  A    between atoms: C_1  and  S_2
REMARK    2  A    between atoms: S_2  and  C_3
REMARK    3  A    between atoms: N_6  and  C_7
REMARK    4  A    between atoms: C_7  and  C_8
REMARK    5  A    between atoms: C_17  and  C_18
REMARK    6  A    between atoms: C_18  and  C_19
REMARK    7  A    between atoms: C_18  and  C_20
REMARK    8  A    between atoms: C_27  and  C_28
REMARK    9  A    between atoms: C_27  and  C_29
REMARK                            x       y       z     vdW  Elec       q    Type
REMARK                         _______ _______ _______ _____ _____    ______ ____
ROOT
ATOM      1  C   UNL     1      -2.160  10.768  18.101  0.00  0.00    +0.000 A 
ATOM      2  N   UNL     1      -0.874  10.426  17.915  0.00  0.00    +0.000 NA
ATOM      3  C   UNL     1       0.075  11.040  18.639  0.00  0.00    +0.000 A 
ATOM      4  N   UNL     1       1.416  10.719  18.506  0.00  0.00    +0.000 N 
ATOM      5  C   UNL     1      -0.340  12.003  19.568  0.00  0.00    +0.000 A 
ATOM      6  S   UNL     1       0.626  12.935  20.629  0.00  0.00    +0.000 S 
ATOM      7  C   UNL     1      -0.732  13.664  21.324  0.00  0.00    +0.000 A 
ATOM      8  N   UNL     1      -0.546  14.560  22.303  0.00  0.00    +0.000 NA
ATOM      9  C   UNL     1      -1.649  15.148  22.793  0.00  0.00    +0.000 A 
ATOM     10  C   UNL     1      -2.943  14.839  22.340  0.00  0.00    +0.000 A 
ATOM     11  C   UNL     1      -3.112  13.840  21.343  0.00  0.00    +0.000 A 
ATOM     12  C   UNL     1      -1.940  13.251  20.784  0.00  0.00    +0.000 A 
ATOM     13  C   UNL     1      -1.695  12.273  19.740  0.00  0.00    +0.000 A 
ATOM     14  N   UNL     1      -2.639  11.654  18.984  0.00  0.00    +0.000 NA
ATOM     15  C   UNL     1      -4.519  13.484  20.899  0.00  0.00    +0.000 C 
ATOM     16  C   UNL     1      -5.591  13.878  21.936  0.00  0.00    +0.000 C 
ATOM     17  C   UNL     1      -5.596  12.964  23.172  0.00  0.00    +0.000 C 
ATOM     18  C   UNL     1      -6.988  13.819  21.299  0.00  0.00    +0.000 C 
ATOM     19  O   UNL     1      -5.393  15.251  22.294  0.00  0.00    +0.000 OA
ATOM     20  C   UNL     1      -4.151  15.523  22.941  0.00  0.00    +0.000 C 
ATOM     21  H   UNL     1       2.006  11.530  18.355  0.00  0.00    +0.000 HD
ENDROOT
BRANCH   9  22
ATOM     22  C   UNL     1      -1.388  16.117  23.942  0.00  0.00    +0.000 C 
ATOM     23  C   UNL     1      -1.289  15.353  25.265  0.00  0.00    +0.000 C 
ATOM     24  C   UNL     1      -0.111  16.943  23.728  0.00  0.00    +0.000 C 
ENDBRANCH   9  22
BRANCH   1  26
ATOM     25  C   UNL     1      -2.849  10.819  15.489  0.00  0.00    +0.000 C 
ATOM     26  S   UNL     1      -3.346  10.001  17.022  0.00  0.00    +0.000 S 
ENDBRANCH   1  26
BRANCH   4  27
ATOM     27  C   UNL     1       1.804   9.534  17.761  0.00  0.00    +0.000 C 
BRANCH  27  28
ATOM     28  C   UNL     1       1.995   8.340  18.646  0.00  0.00    +0.000 A 
ATOM     29  C   UNL     1       2.588   7.106  18.458  0.00  0.00    +0.000 A 
ATOM     30  C   UNL     1       2.494   6.419  19.692  0.00  0.00    +0.000 A 
ATOM     31  C   UNL     1       1.849   7.274  20.554  0.00  0.00    +0.000 A 
ATOM     32  O   UNL     1       1.538   8.439  19.929  0.00  0.00    +0.000 OA
ENDBRANCH  27  28
ENDBRANCH   4  27
TORSDOF 4
ENDMDL
MODEL 7
REMARK VINA RESULT:      -6.6      4.252     10.352
REMARK  Name = 
REMARK  9 active torsions:
REMARK  status: ('A' for Active; 'I' for Inactive)
REMARK    1  A    between atoms: C_1  and  S_2
REMARK    2  A    between atoms: S_2  and  C_3
REMARK    3  A    between atoms: N_6  and  C_7
REMARK    4  A    between atoms: C_7  and  C_8
REMARK    5  A    between atoms: C_17  and  C_18
REMARK    6  A    between atoms: C_18  and  C_19
REMARK    7  A    between atoms: C_18  and  C_20
REMARK    8  A    between atoms: C_27  and  C_28
REMARK    9  A    between atoms: C_27  and  C_29
REMARK                            x       y       z     vdW  Elec       q    Type
REMARK                         _______ _______ _______ _____ _____    ______ ____
ROOT
ATOM      1  C   UNL     1      -2.668  11.469  18.368  0.00  0.00    +0.000 A 
ATOM      2  N   UNL     1      -1.361  11.164  18.290  0.00  0.00    +0.000 NA
ATOM      3  C   UNL     1      -0.521  11.653  19.217  0.00  0.00    +0.000 A 
ATOM      4  N   UNL     1       0.832  11.359  19.201  0.00  0.00    +0.000 N 
ATOM      5  C   UNL     1      -1.067  12.451  20.230  0.00  0.00    +0.000 A 
ATOM      6  S   UNL     1      -0.259  13.198  21.540  0.00  0.00    +0.000 S 
ATOM      7  C   UNL     1      -1.707  13.803  22.169  0.00  0.00    +0.000 A 
ATOM      8  N   UNL     1      -1.661  14.528  23.296  0.00  0.00    +0.000 NA
ATOM      9  C   UNL     1      -2.828  15.027  23.733  0.00  0.00    +0.000 A 
ATOM     10  C   UNL     1      -4.050  14.794  23.079  0.00  0.00    +0.000 A 
ATOM     11  C   UNL     1      -4.075  13.971  21.920  0.00  0.00    +0.000 A 
ATOM     12  C   UNL     1      -2.830  13.483  21.423  0.00  0.00    +0.000 A 
ATOM     13  C   UNL     1      -2.438  12.688  20.274  0.00  0.00    +0.000 A 
ATOM     14  N   UNL     1      -3.269  12.199  19.316  0.00  0.00    +0.000 NA
ATOM     15  C   UNL     1      -5.408  13.691  21.253  0.00  0.00    +0.000 C 
ATOM     16  C   UNL     1      -6.608  13.909  22.199  0.00  0.00    +0.000 C 
ATOM     17  C   UNL     1      -6.744  12.806  23.261  0.00  0.00    +0.000 C 
ATOM     18  C   UNL     1      -7.914  13.953  21.392  0.00  0.00    +0.000 C 
ATOM     19  O   UNL     1      -6.484  15.206  22.796  0.00  0.00    +0.000 OA
ATOM     20  C   UNL     1      -5.337  15.370  23.628  0.00  0.00    +0.000 C 
ATOM     21  H   UNL     1       1.419  12.185  19.257  0.00  0.00    +0.000 HD
ENDROOT
BRANCH   9  22
ATOM     22  C   UNL     1      -2.731  15.796  25.047  0.00  0.00    +0.000 C 
ATOM     23  C   UNL     1      -1.543  15.289  25.869  0.00  0.00    +0.000 C 
ATOM     24  C   UNL     1      -2.596  17.310  24.826  0.00  0.00    +0.000 C 
ENDBRANCH   9  22
BRANCH   1  26
ATOM     25  C   UNL     1      -5.296  11.315  17.764  0.00  0.00    +0.000 C 
ATOM     26  S   UNL     1      -3.696  10.887  17.041  0.00  0.00    +0.000 S 
ENDBRANCH   1  26
BRANCH   4  27
ATOM     27  C   UNL     1       1.333  10.312  18.329  0.00  0.00    +0.000 C 
BRANCH  27  28
ATOM     28  C   UNL     1       1.601   9.034  19.065  0.00  0.00    +0.000 A 
ATOM     29  C   UNL     1       2.261   7.867  18.729  0.00  0.00    +0.000 A 
ATOM     30  C   UNL     1       2.218   7.035  19.872  0.00  0.00    +0.000 A 
ATOM     31  C   UNL     1       1.535   7.743  20.832  0.00  0.00    +0.000 A 
ATOM     32  O   UNL     1       1.152   8.954  20.351  0.00  0.00    +0.000 OA
ENDBRANCH  27  28
ENDBRANCH   4  27
TORSDOF 4
ENDMDL
MODEL 8
REMARK VINA RESULT:      -6.5      9.579     12.593
REMARK  Name = 
REMARK  9 active torsions:
REMARK  status: ('A' for Active; 'I' for Inactive)
REMARK    1  A    between atoms: C_1  and  S_2
REMARK    2  A    between atoms: S_2  and  C_3
REMARK    3  A    between atoms: N_6  and  C_7
REMARK    4  A    between atoms: C_7  and  C_8
REMARK    5  A    between atoms: C_17  and  C_18
REMARK    6  A    between atoms: C_18  and  C_19
REMARK    7  A    between atoms: C_18  and  C_20
REMARK    8  A    between atoms: C_27  and  C_28
REMARK    9  A    between atoms: C_27  and  C_29
REMARK                            x       y       z     vdW  Elec       q    Type
REMARK                         _______ _______ _______ _____ _____    ______ ____
ROOT
ATOM      1  C   UNL     1      10.696  12.939  18.123  0.00  0.00    +0.000 A 
ATOM      2  N   UNL     1      10.090  11.743  18.026  0.00  0.00    +0.000 NA
ATOM      3  C   UNL     1       9.411  11.268  19.083  0.00  0.00    +0.000 A 
ATOM      4  N   UNL     1       8.751  10.052  19.038  0.00  0.00    +0.000 N 
ATOM      5  C   UNL     1       9.364  12.065  20.233  0.00  0.00    +0.000 A 
ATOM      6  S   UNL     1       8.577  11.736  21.717  0.00  0.00    +0.000 S 
ATOM      7  C   UNL     1       9.019  13.238  22.356  0.00  0.00    +0.000 A 
ATOM      8  N   UNL     1       8.629  13.541  23.602  0.00  0.00    +0.000 NA
ATOM      9  C   UNL     1       9.043  14.724  24.085  0.00  0.00    +0.000 A 
ATOM     10  C   UNL     1       9.819  15.625  23.336  0.00  0.00    +0.000 A 
ATOM     11  C   UNL     1      10.165  15.300  21.997  0.00  0.00    +0.000 A 
ATOM     12  C   UNL     1       9.773  14.023  21.498  0.00  0.00    +0.000 A 
ATOM     13  C   UNL     1       9.976  13.315  20.247  0.00  0.00    +0.000 A 
ATOM     14  N   UNL     1      10.674  13.770  19.174  0.00  0.00    +0.000 NA
ATOM     15  C   UNL     1      10.964  16.303  21.186  0.00  0.00    +0.000 C 
ATOM     16  C   UNL     1      10.858  17.739  21.741  0.00  0.00    +0.000 C 
ATOM     17  C   UNL     1       9.493  18.390  21.468  0.00  0.00    +0.000 C 
ATOM     18  C   UNL     1      11.941  18.629  21.110  0.00  0.00    +0.000 C 
ATOM     19  O   UNL     1      11.159  17.708  23.141  0.00  0.00    +0.000 OA
ATOM     20  C   UNL     1      10.242  16.951  23.929  0.00  0.00    +0.000 C 
ATOM     21  H   UNL     1       8.988   9.442  19.814  0.00  0.00    +0.000 HD
ENDROOT
BRANCH   9  22
ATOM     22  C   UNL     1       8.526  15.047  25.484  0.00  0.00    +0.000 C 
ATOM     23  C   UNL     1       7.064  15.495  25.417  0.00  0.00    +0.000 C 
ATOM     24  C   UNL     1       8.656  13.853  26.442  0.00  0.00    +0.000 C 
ENDBRANCH   9  22
BRANCH   1  26
ATOM     25  C   UNL     1      11.905  15.174  17.205  0.00  0.00    +0.000 C 
ATOM     26  S   UNL     1      11.674  13.446  16.729  0.00  0.00    +0.000 S 
ENDBRANCH   1  26
BRANCH   4  27
ATOM     27  C   UNL     1       8.566   9.377  17.765  0.00  0.00    +0.000 C 
BRANCH  27  28
ATOM     28  C   UNL     1       7.913   8.037  17.918  0.00  0.00    +0.000 A 
ATOM     29  C   UNL     1       6.860   7.417  17.273  0.00  0.00    +0.000 A 
ATOM     30  C   UNL     1       6.744   6.125  17.839  0.00  0.00    +0.000 A 
ATOM     31  C   UNL     1       7.730   6.037  18.792  0.00  0.00    +0.000 A 
ATOM     32  O   UNL     1       8.442   7.193  18.852  0.00  0.00    +0.000 OA
ENDBRANCH  27  28
ENDBRANCH   4  27
TORSDOF 4
ENDMDL
MODEL 9
REMARK VINA RESULT:      -6.4      3.251      9.676
REMARK  Name = 
REMARK  9 active torsions:
REMARK  status: ('A' for Active; 'I' for Inactive)
REMARK    1  A    between atoms: C_1  and  S_2
REMARK    2  A    between atoms: S_2  and  C_3
REMARK    3  A    between atoms: N_6  and  C_7
REMARK    4  A    between atoms: C_7  and  C_8
REMARK    5  A    between atoms: C_17  and  C_18
REMARK    6  A    between atoms: C_18  and  C_19
REMARK    7  A    between atoms: C_18  and  C_20
REMARK    8  A    between atoms: C_27  and  C_28
REMARK    9  A    between atoms: C_27  and  C_29
REMARK                            x       y       z     vdW  Elec       q    Type
REMARK                         _______ _______ _______ _____ _____    ______ ____
ROOT
ATOM      1  C   UNL     1      -1.799  10.395  17.471  0.00  0.00    +0.000 A 
ATOM      2  N   UNL     1      -0.578   9.834  17.513  0.00  0.00    +0.000 NA
ATOM      3  C   UNL     1       0.245  10.137  18.530  0.00  0.00    +0.000 A 
ATOM      4  N   UNL     1       1.507   9.577  18.638  0.00  0.00    +0.000 N 
ATOM      5  C   UNL     1      -0.231  11.021  19.506  0.00  0.00    +0.000 A 
ATOM      6  S   UNL     1       0.574  11.581  20.908  0.00  0.00    +0.000 S 
ATOM      7  C   UNL     1      -0.780  12.461  21.410  0.00  0.00    +0.000 A 
ATOM      8  N   UNL     1      -0.704  13.153  22.555  0.00  0.00    +0.000 NA
ATOM      9  C   UNL     1      -1.787  13.873  22.890  0.00  0.00    +0.000 A 
ATOM     10  C   UNL     1      -2.958  13.896  22.114  0.00  0.00    +0.000 A 
ATOM     11  C   UNL     1      -3.030  13.103  20.937  0.00  0.00    +0.000 A 
ATOM     12  C   UNL     1      -1.864  12.378  20.550  0.00  0.00    +0.000 A 
ATOM     13  C   UNL     1      -1.525  11.528  19.423  0.00  0.00    +0.000 A 
ATOM     14  N   UNL     1      -2.335  11.224  18.376  0.00  0.00    +0.000 NA
ATOM     15  C   UNL     1      -4.318  13.101  20.136  0.00  0.00    +0.000 C 
ATOM     16  C   UNL     1      -5.539  13.549  20.966  0.00  0.00    +0.000 C 
ATOM     17  C   UNL     1      -5.999  12.489  21.979  0.00  0.00    +0.000 C 
ATOM     18  C   UNL     1      -6.722  13.861  20.037  0.00  0.00    +0.000 C 
ATOM     19  O   UNL     1      -5.221  14.790  21.608  0.00  0.00    +0.000 OA
ATOM     20  C   UNL     1      -4.153  14.714  22.551  0.00  0.00    +0.000 C 
ATOM     21  H   UNL     1       2.238  10.268  18.773  0.00  0.00    +0.000 HD
ENDROOT
BRANCH   9  22
ATOM     22  C   UNL     1      -1.671  14.597  24.228  0.00  0.00    +0.000 C 
ATOM     23  C   UNL     1      -1.264  16.056  24.007  0.00  0.00    +0.000 C 
ATOM     24  C   UNL     1      -2.979  14.544  25.032  0.00  0.00    +0.000 C 
ENDBRANCH   9  22
BRANCH   1  26
ATOM     25  C   UNL     1      -4.172  11.135  16.413  0.00  0.00    +0.000 C 
ATOM     26  S   UNL     1      -2.783  10.041  16.035  0.00  0.00    +0.000 S 
ENDBRANCH   1  26
BRANCH   4  27
ATOM     27  C   UNL     1       1.874   8.457  17.790  0.00  0.00    +0.000 C 
BRANCH  27  28
ATOM     28  C   UNL     1       2.500   7.336  18.563  0.00  0.00    +0.000 A 
ATOM     29  C   UNL     1       2.261   6.797  19.813  0.00  0.00    +0.000 A 
ATOM     30  C   UNL     1       3.159   5.714  19.965  0.00  0.00    +0.000 A 
ATOM     31  C   UNL     1       3.890   5.661  18.802  0.00  0.00    +0.000 A 
ATOM     32  O   UNL     1       3.503   6.643  17.947  0.00  0.00    +0.000 OA
ENDBRANCH  27  28
ENDBRANCH   4  27
TORSDOF 4
ENDMDL
