MODEL 1
REMARK VINA RESULT:      -8.2      0.000      0.000
REMARK  Name = 
REMARK  8 active torsions:
REMARK  status: ('A' for Active; 'I' for Inactive)
REMARK    1  A    between atoms: C_1  and  C_2
REMARK    2  A    between atoms: C_2  and  C_12
REMARK    3  A    between atoms: N_3  and  N_4
REMARK    4  A    between atoms: C_5  and  C_6
REMARK    5  A    between atoms: C_15  and  N_16
REMARK    6  A    between atoms: C_17  and  C_19
REMARK    7  A    between atoms: C_24  and  C_25
REMARK    8  A    between atoms: C_25  and  O_27
REMARK                            x       y       z     vdW  Elec       q    Type
REMARK                         _______ _______ _______ _____ _____    ______ ____
ROOT
ATOM      1  C   UNL     1       0.896   9.244  20.880  0.00  0.00    +0.000 A 
ATOM      2  C   UNL     1       1.098   9.741  19.595  0.00  0.00    +0.000 A 
ATOM      3  C   UNL     1       1.767   8.982  18.634  0.00  0.00    +0.000 A 
ATOM      4  C   UNL     1       2.258   7.706  18.928  0.00  0.00    +0.000 A 
ATOM      5  C   UNL     1       2.054   7.202  20.214  0.00  0.00    +0.000 A 
ATOM      6  C   UNL     1       1.377   7.964  21.186  0.00  0.00    +0.000 A 
ENDROOT
BRANCH   4   7
ATOM      7  N   UNL     1       2.943   6.906  17.973  0.00  0.00    +0.000 N 
ATOM      8  C   UNL     1       4.022   6.085  18.254  0.00  0.00    +0.000 C 
ATOM      9  O   UNL     1       4.532   5.922  19.358  0.00  0.00    +0.000 OA
ATOM     10  H   UNL     1       2.598   6.972  17.020  0.00  0.00    +0.000 HD
BRANCH   8  11
ATOM     11  C   UNL     1       4.681   5.353  17.149  0.00  0.00    +0.000 A 
ATOM     12  C   UNL     1       5.130   6.183  16.097  0.00  0.00    +0.000 A 
ATOM     13  C   UNL     1       5.660   5.651  14.924  0.00  0.00    +0.000 A 
ATOM     14  C   UNL     1       5.755   4.275  14.785  0.00  0.00    +0.000 A 
ATOM     15  C   UNL     1       5.326   3.440  15.820  0.00  0.00    +0.000 A 
ATOM     16  C   UNL     1       4.772   3.964  17.007  0.00  0.00    +0.000 A 
BRANCH  16  17
ATOM     17  C   UNL     1       4.351   2.948  18.003  0.00  0.00    +0.000 C 
ATOM     18  O   UNL     1       3.385   2.230  17.801  0.00  0.00    +0.000 OA
BRANCH  17  19
ATOM     19  O   UNL     1       5.065   2.878  19.139  0.00  0.00    +0.000 OA
ATOM     20  H   UNL     1       5.969   3.249  19.146  0.00  0.00    +0.000 HD
ENDBRANCH  17  19
ENDBRANCH  16  17
ENDBRANCH   8  11
ENDBRANCH   4   7
BRANCH   1  22
ATOM     21  C   UNL     1      -0.658   9.322  22.943  0.00  0.00    +0.000 C 
ATOM     22  C   UNL     1       0.167  10.066  21.901  0.00  0.00    +0.000 C 
ATOM     23  N   UNL     1       0.272  11.365  21.858  0.00  0.00    +0.000 NA
BRANCH  23  24
ATOM     24  N   UNL     1      -0.426  12.006  22.869  0.00  0.00    +0.000 NA
ATOM     25  C   UNL     1      -0.967  13.108  22.466  0.00  0.00    +0.000 C 
BRANCH  25  26
ATOM     26  C   UNL     1      -1.749  13.956  23.384  0.00  0.00    +0.000 A 
ATOM     27  C   UNL     1      -3.126  13.758  23.541  0.00  0.00    +0.000 A 
ATOM     28  C   UNL     1      -3.850  14.577  24.407  0.00  0.00    +0.000 A 
ATOM     29  C   UNL     1      -3.203  15.589  25.114  0.00  0.00    +0.000 A 
ATOM     30  C   UNL     1      -1.828  15.782  24.962  0.00  0.00    +0.000 A 
ATOM     31  C   UNL     1      -1.096  14.964  24.097  0.00  0.00    +0.000 A 
ENDBRANCH  25  26
ENDBRANCH  23  24
ENDBRANCH   1  22
TORSDOF 7
ENDMDL
MODEL 2
REMARK VINA RESULT:      -8.1      1.137      1.626
REMARK  Name = 
REMARK  8 active torsions:
REMARK  status: ('A' for Active; 'I' for Inactive)
REMARK    1  A    between atoms: C_1  and  C_2
REMARK    2  A    between atoms: C_2  and  C_12
REMARK    3  A    between atoms: N_3  and  N_4
REMARK    4  A    between atoms: C_5  and  C_6
REMARK    5  A    between atoms: C_15  and  N_16
REMARK    6  A    between atoms: C_17  and  C_19
REMARK    7  A    between atoms: C_24  and  C_25
REMARK    8  A    between atoms: C_25  and  O_27
REMARK                            x       y       z     vdW  Elec       q    Type
REMARK                         _______ _______ _______ _____ _____    ______ ____
ROOT
ATOM      1  C   UNL     1       1.014   9.816  19.602  0.00  0.00    +0.000 A 
ATOM      2  C   UNL     1       1.349   8.659  20.302  0.00  0.00    +0.000 A 
ATOM      3  C   UNL     1       2.045   7.624  19.676  0.00  0.00    +0.000 A 
ATOM      4  C   UNL     1       2.424   7.711  18.332  0.00  0.00    +0.000 A 
ATOM      5  C   UNL     1       2.095   8.871  17.629  0.00  0.00    +0.000 A 
ATOM      6  C   UNL     1       1.395   9.919  18.258  0.00  0.00    +0.000 A 
ENDROOT
BRANCH   4   7
ATOM      7  N   UNL     1       3.135   6.677  17.665  0.00  0.00    +0.000 N 
ATOM      8  C   UNL     1       4.488   6.707  17.369  0.00  0.00    +0.000 C 
ATOM      9  O   UNL     1       5.263   7.617  17.646  0.00  0.00    +0.000 OA
ATOM     10  H   UNL     1       2.580   5.874  17.387  0.00  0.00    +0.000 HD
BRANCH   8  11
ATOM     11  C   UNL     1       5.088   5.586  16.611  0.00  0.00    +0.000 A 
ATOM     12  C   UNL     1       5.611   5.957  15.352  0.00  0.00    +0.000 A 
ATOM     13  C   UNL     1       6.099   5.008  14.457  0.00  0.00    +0.000 A 
ATOM     14  C   UNL     1       6.078   3.668  14.809  0.00  0.00    +0.000 A 
ATOM     15  C   UNL     1       5.574   3.284  16.056  0.00  0.00    +0.000 A 
ATOM     16  C   UNL     1       5.061   4.232  16.966  0.00  0.00    +0.000 A 
BRANCH  16  17
ATOM     17  C   UNL     1       4.551   3.666  18.238  0.00  0.00    +0.000 C 
ATOM     18  O   UNL     1       3.360   3.455  18.402  0.00  0.00    +0.000 OA
BRANCH  17  19
ATOM     19  O   UNL     1       5.455   3.423  19.202  0.00  0.00    +0.000 OA
ATOM     20  H   UNL     1       5.424   2.563  19.665  0.00  0.00    +0.000 HD
ENDBRANCH  17  19
ENDBRANCH  16  17
ENDBRANCH   8  11
ENDBRANCH   4   7
BRANCH   1  22
ATOM     21  C   UNL     1      -0.865  11.587  19.526  0.00  0.00    +0.000 C 
ATOM     22  C   UNL     1       0.274  10.925  20.289  0.00  0.00    +0.000 C 
ATOM     23  N   UNL     1       0.629  11.268  21.496  0.00  0.00    +0.000 NA
BRANCH  23  24
ATOM     24  N   UNL     1      -0.149  12.285  22.028  0.00  0.00    +0.000 NA
ATOM     25  C   UNL     1      -1.114  11.830  22.757  0.00  0.00    +0.000 C 
BRANCH  25  26
ATOM     26  C   UNL     1      -2.070  12.740  23.413  0.00  0.00    +0.000 A 
ATOM     27  C   UNL     1      -3.349  12.297  23.769  0.00  0.00    +0.000 A 
ATOM     28  C   UNL     1      -4.243  13.176  24.380  0.00  0.00    +0.000 A 
ATOM     29  C   UNL     1      -3.862  14.493  24.634  0.00  0.00    +0.000 A 
ATOM     30  C   UNL     1      -2.583  14.933  24.285  0.00  0.00    +0.000 A 
ATOM     31  C   UNL     1      -1.683  14.057  23.675  0.00  0.00    +0.000 A 
ENDBRANCH  25  26
ENDBRANCH  23  24
ENDBRANCH   1  22
TORSDOF 7
ENDMDL
MODEL 3
REMARK VINA RESULT:      -8.1      1.153      1.634
REMARK  Name = 
REMARK  8 active torsions:
REMARK  status: ('A' for Active; 'I' for Inactive)
REMARK    1  A    between atoms: C_1  and  C_2
REMARK    2  A    between atoms: C_2  and  C_12
REMARK    3  A    between atoms: N_3  and  N_4
REMARK    4  A    between atoms: C_5  and  C_6
REMARK    5  A    between atoms: C_15  and  N_16
REMARK    6  A    between atoms: C_17  and  C_19
REMARK    7  A    between atoms: C_24  and  C_25
REMARK    8  A    between atoms: C_25  and  O_27
REMARK                            x       y       z     vdW  Elec       q    Type
REMARK                         _______ _______ _______ _____ _____    ______ ____
ROOT
ATOM      1  C   UNL     1       1.023   9.832  19.639  0.00  0.00    +0.000 A 
ATOM      2  C   UNL     1       1.328   9.932  18.284  0.00  0.00    +0.000 A 
ATOM      3  C   UNL     1       2.010   8.906  17.630  0.00  0.00    +0.000 A 
ATOM      4  C   UNL     1       2.412   7.751  18.308  0.00  0.00    +0.000 A 
ATOM      5  C   UNL     1       2.105   7.645  19.666  0.00  0.00    +0.000 A 
ATOM      6  C   UNL     1       1.414   8.677  20.330  0.00  0.00    +0.000 A 
ENDROOT
BRANCH   4   7
ATOM      7  N   UNL     1       3.107   6.687  17.672  0.00  0.00    +0.000 N 
ATOM      8  C   UNL     1       4.456   6.694  17.362  0.00  0.00    +0.000 C 
ATOM      9  O   UNL     1       5.243   7.607  17.597  0.00  0.00    +0.000 OA
ATOM     10  H   UNL     1       2.542   5.879  17.429  0.00  0.00    +0.000 HD
BRANCH   8  11
ATOM     11  C   UNL     1       5.039   5.541  16.639  0.00  0.00    +0.000 A 
ATOM     12  C   UNL     1       5.537   5.859  15.355  0.00  0.00    +0.000 A 
ATOM     13  C   UNL     1       6.005   4.872  14.490  0.00  0.00    +0.000 A 
ATOM     14  C   UNL     1       5.989   3.547  14.899  0.00  0.00    +0.000 A 
ATOM     15  C   UNL     1       5.510   3.217  16.170  0.00  0.00    +0.000 A 
ATOM     16  C   UNL     1       5.017   4.203  17.050  0.00  0.00    +0.000 A 
BRANCH  16  17
ATOM     17  C   UNL     1       4.531   3.691  18.354  0.00  0.00    +0.000 C 
ATOM     18  O   UNL     1       3.344   3.709  18.636  0.00  0.00    +0.000 OA
BRANCH  17  19
ATOM     19  O   UNL     1       5.460   3.236  19.213  0.00  0.00    +0.000 OA
ATOM     20  H   UNL     1       5.639   2.276  19.240  0.00  0.00    +0.000 HD
ENDBRANCH  17  19
ENDBRANCH  16  17
ENDBRANCH   8  11
ENDBRANCH   4   7
BRANCH   1  22
ATOM     21  C   UNL     1      -0.882  11.577  19.581  0.00  0.00    +0.000 C 
ATOM     22  C   UNL     1       0.281  10.938  20.329  0.00  0.00    +0.000 C 
ATOM     23  N   UNL     1       0.653  11.298  21.526  0.00  0.00    +0.000 NA
BRANCH  23  24
ATOM     24  N   UNL     1      -0.128  12.309  22.062  0.00  0.00    +0.000 NA
ATOM     25  C   UNL     1      -1.107  11.847  22.769  0.00  0.00    +0.000 C 
BRANCH  25  26
ATOM     26  C   UNL     1      -2.069  12.750  23.424  0.00  0.00    +0.000 A 
ATOM     27  C   UNL     1      -1.715  14.068  23.734  0.00  0.00    +0.000 A 
ATOM     28  C   UNL     1      -2.636  14.905  24.364  0.00  0.00    +0.000 A 
ATOM     29  C   UNL     1      -3.907  14.427  24.683  0.00  0.00    +0.000 A 
ATOM     30  C   UNL     1      -4.262  13.114  24.368  0.00  0.00    +0.000 A 
ATOM     31  C   UNL     1      -3.344  12.272  23.736  0.00  0.00    +0.000 A 
ENDBRANCH  25  26
ENDBRANCH  23  24
ENDBRANCH   1  22
TORSDOF 7
ENDMDL
MODEL 4
REMARK VINA RESULT:      -7.9      1.782      2.634
REMARK  Name = 
REMARK  8 active torsions:
REMARK  status: ('A' for Active; 'I' for Inactive)
REMARK    1  A    between atoms: C_1  and  C_2
REMARK    2  A    between atoms: C_2  and  C_12
REMARK    3  A    between atoms: N_3  and  N_4
REMARK    4  A    between atoms: C_5  and  C_6
REMARK    5  A    between atoms: C_15  and  N_16
REMARK    6  A    between atoms: C_17  and  C_19
REMARK    7  A    between atoms: C_24  and  C_25
REMARK    8  A    between atoms: C_25  and  O_27
REMARK                            x       y       z     vdW  Elec       q    Type
REMARK                         _______ _______ _______ _____ _____    ______ ____
ROOT
ATOM      1  C   UNL     1       0.851   9.314  20.268  0.00  0.00    +0.000 A 
ATOM      2  C   UNL     1       1.402   8.091  20.644  0.00  0.00    +0.000 A 
ATOM      3  C   UNL     1       2.251   7.398  19.782  0.00  0.00    +0.000 A 
ATOM      4  C   UNL     1       2.573   7.900  18.517  0.00  0.00    +0.000 A 
ATOM      5  C   UNL     1       2.026   9.127  18.138  0.00  0.00    +0.000 A 
ATOM      6  C   UNL     1       1.171   9.832  19.007  0.00  0.00    +0.000 A 
ENDROOT
BRANCH   4   7
ATOM      7  N   UNL     1       3.436   7.220  17.616  0.00  0.00    +0.000 N 
ATOM      8  C   UNL     1       4.310   6.205  17.967  0.00  0.00    +0.000 C 
ATOM      9  O   UNL     1       4.459   5.744  19.095  0.00  0.00    +0.000 OA
ATOM     10  H   UNL     1       3.393   7.532  16.650  0.00  0.00    +0.000 HD
BRANCH   8  11
ATOM     11  C   UNL     1       5.200   5.626  16.935  0.00  0.00    +0.000 A 
ATOM     12  C   UNL     1       4.587   4.632  16.140  0.00  0.00    +0.000 A 
ATOM     13  C   UNL     1       5.312   3.896  15.206  0.00  0.00    +0.000 A 
ATOM     14  C   UNL     1       6.667   4.147  15.047  0.00  0.00    +0.000 A 
ATOM     15  C   UNL     1       7.286   5.135  15.817  0.00  0.00    +0.000 A 
ATOM     16  C   UNL     1       6.568   5.877  16.779  0.00  0.00    +0.000 A 
BRANCH  16  17
ATOM     17  C   UNL     1       7.370   6.877  17.525  0.00  0.00    +0.000 C 
ATOM     18  O   UNL     1       7.482   8.024  17.123  0.00  0.00    +0.000 OA
BRANCH  17  19
ATOM     19  O   UNL     1       7.985   6.452  18.642  0.00  0.00    +0.000 OA
ATOM     20  H   UNL     1       8.474   5.607  18.613  0.00  0.00    +0.000 HD
ENDBRANCH  17  19
ENDBRANCH  16  17
ENDBRANCH   8  11
ENDBRANCH   4   7
BRANCH   1  22
ATOM     21  C   UNL     1      -0.533   9.316  22.451  0.00  0.00    +0.000 C 
ATOM     22  C   UNL     1      -0.053  10.055  21.208  0.00  0.00    +0.000 C 
ATOM     23  N   UNL     1      -0.383  11.285  20.929  0.00  0.00    +0.000 NA
BRANCH  23  24
ATOM     24  N   UNL     1      -1.199  11.865  21.888  0.00  0.00    +0.000 NA
ATOM     25  C   UNL     1      -2.315  12.285  21.389  0.00  0.00    +0.000 C 
BRANCH  25  26
ATOM     26  C   UNL     1      -3.328  12.944  22.232  0.00  0.00    +0.000 A 
ATOM     27  C   UNL     1      -3.962  14.116  21.802  0.00  0.00    +0.000 A 
ATOM     28  C   UNL     1      -4.911  14.731  22.619  0.00  0.00    +0.000 A 
ATOM     29  C   UNL     1      -5.227  14.178  23.859  0.00  0.00    +0.000 A 
ATOM     30  C   UNL     1      -4.599  13.005  24.285  0.00  0.00    +0.000 A 
ATOM     31  C   UNL     1      -3.648  12.384  23.471  0.00  0.00    +0.000 A 
ENDBRANCH  25  26
ENDBRANCH  23  24
ENDBRANCH   1  22
TORSDOF 7
ENDMDL
MODEL 5
REMARK VINA RESULT:      -7.8      3.797     11.546
REMARK  Name = 
REMARK  8 active torsions:
REMARK  status: ('A' for Active; 'I' for Inactive)
REMARK    1  A    between atoms: C_1  and  C_2
REMARK    2  A    between atoms: C_2  and  C_12
REMARK    3  A    between atoms: N_3  and  N_4
REMARK    4  A    between atoms: C_5  and  C_6
REMARK    5  A    between atoms: C_15  and  N_16
REMARK    6  A    between atoms: C_17  and  C_19
REMARK    7  A    between atoms: C_24  and  C_25
REMARK    8  A    between atoms: C_25  and  O_27
REMARK                            x       y       z     vdW  Elec       q    Type
REMARK                         _______ _______ _______ _____ _____    ______ ____
ROOT
ATOM      1  C   UNL     1       0.894   8.648  20.848  0.00  0.00    +0.000 A 
ATOM      2  C   UNL     1       0.388   9.704  20.094  0.00  0.00    +0.000 A 
ATOM      3  C   UNL     1      -0.340  10.728  20.700  0.00  0.00    +0.000 A 
ATOM      4  C   UNL     1      -0.590  10.727  22.076  0.00  0.00    +0.000 A 
ATOM      5  C   UNL     1      -0.082   9.672  22.836  0.00  0.00    +0.000 A 
ATOM      6  C   UNL     1       0.656   8.638  22.229  0.00  0.00    +0.000 A 
ENDROOT
BRANCH   4   7
ATOM      7  N   UNL     1      -1.327  11.754  22.725  0.00  0.00    +0.000 N 
ATOM      8  C   UNL     1      -0.901  13.064  22.871  0.00  0.00    +0.000 C 
ATOM      9  O   UNL     1       0.158  13.526  22.456  0.00  0.00    +0.000 OA
ATOM     10  H   UNL     1      -2.223  11.473  23.111  0.00  0.00    +0.000 HD
BRANCH   8  11
ATOM     11  C   UNL     1      -1.743  14.019  23.627  0.00  0.00    +0.000 A 
ATOM     12  C   UNL     1      -1.068  15.197  24.017  0.00  0.00    +0.000 A 
ATOM     13  C   UNL     1      -1.673  16.145  24.841  0.00  0.00    +0.000 A 
ATOM     14  C   UNL     1      -2.969  15.931  25.284  0.00  0.00    +0.000 A 
ATOM     15  C   UNL     1      -3.655  14.776  24.899  0.00  0.00    +0.000 A 
ATOM     16  C   UNL     1      -3.050  13.800  24.079  0.00  0.00    +0.000 A 
BRANCH  16  17
ATOM     17  C   UNL     1      -3.902  12.626  23.771  0.00  0.00    +0.000 C 
ATOM     18  O   UNL     1      -4.262  12.389  22.629  0.00  0.00    +0.000 OA
BRANCH  17  19
ATOM     19  O   UNL     1      -4.277  11.858  24.809  0.00  0.00    +0.000 OA
ATOM     20  H   UNL     1      -4.330  12.265  25.695  0.00  0.00    +0.000 HD
ENDBRANCH  17  19
ENDBRANCH  16  17
ENDBRANCH   8  11
ENDBRANCH   4   7
BRANCH   1  22
ATOM     21  C   UNL     1       1.687   6.188  20.853  0.00  0.00    +0.000 C 
ATOM     22  C   UNL     1       1.684   7.558  20.186  0.00  0.00    +0.000 C 
ATOM     23  N   UNL     1       2.322   7.823  19.080  0.00  0.00    +0.000 NA
BRANCH  23  24
ATOM     24  N   UNL     1       2.989   6.727  18.556  0.00  0.00    +0.000 NA
ATOM     25  C   UNL     1       3.700   7.037  17.522  0.00  0.00    +0.000 C 
BRANCH  25  26
ATOM     26  C   UNL     1       4.485   6.020  16.802  0.00  0.00    +0.000 A 
ATOM     27  C   UNL     1       5.264   6.371  15.693  0.00  0.00    +0.000 A 
ATOM     28  C   UNL     1       5.993   5.392  15.018  0.00  0.00    +0.000 A 
ATOM     29  C   UNL     1       5.944   4.066  15.449  0.00  0.00    +0.000 A 
ATOM     30  C   UNL     1       5.172   3.717  16.559  0.00  0.00    +0.000 A 
ATOM     31  C   UNL     1       4.441   4.694  17.240  0.00  0.00    +0.000 A 
ENDBRANCH  25  26
ENDBRANCH  23  24
ENDBRANCH   1  22
TORSDOF 7
ENDMDL
MODEL 6
REMARK VINA RESULT:      -7.8      1.313      1.657
REMARK  Name = 
REMARK  8 active torsions:
REMARK  status: ('A' for Active; 'I' for Inactive)
REMARK    1  A    between atoms: C_1  and  C_2
REMARK    2  A    between atoms: C_2  and  C_12
REMARK    3  A    between atoms: N_3  and  N_4
REMARK    4  A    between atoms: C_5  and  C_6
REMARK    5  A    between atoms: C_15  and  N_16
REMARK    6  A    between atoms: C_17  and  C_19
REMARK    7  A    between atoms: C_24  and  C_25
REMARK    8  A    between atoms: C_25  and  O_27
REMARK                            x       y       z     vdW  Elec       q    Type
REMARK                         _______ _______ _______ _____ _____    ______ ____
ROOT
ATOM      1  C   UNL     1       0.984   9.112  20.425  0.00  0.00    +0.000 A 
ATOM      2  C   UNL     1       1.448   7.919  20.974  0.00  0.00    +0.000 A 
ATOM      3  C   UNL     1       2.146   6.999  20.191  0.00  0.00    +0.000 A 
ATOM      4  C   UNL     1       2.398   7.239  18.836  0.00  0.00    +0.000 A 
ATOM      5  C   UNL     1       1.938   8.436  18.283  0.00  0.00    +0.000 A 
ATOM      6  C   UNL     1       1.235   9.368  19.071  0.00  0.00    +0.000 A 
ENDROOT
BRANCH   4   7
ATOM      7  N   UNL     1       3.106   6.324  18.011  0.00  0.00    +0.000 N 
ATOM      8  C   UNL     1       4.392   6.518  17.534  0.00  0.00    +0.000 C 
ATOM      9  O   UNL     1       5.102   7.493  17.759  0.00  0.00    +0.000 OA
ATOM     10  H   UNL     1       2.601   5.480  17.760  0.00  0.00    +0.000 HD
BRANCH   8  11
ATOM     11  C   UNL     1       4.987   5.509  16.628  0.00  0.00    +0.000 A 
ATOM     12  C   UNL     1       5.471   6.042  15.412  0.00  0.00    +0.000 A 
ATOM     13  C   UNL     1       5.949   5.218  14.395  0.00  0.00    +0.000 A 
ATOM     14  C   UNL     1       5.956   3.844  14.580  0.00  0.00    +0.000 A 
ATOM     15  C   UNL     1       5.491   3.302  15.781  0.00  0.00    +0.000 A 
ATOM     16  C   UNL     1       4.989   4.121  16.814  0.00  0.00    +0.000 A 
BRANCH  16  17
ATOM     17  C   UNL     1       4.521   3.394  18.019  0.00  0.00    +0.000 C 
ATOM     18  O   UNL     1       3.366   3.011  18.115  0.00  0.00    +0.000 OA
BRANCH  17  19
ATOM     19  O   UNL     1       5.418   3.204  19.001  0.00  0.00    +0.000 OA
ATOM     20  H   UNL     1       5.242   3.601  19.877  0.00  0.00    +0.000 HD
ENDBRANCH  17  19
ENDBRANCH  16  17
ENDBRANCH   8  11
ENDBRANCH   4   7
BRANCH   1  22
ATOM     21  C   UNL     1      -0.041   9.702  22.723  0.00  0.00    +0.000 C 
ATOM     22  C   UNL     1       0.244  10.098  21.280  0.00  0.00    +0.000 C 
ATOM     23  N   UNL     1      -0.116  11.238  20.761  0.00  0.00    +0.000 NA
BRANCH  23  24
ATOM     24  N   UNL     1      -0.768  12.068  21.659  0.00  0.00    +0.000 NA
ATOM     25  C   UNL     1      -2.041  12.116  21.444  0.00  0.00    +0.000 C 
BRANCH  25  26
ATOM     26  C   UNL     1      -2.926  12.948  22.279  0.00  0.00    +0.000 A 
ATOM     27  C   UNL     1      -3.337  14.213  21.843  0.00  0.00    +0.000 A 
ATOM     28  C   UNL     1      -4.167  14.990  22.652  0.00  0.00    +0.000 A 
ATOM     29  C   UNL     1      -4.585  14.505  23.891  0.00  0.00    +0.000 A 
ATOM     30  C   UNL     1      -4.180  13.240  24.322  0.00  0.00    +0.000 A 
ATOM     31  C   UNL     1      -3.350  12.457  23.516  0.00  0.00    +0.000 A 
ENDBRANCH  25  26
ENDBRANCH  23  24
ENDBRANCH   1  22
TORSDOF 7
ENDMDL
MODEL 7
REMARK VINA RESULT:      -7.8      1.341      1.887
REMARK  Name = 
REMARK  8 active torsions:
REMARK  status: ('A' for Active; 'I' for Inactive)
REMARK    1  A    between atoms: C_1  and  C_2
REMARK    2  A    between atoms: C_2  and  C_12
REMARK    3  A    between atoms: N_3  and  N_4
REMARK    4  A    between atoms: C_5  and  C_6
REMARK    5  A    between atoms: C_15  and  N_16
REMARK    6  A    between atoms: C_17  and  C_19
REMARK    7  A    between atoms: C_24  and  C_25
REMARK    8  A    between atoms: C_25  and  O_27
REMARK                            x       y       z     vdW  Elec       q    Type
REMARK                         _______ _______ _______ _____ _____    ______ ____
ROOT
ATOM      1  C   UNL     1       0.598   9.736  19.590  0.00  0.00    +0.000 A 
ATOM      2  C   UNL     1       1.181   8.644  20.229  0.00  0.00    +0.000 A 
ATOM      3  C   UNL     1       2.204   7.922  19.614  0.00  0.00    +0.000 A 
ATOM      4  C   UNL     1       2.673   8.264  18.341  0.00  0.00    +0.000 A 
ATOM      5  C   UNL     1       2.094   9.360  17.699  0.00  0.00    +0.000 A 
ATOM      6  C   UNL     1       1.063  10.093  18.317  0.00  0.00    +0.000 A 
ENDROOT
BRANCH   4   7
ATOM      7  N   UNL     1       3.714   7.551  17.687  0.00  0.00    +0.000 N 
ATOM      8  C   UNL     1       3.730   6.181  17.483  0.00  0.00    +0.000 C 
ATOM      9  O   UNL     1       2.853   5.394  17.824  0.00  0.00    +0.000 OA
ATOM     10  H   UNL     1       4.496   8.114  17.367  0.00  0.00    +0.000 HD
BRANCH   8  11
ATOM     11  C   UNL     1       4.911   5.559  16.842  0.00  0.00    +0.000 A 
ATOM     12  C   UNL     1       4.962   5.732  15.440  0.00  0.00    +0.000 A 
ATOM     13  C   UNL     1       5.936   5.107  14.664  0.00  0.00    +0.000 A 
ATOM     14  C   UNL     1       6.881   4.301  15.279  0.00  0.00    +0.000 A 
ATOM     15  C   UNL     1       6.852   4.129  16.666  0.00  0.00    +0.000 A 
ATOM     16  C   UNL     1       5.862   4.741  17.463  0.00  0.00    +0.000 A 
BRANCH  16  17
ATOM     17  C   UNL     1       5.957   4.448  18.914  0.00  0.00    +0.000 C 
ATOM     18  O   UNL     1       6.543   5.204  19.673  0.00  0.00    +0.000 OA
BRANCH  17  19
ATOM     19  O   UNL     1       5.393   3.306  19.342  0.00  0.00    +0.000 OA
ATOM     20  H   UNL     1       4.502   3.347  19.740  0.00  0.00    +0.000 HD
ENDBRANCH  17  19
ENDBRANCH  16  17
ENDBRANCH   8  11
ENDBRANCH   4   7
BRANCH   1  22
ATOM     21  C   UNL     1      -1.626  11.037  19.392  0.00  0.00    +0.000 C 
ATOM     22  C   UNL     1      -0.494  10.510  20.265  0.00  0.00    +0.000 C 
ATOM     23  N   UNL     1      -0.434  10.693  21.555  0.00  0.00    +0.000 NA
BRANCH  23  24
ATOM     24  N   UNL     1      -1.515  11.399  22.060  0.00  0.00    +0.000 NA
ATOM     25  C   UNL     1      -1.146  12.412  22.772  0.00  0.00    +0.000 C 
BRANCH  25  26
ATOM     26  C   UNL     1      -2.135  13.296  23.414  0.00  0.00    +0.000 A 
ATOM     27  C   UNL     1      -3.496  12.970  23.405  0.00  0.00    +0.000 A 
ATOM     28  C   UNL     1      -4.418  13.824  24.010  0.00  0.00    +0.000 A 
ATOM     29  C   UNL     1      -3.983  15.000  24.620  0.00  0.00    +0.000 A 
ATOM     30  C   UNL     1      -2.624  15.322  24.633  0.00  0.00    +0.000 A 
ATOM     31  C   UNL     1      -1.696  14.470  24.031  0.00  0.00    +0.000 A 
ENDBRANCH  25  26
ENDBRANCH  23  24
ENDBRANCH   1  22
TORSDOF 7
ENDMDL
MODEL 8
REMARK VINA RESULT:      -7.7      3.896     11.685
REMARK  Name = 
REMARK  8 active torsions:
REMARK  status: ('A' for Active; 'I' for Inactive)
REMARK    1  A    between atoms: C_1  and  C_2
REMARK    2  A    between atoms: C_2  and  C_12
REMARK    3  A    between atoms: N_3  and  N_4
REMARK    4  A    between atoms: C_5  and  C_6
REMARK    5  A    between atoms: C_15  and  N_16
REMARK    6  A    between atoms: C_17  and  C_19
REMARK    7  A    between atoms: C_24  and  C_25
REMARK    8  A    between atoms: C_25  and  O_27
REMARK                            x       y       z     vdW  Elec       q    Type
REMARK                         _______ _______ _______ _____ _____    ______ ____
ROOT
ATOM      1  C   UNL     1       0.968   8.798  20.760  0.00  0.00    +0.000 A 
ATOM      2  C   UNL     1       0.286   8.537  21.946  0.00  0.00    +0.000 A 
ATOM      3  C   UNL     1      -0.333   9.568  22.653  0.00  0.00    +0.000 A 
ATOM      4  C   UNL     1      -0.287  10.891  22.201  0.00  0.00    +0.000 A 
ATOM      5  C   UNL     1       0.392  11.156  21.011  0.00  0.00    +0.000 A 
ATOM      6  C   UNL     1       1.016  10.118  20.293  0.00  0.00    +0.000 A 
ENDROOT
BRANCH   4   7
ATOM      7  N   UNL     1      -0.908  11.964  22.897  0.00  0.00    +0.000 N 
ATOM      8  C   UNL     1      -2.040  12.637  22.468  0.00  0.00    +0.000 C 
ATOM      9  O   UNL     1      -2.671  12.401  21.442  0.00  0.00    +0.000 OA
ATOM     10  H   UNL     1      -0.458  12.242  23.763  0.00  0.00    +0.000 HD
BRANCH   8  11
ATOM     11  C   UNL     1      -2.545  13.780  23.261  0.00  0.00    +0.000 A 
ATOM     12  C   UNL     1      -1.655  14.876  23.322  0.00  0.00    +0.000 A 
ATOM     13  C   UNL     1      -1.917  15.984  24.125  0.00  0.00    +0.000 A 
ATOM     14  C   UNL     1      -3.079  16.016  24.880  0.00  0.00    +0.000 A 
ATOM     15  C   UNL     1      -3.975  14.946  24.823  0.00  0.00    +0.000 A 
ATOM     16  C   UNL     1      -3.717  13.810  24.027  0.00  0.00    +0.000 A 
BRANCH  16  17
ATOM     17  C   UNL     1      -4.756  12.754  24.086  0.00  0.00    +0.000 C 
ATOM     18  O   UNL     1      -5.532  12.579  23.160  0.00  0.00    +0.000 OA
BRANCH  17  19
ATOM     19  O   UNL     1      -4.818  12.023  25.213  0.00  0.00    +0.000 OA
ATOM     20  H   UNL     1      -4.575  12.449  26.058  0.00  0.00    +0.000 HD
ENDBRANCH  17  19
ENDBRANCH  16  17
ENDBRANCH   8  11
ENDBRANCH   4   7
BRANCH   1  22
ATOM     21  C   UNL     1       1.659   6.310  20.668  0.00  0.00    +0.000 C 
ATOM     22  C   UNL     1       1.622   7.680  20.004  0.00  0.00    +0.000 C 
ATOM     23  N   UNL     1       2.120   7.923  18.823  0.00  0.00    +0.000 NA
BRANCH  23  24
ATOM     24  N   UNL     1       2.671   6.803  18.220  0.00  0.00    +0.000 NA
ATOM     25  C   UNL     1       3.762   7.078  17.585  0.00  0.00    +0.000 C 
BRANCH  25  26
ATOM     26  C   UNL     1       4.509   6.034  16.861  0.00  0.00    +0.000 A 
ATOM     27  C   UNL     1       5.252   6.349  15.718  0.00  0.00    +0.000 A 
ATOM     28  C   UNL     1       5.944   5.345  15.041  0.00  0.00    +0.000 A 
ATOM     29  C   UNL     1       5.894   4.031  15.503  0.00  0.00    +0.000 A 
ATOM     30  C   UNL     1       5.157   3.717  16.647  0.00  0.00    +0.000 A 
ATOM     31  C   UNL     1       4.463   4.719  17.331  0.00  0.00    +0.000 A 
ENDBRANCH  25  26
ENDBRANCH  23  24
ENDBRANCH   1  22
TORSDOF 7
ENDMDL
MODEL 9
REMARK VINA RESULT:      -7.6      1.340      2.077
REMARK  Name = 
REMARK  8 active torsions:
REMARK  status: ('A' for Active; 'I' for Inactive)
REMARK    1  A    between atoms: C_1  and  C_2
REMARK    2  A    between atoms: C_2  and  C_12
REMARK    3  A    between atoms: N_3  and  N_4
REMARK    4  A    between atoms: C_5  and  C_6
REMARK    5  A    between atoms: C_15  and  N_16
REMARK    6  A    between atoms: C_17  and  C_19
REMARK    7  A    between atoms: C_24  and  C_25
REMARK    8  A    between atoms: C_25  and  O_27
REMARK                            x       y       z     vdW  Elec       q    Type
REMARK                         _______ _______ _______ _____ _____    ______ ____
ROOT
ATOM      1  C   UNL     1       0.382   9.689  20.700  0.00  0.00    +0.000 A 
ATOM      2  C   UNL     1       0.942   8.518  21.206  0.00  0.00    +0.000 A 
ATOM      3  C   UNL     1       1.764   7.720  20.410  0.00  0.00    +0.000 A 
ATOM      4  C   UNL     1       2.049   8.063  19.084  0.00  0.00    +0.000 A 
ATOM      5  C   UNL     1       1.493   9.237  18.574  0.00  0.00    +0.000 A 
ATOM      6  C   UNL     1       0.665  10.047  19.375  0.00  0.00    +0.000 A 
ENDROOT
BRANCH   4   7
ATOM      7  N   UNL     1       2.883   7.273  18.247  0.00  0.00    +0.000 N 
ATOM      8  C   UNL     1       3.571   6.142  18.653  0.00  0.00    +0.000 C 
ATOM      9  O   UNL     1       3.554   5.657  19.781  0.00  0.00    +0.000 OA
ATOM     10  H   UNL     1       2.969   7.594  17.288  0.00  0.00    +0.000 HD
BRANCH   8  11
ATOM     11  C   UNL     1       4.457   5.449  17.690  0.00  0.00    +0.000 A 
ATOM     12  C   UNL     1       5.558   6.223  17.262  0.00  0.00    +0.000 A 
ATOM     13  C   UNL     1       6.422   5.774  16.265  0.00  0.00    +0.000 A 
ATOM     14  C   UNL     1       6.200   4.536  15.682  0.00  0.00    +0.000 A 
ATOM     15  C   UNL     1       5.122   3.752  16.102  0.00  0.00    +0.000 A 
ATOM     16  C   UNL     1       4.229   4.201  17.099  0.00  0.00    +0.000 A 
BRANCH  16  17
ATOM     17  C   UNL     1       3.128   3.261  17.422  0.00  0.00    +0.000 C 
ATOM     18  O   UNL     1       1.973   3.515  17.121  0.00  0.00    +0.000 OA
BRANCH  17  19
ATOM     19  O   UNL     1       3.461   2.138  18.081  0.00  0.00    +0.000 OA
ATOM     20  H   UNL     1       2.756   1.496  18.295  0.00  0.00    +0.000 HD
ENDBRANCH  17  19
ENDBRANCH  16  17
ENDBRANCH   8  11
ENDBRANCH   4   7
BRANCH   1  22
ATOM     21  C   UNL     1      -0.595  10.174  23.042  0.00  0.00    +0.000 C 
ATOM     22  C   UNL     1      -0.492  10.544  21.568  0.00  0.00    +0.000 C 
ATOM     23  N   UNL     1      -1.114  11.558  21.034  0.00  0.00    +0.000 NA
BRANCH  23  24
ATOM     24  N   UNL     1      -1.867  12.281  21.946  0.00  0.00    +0.000 NA
ATOM     25  C   UNL     1      -3.011  12.636  21.462  0.00  0.00    +0.000 C 
BRANCH  25  26
ATOM     26  C   UNL     1      -3.967  13.424  22.261  0.00  0.00    +0.000 A 
ATOM     27  C   UNL     1      -3.520  14.443  23.109  0.00  0.00    +0.000 A 
ATOM     28  C   UNL     1      -4.440  15.171  23.864  0.00  0.00    +0.000 A 
ATOM     29  C   UNL     1      -5.801  14.882  23.772  0.00  0.00    +0.000 A 
ATOM     30  C   UNL     1      -6.247  13.870  22.920  0.00  0.00    +0.000 A 
ATOM     31  C   UNL     1      -5.331  13.138  22.160  0.00  0.00    +0.000 A 
ENDBRANCH  25  26
ENDBRANCH  23  24
ENDBRANCH   1  22
TORSDOF 7
ENDMDL
