MODEL 1
REMARK VINA RESULT:      -8.3      0.000      0.000
REMARK  Name = 
REMARK  11 active torsions:
REMARK  status: ('A' for Active; 'I' for Inactive)
REMARK    1  A    between atoms: C_1  and  O_2
REMARK    2  A    between atoms: O_2  and  C_3
REMARK    3  A    between atoms: C_6  and  C_7
REMARK    4  A    between atoms: C_10  and  S_11
REMARK    5  A    between atoms: S_11  and  C_12
REMARK    6  A    between atoms: C_12  and  C_13
REMARK    7  A    between atoms: C_13  and  C_15
REMARK    8  A    between atoms: C_17  and  C_18
REMARK    9  A    between atoms: N_19  and  C_20
REMARK   10  A    between atoms: C_20  and  C_21
REMARK   11  A    between atoms: C_26  and  C_27
REMARK                            x       y       z     vdW  Elec       q    Type
REMARK                         _______ _______ _______ _____ _____    ______ ____
ROOT
ATOM      1  C   UNL     1       7.556   4.871  17.322  0.00  0.00    +0.000 C 
ENDROOT
BRANCH   1   2
ATOM      2  C   UNL     1       6.424   5.336  16.415  0.00  0.00    +0.000 C 
ATOM      3  O   UNL     1       6.613   5.592  15.224  0.00  0.00    +0.000 OA
BRANCH   2   4
ATOM      4  C   UNL     1       5.085   5.450  17.003  0.00  0.00    +0.000 A 
ATOM      5  C   UNL     1       4.478   6.580  17.615  0.00  0.00    +0.000 A 
ATOM      6  C   UNL     1       3.202   6.228  18.011  0.00  0.00    +0.000 A 
ATOM      7  C   UNL     1       2.155   7.068  18.658  0.00  0.00    +0.000 C 
ATOM      8  N   UNL     1       3.020   4.895  17.689  0.00  0.00    +0.000 N 
ATOM      9  C   UNL     1       4.147   4.424  17.041  0.00  0.00    +0.000 A 
ATOM     10  C   UNL     1       4.267   3.046  16.475  0.00  0.00    +0.000 C 
BRANCH   8  11
ATOM     11  C   UNL     1       1.839   4.099  18.040  0.00  0.00    +0.000 C 
BRANCH  11  12
ATOM     12  C   UNL     1       1.868   3.571  19.446  0.00  0.00    +0.000 A 
ATOM     13  C   UNL     1       0.897   3.567  20.432  0.00  0.00    +0.000 A 
ATOM     14  C   UNL     1       1.362   3.002  21.656  0.00  0.00    +0.000 A 
ATOM     15  C   UNL     1       2.662   2.564  21.564  0.00  0.00    +0.000 A 
ATOM     16  S   UNL     1       3.316   2.832  20.007  0.00  0.00    +0.000 S 
ENDBRANCH  11  12
ENDBRANCH   8  11
ENDBRANCH   2   4
ENDBRANCH   1   2
BRANCH   1  17
ATOM     17  S   UNL     1       7.548   5.766  18.915  0.00  0.00    +0.000 S 
BRANCH  17  21
ATOM     18  C   UNL     1       8.624   9.375  18.248  0.00  0.00    +0.000 A 
ATOM     19  N   UNL     1       8.063   9.112  17.084  0.00  0.00    +0.000 NA
ATOM     20  N   UNL     1       7.610   7.815  17.151  0.00  0.00    +0.000 NA
ATOM     21  C   UNL     1       7.918   7.371  18.353  0.00  0.00    +0.000 A 
ATOM     22  O   UNL     1       8.556   8.315  19.114  0.00  0.00    +0.000 OA
BRANCH  18  26
ATOM     23  C   UNL     1      10.537  12.935  19.682  0.00  0.00    +0.000 A 
ATOM     24  C   UNL     1      10.484  11.777  20.458  0.00  0.00    +0.000 A 
ATOM     25  C   UNL     1       9.878  10.617  19.968  0.00  0.00    +0.000 A 
ATOM     26  C   UNL     1       9.291  10.594  18.693  0.00  0.00    +0.000 A 
ATOM     27  C   UNL     1       9.350  11.762  17.918  0.00  0.00    +0.000 A 
ATOM     28  C   UNL     1       9.966  12.926  18.409  0.00  0.00    +0.000 A 
BRANCH  23  30
ATOM     29  C   UNL     1      12.268  14.552  19.645  0.00  0.00    +0.000 C 
ATOM     30  O   UNL     1      11.123  14.007  20.291  0.00  0.00    +0.000 OA
ENDBRANCH  23  30
ENDBRANCH  18  26
ENDBRANCH  17  21
ENDBRANCH   1  17
TORSDOF 8
ENDMDL
MODEL 2
REMARK VINA RESULT:      -8.1      7.466     10.351
REMARK  Name = 
REMARK  11 active torsions:
REMARK  status: ('A' for Active; 'I' for Inactive)
REMARK    1  A    between atoms: C_1  and  O_2
REMARK    2  A    between atoms: O_2  and  C_3
REMARK    3  A    between atoms: C_6  and  C_7
REMARK    4  A    between atoms: C_10  and  S_11
REMARK    5  A    between atoms: S_11  and  C_12
REMARK    6  A    between atoms: C_12  and  C_13
REMARK    7  A    between atoms: C_13  and  C_15
REMARK    8  A    between atoms: C_17  and  C_18
REMARK    9  A    between atoms: N_19  and  C_20
REMARK   10  A    between atoms: C_20  and  C_21
REMARK   11  A    between atoms: C_26  and  C_27
REMARK                            x       y       z     vdW  Elec       q    Type
REMARK                         _______ _______ _______ _____ _____    ______ ____
ROOT
ATOM      1  C   UNL     1       0.715  11.678  18.970  0.00  0.00    +0.000 C 
ENDROOT
BRANCH   1   2
ATOM      2  C   UNL     1       0.264  10.231  19.108  0.00  0.00    +0.000 C 
ATOM      3  O   UNL     1      -0.902   9.940  19.385  0.00  0.00    +0.000 OA
BRANCH   2   4
ATOM      4  C   UNL     1       1.263   9.182  18.879  0.00  0.00    +0.000 A 
ATOM      5  C   UNL     1       2.090   8.978  17.740  0.00  0.00    +0.000 A 
ATOM      6  C   UNL     1       2.888   7.875  17.975  0.00  0.00    +0.000 A 
ATOM      7  C   UNL     1       3.945   7.282  17.109  0.00  0.00    +0.000 C 
ATOM      8  N   UNL     1       2.548   7.372  19.217  0.00  0.00    +0.000 N 
ATOM      9  C   UNL     1       1.587   8.184  19.792  0.00  0.00    +0.000 A 
ATOM     10  C   UNL     1       1.048   7.988  21.171  0.00  0.00    +0.000 C 
BRANCH   8  11
ATOM     11  C   UNL     1       3.084   6.137  19.800  0.00  0.00    +0.000 C 
BRANCH  11  12
ATOM     12  C   UNL     1       2.319   4.906  19.402  0.00  0.00    +0.000 A 
ATOM     13  C   UNL     1       2.284   4.211  18.206  0.00  0.00    +0.000 A 
ATOM     14  C   UNL     1       1.376   3.112  18.239  0.00  0.00    +0.000 A 
ATOM     15  C   UNL     1       0.765   2.980  19.464  0.00  0.00    +0.000 A 
ATOM     16  S   UNL     1       1.288   4.176  20.568  0.00  0.00    +0.000 S 
ENDBRANCH  11  12
ENDBRANCH   8  11
ENDBRANCH   2   4
ENDBRANCH   1   2
BRANCH   1  17
ATOM     17  S   UNL     1       1.429  12.310  20.529  0.00  0.00    +0.000 S 
BRANCH  17  21
ATOM     18  C   UNL     1      -1.793  11.996  22.565  0.00  0.00    +0.000 A 
ATOM     19  N   UNL     1      -1.050  11.130  23.225  0.00  0.00    +0.000 NA
ATOM     20  N   UNL     1       0.178  11.115  22.608  0.00  0.00    +0.000 NA
ATOM     21  C   UNL     1       0.109  11.977  21.613  0.00  0.00    +0.000 A 
ATOM     22  O   UNL     1      -1.115  12.587  21.531  0.00  0.00    +0.000 OA
BRANCH  18  26
ATOM     23  C   UNL     1      -5.878  13.180  23.108  0.00  0.00    +0.000 A 
ATOM     24  C   UNL     1      -5.297  13.142  21.841  0.00  0.00    +0.000 A 
ATOM     25  C   UNL     1      -3.972  12.732  21.676  0.00  0.00    +0.000 A 
ATOM     26  C   UNL     1      -3.188  12.366  22.783  0.00  0.00    +0.000 A 
ATOM     27  C   UNL     1      -3.781  12.406  24.054  0.00  0.00    +0.000 A 
ATOM     28  C   UNL     1      -5.116  12.812  24.216  0.00  0.00    +0.000 A 
BRANCH  23  30
ATOM     29  C   UNL     1      -7.380  14.951  22.639  0.00  0.00    +0.000 C 
ATOM     30  O   UNL     1      -7.166  13.635  23.134  0.00  0.00    +0.000 OA
ENDBRANCH  23  30
ENDBRANCH  18  26
ENDBRANCH  17  21
ENDBRANCH   1  17
TORSDOF 8
ENDMDL
MODEL 3
REMARK VINA RESULT:      -7.9      0.987      1.306
REMARK  Name = 
REMARK  11 active torsions:
REMARK  status: ('A' for Active; 'I' for Inactive)
REMARK    1  A    between atoms: C_1  and  O_2
REMARK    2  A    between atoms: O_2  and  C_3
REMARK    3  A    between atoms: C_6  and  C_7
REMARK    4  A    between atoms: C_10  and  S_11
REMARK    5  A    between atoms: S_11  and  C_12
REMARK    6  A    between atoms: C_12  and  C_13
REMARK    7  A    between atoms: C_13  and  C_15
REMARK    8  A    between atoms: C_17  and  C_18
REMARK    9  A    between atoms: N_19  and  C_20
REMARK   10  A    between atoms: C_20  and  C_21
REMARK   11  A    between atoms: C_26  and  C_27
REMARK                            x       y       z     vdW  Elec       q    Type
REMARK                         _______ _______ _______ _____ _____    ______ ____
ROOT
ATOM      1  C   UNL     1       7.431   5.873  16.688  0.00  0.00    +0.000 C 
ENDROOT
BRANCH   1   2
ATOM      2  C   UNL     1       6.261   4.902  16.615  0.00  0.00    +0.000 C 
ATOM      3  O   UNL     1       6.402   3.747  16.207  0.00  0.00    +0.000 OA
BRANCH   2   4
ATOM      4  C   UNL     1       4.951   5.380  17.071  0.00  0.00    +0.000 A 
ATOM      5  C   UNL     1       4.534   6.715  17.327  0.00  0.00    +0.000 A 
ATOM      6  C   UNL     1       3.211   6.689  17.723  0.00  0.00    +0.000 A 
ATOM      7  C   UNL     1       2.311   7.826  18.062  0.00  0.00    +0.000 C 
ATOM      8  N   UNL     1       2.812   5.365  17.753  0.00  0.00    +0.000 N 
ATOM      9  C   UNL     1       3.853   4.564  17.320  0.00  0.00    +0.000 A 
ATOM     10  C   UNL     1       3.748   3.084  17.145  0.00  0.00    +0.000 C 
BRANCH   8  11
ATOM     11  C   UNL     1       1.508   4.889  18.228  0.00  0.00    +0.000 C 
BRANCH  11  12
ATOM     12  C   UNL     1       1.587   4.098  19.503  0.00  0.00    +0.000 A 
ATOM     13  C   UNL     1       1.103   2.841  19.819  0.00  0.00    +0.000 A 
ATOM     14  C   UNL     1       1.358   2.481  21.175  0.00  0.00    +0.000 A 
ATOM     15  C   UNL     1       2.054   3.458  21.848  0.00  0.00    +0.000 A 
ATOM     16  S   UNL     1       2.398   4.800  20.847  0.00  0.00    +0.000 S 
ENDBRANCH  11  12
ENDBRANCH   8  11
ENDBRANCH   2   4
ENDBRANCH   1   2
BRANCH   1  17
ATOM     17  S   UNL     1       7.781   6.373  18.411  0.00  0.00    +0.000 S 
BRANCH  17  21
ATOM     18  C   UNL     1       8.763  10.069  18.349  0.00  0.00    +0.000 A 
ATOM     19  N   UNL     1       7.844  10.087  17.404  0.00  0.00    +0.000 NA
ATOM     20  N   UNL     1       7.373   8.800  17.290  0.00  0.00    +0.000 NA
ATOM     21  C   UNL     1       8.030   8.080  18.176  0.00  0.00    +0.000 A 
ATOM     22  O   UNL     1       8.925   8.824  18.899  0.00  0.00    +0.000 OA
BRANCH  18  26
ATOM     23  C   UNL     1      11.221  13.325  19.670  0.00  0.00    +0.000 A 
ATOM     24  C   UNL     1      10.217  13.514  18.720  0.00  0.00    +0.000 A 
ATOM     25  C   UNL     1       9.409  12.448  18.316  0.00  0.00    +0.000 A 
ATOM     26  C   UNL     1       9.598  11.160  18.842  0.00  0.00    +0.000 A 
ATOM     27  C   UNL     1      10.610  10.979  19.797  0.00  0.00    +0.000 A 
ATOM     28  C   UNL     1      11.417  12.054  20.208  0.00  0.00    +0.000 A 
BRANCH  23  30
ATOM     29  C   UNL     1      11.239  15.584  20.383  0.00  0.00    +0.000 C 
ATOM     30  O   UNL     1      11.962  14.438  19.948  0.00  0.00    +0.000 OA
ENDBRANCH  23  30
ENDBRANCH  18  26
ENDBRANCH  17  21
ENDBRANCH   1  17
TORSDOF 8
ENDMDL
MODEL 4
REMARK VINA RESULT:      -7.8      6.378      9.659
REMARK  Name = 
REMARK  11 active torsions:
REMARK  status: ('A' for Active; 'I' for Inactive)
REMARK    1  A    between atoms: C_1  and  O_2
REMARK    2  A    between atoms: O_2  and  C_3
REMARK    3  A    between atoms: C_6  and  C_7
REMARK    4  A    between atoms: C_10  and  S_11
REMARK    5  A    between atoms: S_11  and  C_12
REMARK    6  A    between atoms: C_12  and  C_13
REMARK    7  A    between atoms: C_13  and  C_15
REMARK    8  A    between atoms: C_17  and  C_18
REMARK    9  A    between atoms: N_19  and  C_20
REMARK   10  A    between atoms: C_20  and  C_21
REMARK   11  A    between atoms: C_26  and  C_27
REMARK                            x       y       z     vdW  Elec       q    Type
REMARK                         _______ _______ _______ _____ _____    ______ ____
ROOT
ATOM      1  C   UNL     1       0.629   9.633  19.939  0.00  0.00    +0.000 C 
ENDROOT
BRANCH   1   2
ATOM      2  C   UNL     1       0.638  11.075  20.429  0.00  0.00    +0.000 C 
ATOM      3  O   UNL     1       1.656  11.768  20.383  0.00  0.00    +0.000 OA
BRANCH   2   4
ATOM      4  C   UNL     1      -0.621  11.626  20.943  0.00  0.00    +0.000 A 
ATOM      5  C   UNL     1      -1.181  11.498  22.244  0.00  0.00    +0.000 A 
ATOM      6  C   UNL     1      -2.372  12.196  22.275  0.00  0.00    +0.000 A 
ATOM      7  C   UNL     1      -3.309  12.400  23.415  0.00  0.00    +0.000 C 
ATOM      8  N   UNL     1      -2.579  12.723  21.014  0.00  0.00    +0.000 N 
ATOM      9  C   UNL     1      -1.499  12.413  20.206  0.00  0.00    +0.000 A 
ATOM     10  C   UNL     1      -1.346  12.894  18.801  0.00  0.00    +0.000 C 
BRANCH   8  11
ATOM     11  C   UNL     1      -3.785  13.443  20.590  0.00  0.00    +0.000 C 
BRANCH  11  12
ATOM     12  C   UNL     1      -4.908  12.536  20.171  0.00  0.00    +0.000 A 
ATOM     13  C   UNL     1      -5.968  12.017  20.893  0.00  0.00    +0.000 A 
ATOM     14  C   UNL     1      -6.787  11.149  20.114  0.00  0.00    +0.000 A 
ATOM     15  C   UNL     1      -6.349  11.050  18.814  0.00  0.00    +0.000 A 
ATOM     16  S   UNL     1      -4.958  12.004  18.537  0.00  0.00    +0.000 S 
ENDBRANCH  11  12
ENDBRANCH   8  11
ENDBRANCH   2   4
ENDBRANCH   1   2
BRANCH   1  17
ATOM     17  S   UNL     1       0.762   8.453  21.328  0.00  0.00    +0.000 S 
BRANCH  17  21
ATOM     18  C   UNL     1       2.828   6.060  19.174  0.00  0.00    +0.000 A 
ATOM     19  N   UNL     1       2.409   5.204  20.085  0.00  0.00    +0.000 NA
ATOM     20  N   UNL     1       1.631   5.917  20.966  0.00  0.00    +0.000 NA
ATOM     21  C   UNL     1       1.620   7.162  20.535  0.00  0.00    +0.000 A 
ATOM     22  O   UNL     1       2.351   7.327  19.388  0.00  0.00    +0.000 OA
BRANCH  18  26
ATOM     23  C   UNL     1       5.379   5.512  15.772  0.00  0.00    +0.000 A 
ATOM     24  C   UNL     1       5.226   6.763  16.369  0.00  0.00    +0.000 A 
ATOM     25  C   UNL     1       4.409   6.922  17.491  0.00  0.00    +0.000 A 
ATOM     26  C   UNL     1       3.709   5.832  18.034  0.00  0.00    +0.000 A 
ATOM     27  C   UNL     1       3.870   4.577  17.428  0.00  0.00    +0.000 A 
ATOM     28  C   UNL     1       4.697   4.418  16.303  0.00  0.00    +0.000 A 
BRANCH  23  30
ATOM     29  C   UNL     1       6.499   4.222  14.131  0.00  0.00    +0.000 C 
ATOM     30  O   UNL     1       6.174   5.501  14.661  0.00  0.00    +0.000 OA
ENDBRANCH  23  30
ENDBRANCH  18  26
ENDBRANCH  17  21
ENDBRANCH   1  17
TORSDOF 8
ENDMDL
MODEL 5
REMARK VINA RESULT:      -7.7      5.221      7.765
REMARK  Name = 
REMARK  11 active torsions:
REMARK  status: ('A' for Active; 'I' for Inactive)
REMARK    1  A    between atoms: C_1  and  O_2
REMARK    2  A    between atoms: O_2  and  C_3
REMARK    3  A    between atoms: C_6  and  C_7
REMARK    4  A    between atoms: C_10  and  S_11
REMARK    5  A    between atoms: S_11  and  C_12
REMARK    6  A    between atoms: C_12  and  C_13
REMARK    7  A    between atoms: C_13  and  C_15
REMARK    8  A    between atoms: C_17  and  C_18
REMARK    9  A    between atoms: N_19  and  C_20
REMARK   10  A    between atoms: C_20  and  C_21
REMARK   11  A    between atoms: C_26  and  C_27
REMARK                            x       y       z     vdW  Elec       q    Type
REMARK                         _______ _______ _______ _____ _____    ______ ____
ROOT
ATOM      1  C   UNL     1       2.504   4.515  21.599  0.00  0.00    +0.000 C 
ENDROOT
BRANCH   1   2
ATOM      2  C   UNL     1       1.454   5.022  20.620  0.00  0.00    +0.000 C 
ATOM      3  O   UNL     1       0.444   4.365  20.357  0.00  0.00    +0.000 OA
BRANCH   2   4
ATOM      4  C   UNL     1       1.673   6.338  20.009  0.00  0.00    +0.000 A 
ATOM      5  C   UNL     1       2.432   6.664  18.852  0.00  0.00    +0.000 A 
ATOM      6  C   UNL     1       2.342   8.026  18.643  0.00  0.00    +0.000 A 
ATOM      7  C   UNL     1       2.924   8.847  17.544  0.00  0.00    +0.000 C 
ATOM      8  N   UNL     1       1.574   8.554  19.665  0.00  0.00    +0.000 N 
ATOM      9  C   UNL     1       1.130   7.529  20.480  0.00  0.00    +0.000 A 
ATOM     10  C   UNL     1       0.206   7.725  21.636  0.00  0.00    +0.000 C 
BRANCH   8  11
ATOM     11  C   UNL     1       1.326   9.985  19.879  0.00  0.00    +0.000 C 
BRANCH  11  12
ATOM     12  C   UNL     1       0.068  10.479  19.222  0.00  0.00    +0.000 A 
ATOM     13  C   UNL     1      -0.630   9.999  18.128  0.00  0.00    +0.000 A 
ATOM     14  C   UNL     1      -1.760  10.805  17.804  0.00  0.00    +0.000 A 
ATOM     15  C   UNL     1      -1.912  11.859  18.674  0.00  0.00    +0.000 A 
ATOM     16  S   UNL     1      -0.697  11.873  19.876  0.00  0.00    +0.000 S 
ENDBRANCH  11  12
ENDBRANCH   8  11
ENDBRANCH   2   4
ENDBRANCH   1   2
BRANCH   1  17
ATOM     17  S   UNL     1       2.809   2.726  21.388  0.00  0.00    +0.000 S 
BRANCH  17  21
ATOM     18  C   UNL     1       4.332   3.175  17.908  0.00  0.00    +0.000 A 
ATOM     19  N   UNL     1       3.535   2.157  17.652  0.00  0.00    +0.000 NA
ATOM     20  N   UNL     1       2.892   1.855  18.829  0.00  0.00    +0.000 NA
ATOM     21  C   UNL     1       3.334   2.711  19.729  0.00  0.00    +0.000 A 
ATOM     22  O   UNL     1       4.246   3.592  19.211  0.00  0.00    +0.000 OA
BRANCH  18  26
ATOM     23  C   UNL     1       7.076   5.081  15.221  0.00  0.00    +0.000 A 
ATOM     24  C   UNL     1       6.121   4.175  14.760  0.00  0.00    +0.000 A 
ATOM     25  C   UNL     1       5.219   3.579  15.644  0.00  0.00    +0.000 A 
ATOM     26  C   UNL     1       5.262   3.863  17.019  0.00  0.00    +0.000 A 
ATOM     27  C   UNL     1       6.224   4.776  17.474  0.00  0.00    +0.000 A 
ATOM     28  C   UNL     1       7.127   5.381  16.582  0.00  0.00    +0.000 A 
BRANCH  23  30
ATOM     29  C   UNL     1       7.685   5.111  12.932  0.00  0.00    +0.000 C 
ATOM     30  O   UNL     1       7.919   5.562  14.261  0.00  0.00    +0.000 OA
ENDBRANCH  23  30
ENDBRANCH  18  26
ENDBRANCH  17  21
ENDBRANCH   1  17
TORSDOF 8
ENDMDL
MODEL 6
REMARK VINA RESULT:      -7.6      5.446      8.037
REMARK  Name = 
REMARK  11 active torsions:
REMARK  status: ('A' for Active; 'I' for Inactive)
REMARK    1  A    between atoms: C_1  and  O_2
REMARK    2  A    between atoms: O_2  and  C_3
REMARK    3  A    between atoms: C_6  and  C_7
REMARK    4  A    between atoms: C_10  and  S_11
REMARK    5  A    between atoms: S_11  and  C_12
REMARK    6  A    between atoms: C_12  and  C_13
REMARK    7  A    between atoms: C_13  and  C_15
REMARK    8  A    between atoms: C_17  and  C_18
REMARK    9  A    between atoms: N_19  and  C_20
REMARK   10  A    between atoms: C_20  and  C_21
REMARK   11  A    between atoms: C_26  and  C_27
REMARK                            x       y       z     vdW  Elec       q    Type
REMARK                         _______ _______ _______ _____ _____    ______ ____
ROOT
ATOM      1  C   UNL     1       1.763   5.669  20.908  0.00  0.00    +0.000 C 
ENDROOT
BRANCH   1   2
ATOM      2  C   UNL     1       2.163   6.878  20.073  0.00  0.00    +0.000 C 
ATOM      3  O   UNL     1       3.056   6.813  19.226  0.00  0.00    +0.000 OA
BRANCH   2   4
ATOM      4  C   UNL     1       1.430   8.129  20.296  0.00  0.00    +0.000 A 
ATOM      5  C   UNL     1       0.754   8.565  21.468  0.00  0.00    +0.000 A 
ATOM      6  C   UNL     1       0.221   9.815  21.223  0.00  0.00    +0.000 A 
ATOM      7  C   UNL     1      -0.538  10.708  22.143  0.00  0.00    +0.000 C 
ATOM      8  N   UNL     1       0.522  10.147  19.915  0.00  0.00    +0.000 N 
ATOM      9  C   UNL     1       1.291   9.143  19.355  0.00  0.00    +0.000 A 
ATOM     10  C   UNL     1       1.868   9.206  17.978  0.00  0.00    +0.000 C 
BRANCH   8  11
ATOM     11  C   UNL     1       0.045  11.348  19.219  0.00  0.00    +0.000 C 
BRANCH  11  12
ATOM     12  C   UNL     1      -1.368  11.229  18.722  0.00  0.00    +0.000 A 
ATOM     13  C   UNL     1      -2.514  11.918  19.080  0.00  0.00    +0.000 A 
ATOM     14  C   UNL     1      -3.670  11.453  18.388  0.00  0.00    +0.000 A 
ATOM     15  C   UNL     1      -3.374  10.445  17.501  0.00  0.00    +0.000 A 
ATOM     16  S   UNL     1      -1.707  10.065  17.504  0.00  0.00    +0.000 S 
ENDBRANCH  11  12
ENDBRANCH   8  11
ENDBRANCH   2   4
ENDBRANCH   1   2
BRANCH   1  17
ATOM     17  S   UNL     1       1.499   4.192  19.865  0.00  0.00    +0.000 S 
BRANCH  17  21
ATOM     18  C   UNL     1       4.745   4.040  17.846  0.00  0.00    +0.000 A 
ATOM     19  N   UNL     1       5.201   3.592  18.998  0.00  0.00    +0.000 NA
ATOM     20  N   UNL     1       4.135   3.584  19.867  0.00  0.00    +0.000 NA
ATOM     21  C   UNL     1       3.094   4.021  19.187  0.00  0.00    +0.000 A 
ATOM     22  O   UNL     1       3.404   4.320  17.887  0.00  0.00    +0.000 OA
BRANCH  18  26
ATOM     23  C   UNL     1       6.921   4.849  14.241  0.00  0.00    +0.000 A 
ATOM     24  C   UNL     1       7.495   5.056  15.496  0.00  0.00    +0.000 A 
ATOM     25  C   UNL     1       6.781   4.766  16.662  0.00  0.00    +0.000 A 
ATOM     26  C   UNL     1       5.466   4.278  16.600  0.00  0.00    +0.000 A 
ATOM     27  C   UNL     1       4.898   4.072  15.334  0.00  0.00    +0.000 A 
ATOM     28  C   UNL     1       5.619   4.357  14.162  0.00  0.00    +0.000 A 
BRANCH  23  30
ATOM     29  C   UNL     1       7.477   4.519  11.962  0.00  0.00    +0.000 C 
ATOM     30  O   UNL     1       7.710   5.207  13.186  0.00  0.00    +0.000 OA
ENDBRANCH  23  30
ENDBRANCH  18  26
ENDBRANCH  17  21
ENDBRANCH   1  17
TORSDOF 8
ENDMDL
MODEL 7
REMARK VINA RESULT:      -7.5      6.908      9.650
REMARK  Name = 
REMARK  11 active torsions:
REMARK  status: ('A' for Active; 'I' for Inactive)
REMARK    1  A    between atoms: C_1  and  O_2
REMARK    2  A    between atoms: O_2  and  C_3
REMARK    3  A    between atoms: C_6  and  C_7
REMARK    4  A    between atoms: C_10  and  S_11
REMARK    5  A    between atoms: S_11  and  C_12
REMARK    6  A    between atoms: C_12  and  C_13
REMARK    7  A    between atoms: C_13  and  C_15
REMARK    8  A    between atoms: C_17  and  C_18
REMARK    9  A    between atoms: N_19  and  C_20
REMARK   10  A    between atoms: C_20  and  C_21
REMARK   11  A    between atoms: C_26  and  C_27
REMARK                            x       y       z     vdW  Elec       q    Type
REMARK                         _______ _______ _______ _____ _____    ______ ____
ROOT
ATOM      1  C   UNL     1       2.364  11.015  18.442  0.00  0.00    +0.000 C 
ENDROOT
BRANCH   1   2
ATOM      2  C   UNL     1       1.556   9.754  18.169  0.00  0.00    +0.000 C 
ATOM      3  O   UNL     1       0.381   9.805  17.799  0.00  0.00    +0.000 OA
BRANCH   2   4
ATOM      4  C   UNL     1       2.233   8.463  18.339  0.00  0.00    +0.000 A 
ATOM      5  C   UNL     1       3.078   7.777  17.426  0.00  0.00    +0.000 A 
ATOM      6  C   UNL     1       3.500   6.604  18.020  0.00  0.00    +0.000 A 
ATOM      7  C   UNL     1       4.426   5.564  17.491  0.00  0.00    +0.000 C 
ATOM      8  N   UNL     1       2.906   6.532  19.267  0.00  0.00    +0.000 N 
ATOM      9  C   UNL     1       2.163   7.678  19.485  0.00  0.00    +0.000 A 
ATOM     10  C   UNL     1       1.452   7.978  20.764  0.00  0.00    +0.000 C 
BRANCH   8  11
ATOM     11  C   UNL     1       3.003   5.389  20.182  0.00  0.00    +0.000 C 
BRANCH  11  12
ATOM     12  C   UNL     1       2.339   4.146  19.660  0.00  0.00    +0.000 A 
ATOM     13  C   UNL     1       1.079   3.952  19.122  0.00  0.00    +0.000 A 
ATOM     14  C   UNL     1       0.829   2.587  18.794  0.00  0.00    +0.000 A 
ATOM     15  C   UNL     1       1.912   1.782  19.061  0.00  0.00    +0.000 A 
ATOM     16  S   UNL     1       3.223   2.672  19.703  0.00  0.00    +0.000 S 
ENDBRANCH  11  12
ENDBRANCH   8  11
ENDBRANCH   2   4
ENDBRANCH   1   2
BRANCH   1  17
ATOM     17  S   UNL     1       1.313  12.509  18.386  0.00  0.00    +0.000 S 
BRANCH  17  21
ATOM     18  C   UNL     1      -1.079  12.328  21.365  0.00  0.00    +0.000 A 
ATOM     19  N   UNL     1      -0.002  11.826  21.938  0.00  0.00    +0.000 NA
ATOM     20  N   UNL     1       0.984  11.816  20.979  0.00  0.00    +0.000 NA
ATOM     21  C   UNL     1       0.449  12.318  19.884  0.00  0.00    +0.000 A 
ATOM     22  O   UNL     1      -0.861  12.679  20.058  0.00  0.00    +0.000 OA
BRANCH  18  26
ATOM     23  C   UNL     1      -5.008  13.023  22.934  0.00  0.00    +0.000 A 
ATOM     24  C   UNL     1      -4.714  13.248  21.589  0.00  0.00    +0.000 A 
ATOM     25  C   UNL     1      -3.435  12.995  21.087  0.00  0.00    +0.000 A 
ATOM     26  C   UNL     1      -2.411  12.527  21.926  0.00  0.00    +0.000 A 
ATOM     27  C   UNL     1      -2.715  12.302  23.277  0.00  0.00    +0.000 A 
ATOM     28  C   UNL     1      -4.005  12.550  23.779  0.00  0.00    +0.000 A 
BRANCH  23  30
ATOM     29  C   UNL     1      -6.866  12.544  24.323  0.00  0.00    +0.000 C 
ATOM     30  O   UNL     1      -6.283  13.346  23.303  0.00  0.00    +0.000 OA
ENDBRANCH  23  30
ENDBRANCH  18  26
ENDBRANCH  17  21
ENDBRANCH   1  17
TORSDOF 8
ENDMDL
MODEL 8
REMARK VINA RESULT:      -7.4      6.768     10.443
REMARK  Name = 
REMARK  11 active torsions:
REMARK  status: ('A' for Active; 'I' for Inactive)
REMARK    1  A    between atoms: C_1  and  O_2
REMARK    2  A    between atoms: O_2  and  C_3
REMARK    3  A    between atoms: C_6  and  C_7
REMARK    4  A    between atoms: C_10  and  S_11
REMARK    5  A    between atoms: S_11  and  C_12
REMARK    6  A    between atoms: C_12  and  C_13
REMARK    7  A    between atoms: C_13  and  C_15
REMARK    8  A    between atoms: C_17  and  C_18
REMARK    9  A    between atoms: N_19  and  C_20
REMARK   10  A    between atoms: C_20  and  C_21
REMARK   11  A    between atoms: C_26  and  C_27
REMARK                            x       y       z     vdW  Elec       q    Type
REMARK                         _______ _______ _______ _____ _____    ______ ____
ROOT
ATOM      1  C   UNL     1      -0.219   9.812  20.963  0.00  0.00    +0.000 C 
ENDROOT
BRANCH   1   2
ATOM      2  C   UNL     1      -0.021  11.107  21.738  0.00  0.00    +0.000 C 
ATOM      3  O   UNL     1      -0.383  11.222  22.911  0.00  0.00    +0.000 OA
BRANCH   2   4
ATOM      4  C   UNL     1       0.640  12.219  21.045  0.00  0.00    +0.000 A 
ATOM      5  C   UNL     1       1.497  12.175  19.912  0.00  0.00    +0.000 A 
ATOM      6  C   UNL     1       1.871  13.467  19.599  0.00  0.00    +0.000 A 
ATOM      7  C   UNL     1       2.724  13.951  18.477  0.00  0.00    +0.000 C 
ATOM      8  N   UNL     1       1.292  14.306  20.534  0.00  0.00    +0.000 N 
ATOM      9  C   UNL     1       0.510  13.559  21.395  0.00  0.00    +0.000 A 
ATOM     10  C   UNL     1      -0.331  14.149  22.480  0.00  0.00    +0.000 C 
BRANCH   8  11
ATOM     11  C   UNL     1       1.527  15.751  20.628  0.00  0.00    +0.000 C 
BRANCH  11  12
ATOM     12  C   UNL     1       0.524  16.571  19.866  0.00  0.00    +0.000 A 
ATOM     13  C   UNL     1      -0.202  16.280  18.725  0.00  0.00    +0.000 A 
ATOM     14  C   UNL     1      -1.016  17.372  18.301  0.00  0.00    +0.000 A 
ATOM     15  C   UNL     1      -0.911  18.454  19.143  0.00  0.00    +0.000 A 
ATOM     16  S   UNL     1       0.162  18.151  20.439  0.00  0.00    +0.000 S 
ENDBRANCH  11  12
ENDBRANCH   8  11
ENDBRANCH   2   4
ENDBRANCH   1   2
BRANCH   1  17
ATOM     17  S   UNL     1       1.009   8.548  21.445  0.00  0.00    +0.000 S 
BRANCH  17  21
ATOM     18  C   UNL     1       2.783   7.291  18.297  0.00  0.00    +0.000 A 
ATOM     19  N   UNL     1       2.254   8.394  17.806  0.00  0.00    +0.000 NA
ATOM     20  N   UNL     1       1.559   8.988  18.833  0.00  0.00    +0.000 NA
ATOM     21  C   UNL     1       1.712   8.212  19.888  0.00  0.00    +0.000 A 
ATOM     22  O   UNL     1       2.492   7.117  19.625  0.00  0.00    +0.000 OA
BRANCH  18  26
ATOM     23  C   UNL     1       5.151   4.390  16.208  0.00  0.00    +0.000 A 
ATOM     24  C   UNL     1       5.416   5.755  16.100  0.00  0.00    +0.000 A 
ATOM     25  C   UNL     1       4.650   6.688  16.805  0.00  0.00    +0.000 A 
ATOM     26  C   UNL     1       3.586   6.276  17.623  0.00  0.00    +0.000 A 
ATOM     27  C   UNL     1       3.327   4.901  17.727  0.00  0.00    +0.000 A 
ATOM     28  C   UNL     1       4.103   3.964  17.023  0.00  0.00    +0.000 A 
BRANCH  23  30
ATOM     29  C   UNL     1       6.324   4.109  14.169  0.00  0.00    +0.000 C 
ATOM     30  O   UNL     1       5.948   3.590  15.440  0.00  0.00    +0.000 OA
ENDBRANCH  23  30
ENDBRANCH  18  26
ENDBRANCH  17  21
ENDBRANCH   1  17
TORSDOF 8
ENDMDL
MODEL 9
REMARK VINA RESULT:      -7.4      4.799      5.898
REMARK  Name = 
REMARK  11 active torsions:
REMARK  status: ('A' for Active; 'I' for Inactive)
REMARK    1  A    between atoms: C_1  and  O_2
REMARK    2  A    between atoms: O_2  and  C_3
REMARK    3  A    between atoms: C_6  and  C_7
REMARK    4  A    between atoms: C_10  and  S_11
REMARK    5  A    between atoms: S_11  and  C_12
REMARK    6  A    between atoms: C_12  and  C_13
REMARK    7  A    between atoms: C_13  and  C_15
REMARK    8  A    between atoms: C_17  and  C_18
REMARK    9  A    between atoms: N_19  and  C_20
REMARK   10  A    between atoms: C_20  and  C_21
REMARK   11  A    between atoms: C_26  and  C_27
REMARK                            x       y       z     vdW  Elec       q    Type
REMARK                         _______ _______ _______ _____ _____    ______ ____
ROOT
ATOM      1  C   UNL     1       1.161  11.505  19.698  0.00  0.00    +0.000 C 
ENDROOT
BRANCH   1   2
ATOM      2  C   UNL     1       0.575  10.214  19.142  0.00  0.00    +0.000 C 
ATOM      3  O   UNL     1      -0.626  10.107  18.884  0.00  0.00    +0.000 OA
BRANCH   2   4
ATOM      4  C   UNL     1       1.496   9.097  18.902  0.00  0.00    +0.000 A 
ATOM      5  C   UNL     1       2.274   8.822  17.745  0.00  0.00    +0.000 A 
ATOM      6  C   UNL     1       3.003   7.672  17.975  0.00  0.00    +0.000 A 
ATOM      7  C   UNL     1       3.993   6.996  17.090  0.00  0.00    +0.000 C 
ATOM      8  N   UNL     1       2.667   7.210  19.234  0.00  0.00    +0.000 N 
ATOM      9  C   UNL     1       1.779   8.093  19.822  0.00  0.00    +0.000 A 
ATOM     10  C   UNL     1       1.268   7.954  21.218  0.00  0.00    +0.000 C 
BRANCH   8  11
ATOM     11  C   UNL     1       3.135   5.950  19.822  0.00  0.00    +0.000 C 
BRANCH  11  12
ATOM     12  C   UNL     1       2.195   4.800  19.600  0.00  0.00    +0.000 A 
ATOM     13  C   UNL     1       1.227   4.251  20.422  0.00  0.00    +0.000 A 
ATOM     14  C   UNL     1       0.586   3.121  19.834  0.00  0.00    +0.000 A 
ATOM     15  C   UNL     1       1.059   2.857  18.569  0.00  0.00    +0.000 A 
ATOM     16  S   UNL     1       2.269   3.968  18.097  0.00  0.00    +0.000 S 
ENDBRANCH  11  12
ENDBRANCH   8  11
ENDBRANCH   2   4
ENDBRANCH   1   2
BRANCH   1  17
ATOM     17  S   UNL     1       1.181  12.828  18.438  0.00  0.00    +0.000 S 
BRANCH  17  21
ATOM     18  C   UNL     1       4.293  14.882  19.296  0.00  0.00    +0.000 A 
ATOM     19  N   UNL     1       3.596  15.101  20.393  0.00  0.00    +0.000 NA
ATOM     20  N   UNL     1       2.411  14.418  20.249  0.00  0.00    +0.000 NA
ATOM     21  C   UNL     1       2.462  13.820  19.075  0.00  0.00    +0.000 A 
ATOM     22  O   UNL     1       3.639  14.060  18.415  0.00  0.00    +0.000 OA
BRANCH  18  26
ATOM     23  C   UNL     1       8.092  16.526  18.179  0.00  0.00    +0.000 A 
ATOM     24  C   UNL     1       7.206  17.235  18.990  0.00  0.00    +0.000 A 
ATOM     25  C   UNL     1       5.981  16.677  19.365  0.00  0.00    +0.000 A 
ATOM     26  C   UNL     1       5.604  15.399  18.920  0.00  0.00    +0.000 A 
ATOM     27  C   UNL     1       6.502  14.693  18.105  0.00  0.00    +0.000 A 
ATOM     28  C   UNL     1       7.737  15.253  17.735  0.00  0.00    +0.000 A 
BRANCH  23  30
ATOM     29  C   UNL     1      10.228  16.457  17.158  0.00  0.00    +0.000 C 
ATOM     30  O   UNL     1       9.235  17.199  17.856  0.00  0.00    +0.000 OA
ENDBRANCH  23  30
ENDBRANCH  18  26
ENDBRANCH  17  21
ENDBRANCH   1  17
TORSDOF 8
ENDMDL
