MODEL 1
REMARK VINA RESULT:      -7.5      0.000      0.000
REMARK  Name = 
REMARK  7 active torsions:
REMARK  status: ('A' for Active; 'I' for Inactive)
REMARK    1  A    between atoms: C_1  and  C_2
REMARK    2  A    between atoms: C_2  and  C_3
REMARK    3  A    between atoms: C_2  and  N_4
REMARK    4  A    between atoms: C_6  and  C_7
REMARK    5  A    between atoms: C_8  and  C_9
REMARK    6  A    between atoms: C_8  and  S_11
REMARK    7  A    between atoms: S_11  and  C_14
REMARK                            x       y       z     vdW  Elec       q    Type
REMARK                         _______ _______ _______ _____ _____    ______ ____
ROOT
ATOM      1  C   UNL     1       1.891   6.782  20.392  0.00  0.00    +0.000 C 
ATOM      2  C   UNL     1       1.569   8.011  19.930  0.00  0.00    +0.000 C 
ENDROOT
BRANCH   1   5
ATOM      3  N   UNL     1       4.445   4.783  18.794  0.00  0.00    +0.000 N 
ATOM      4  C   UNL     1       4.019   5.908  19.452  0.00  0.00    +0.000 A 
ATOM      5  C   UNL     1       2.680   5.783  19.730  0.00  0.00    +0.000 A 
ATOM      6  C   UNL     1       2.290   4.471  19.311  0.00  0.00    +0.000 A 
ATOM      7  C   UNL     1       1.086   3.727  19.367  0.00  0.00    +0.000 A 
ATOM      8  C   UNL     1       1.035   2.432  18.838  0.00  0.00    +0.000 A 
ATOM      9  C   UNL     1       2.160   1.864  18.250  0.00  0.00    +0.000 A 
ATOM     10  C   UNL     1       3.363   2.571  18.179  0.00  0.00    +0.000 A 
ATOM     11  C   UNL     1       3.412   3.868  18.717  0.00  0.00    +0.000 A 
BRANCH   3  13
ATOM     12  C   UNL     1       5.822   4.958  16.757  0.00  0.00    +0.000 C 
ATOM     13  C   UNL     1       5.797   4.631  18.252  0.00  0.00    +0.000 C 
ATOM     14  C   UNL     1       6.810   5.483  19.020  0.00  0.00    +0.000 C 
ENDBRANCH   3  13
ENDBRANCH   1   5
BRANCH   2  15
ATOM     15  S   UNL     1       0.777   9.109  21.016  0.00  0.00    +0.000 S 
ATOM     16  O   UNL     1      -0.428   8.487  21.541  0.00  0.00    +0.000 OA
ATOM     17  O   UNL     1       1.765   9.638  21.941  0.00  0.00    +0.000 OA
BRANCH  15  18
ATOM     18  C   UNL     1       0.228  10.489  20.018  0.00  0.00    +0.000 A 
ATOM     19  C   UNL     1      -0.963  10.387  19.290  0.00  0.00    +0.000 A 
ATOM     20  C   UNL     1      -1.439  11.497  18.590  0.00  0.00    +0.000 A 
ATOM     21  C   UNL     1      -0.733  12.700  18.616  0.00  0.00    +0.000 A 
ATOM     22  C   UNL     1       0.450  12.802  19.349  0.00  0.00    +0.000 A 
ATOM     23  C   UNL     1       0.928  11.702  20.063  0.00  0.00    +0.000 A 
ENDBRANCH  15  18
ENDBRANCH   2  15
BRANCH   2  24
ATOM     24  C   UNL     1       1.932   8.524  18.662  0.00  0.00    +0.000 C 
ATOM     25  N   UNL     1       2.232   8.932  17.618  0.00  0.00    +0.000 NA
ENDBRANCH   2  24
TORSDOF 5
ENDMDL
MODEL 2
REMARK VINA RESULT:      -7.4      1.967      3.629
REMARK  Name = 
REMARK  7 active torsions:
REMARK  status: ('A' for Active; 'I' for Inactive)
REMARK    1  A    between atoms: C_1  and  C_2
REMARK    2  A    between atoms: C_2  and  C_3
REMARK    3  A    between atoms: C_2  and  N_4
REMARK    4  A    between atoms: C_6  and  C_7
REMARK    5  A    between atoms: C_8  and  C_9
REMARK    6  A    between atoms: C_8  and  S_11
REMARK    7  A    between atoms: S_11  and  C_14
REMARK                            x       y       z     vdW  Elec       q    Type
REMARK                         _______ _______ _______ _____ _____    ______ ____
ROOT
ATOM      1  C   UNL     1       2.257   8.392  18.354  0.00  0.00    +0.000 C 
ATOM      2  C   UNL     1       1.653   9.081  19.347  0.00  0.00    +0.000 C 
ENDROOT
BRANCH   1   5
ATOM      3  N   UNL     1       2.470   4.809  18.788  0.00  0.00    +0.000 N 
ATOM      4  C   UNL     1       1.873   6.024  19.004  0.00  0.00    +0.000 A 
ATOM      5  C   UNL     1       2.579   6.994  18.336  0.00  0.00    +0.000 A 
ATOM      6  C   UNL     1       3.601   6.324  17.590  0.00  0.00    +0.000 A 
ATOM      7  C   UNL     1       4.603   6.742  16.681  0.00  0.00    +0.000 A 
ATOM      8  C   UNL     1       5.478   5.803  16.119  0.00  0.00    +0.000 A 
ATOM      9  C   UNL     1       5.377   4.456  16.451  0.00  0.00    +0.000 A 
ATOM     10  C   UNL     1       4.399   4.011  17.344  0.00  0.00    +0.000 A 
ATOM     11  C   UNL     1       3.518   4.955  17.900  0.00  0.00    +0.000 A 
BRANCH   3  13
ATOM     12  C   UNL     1       1.362   3.877  20.783  0.00  0.00    +0.000 C 
ATOM     13  C   UNL     1       2.038   3.573  19.444  0.00  0.00    +0.000 C 
ATOM     14  C   UNL     1       1.123   2.746  18.539  0.00  0.00    +0.000 C 
ENDBRANCH   3  13
ENDBRANCH   1   5
BRANCH   2  15
ATOM     15  S   UNL     1       1.187  10.723  19.035  0.00  0.00    +0.000 S 
ATOM     16  O   UNL     1       1.232  11.485  20.273  0.00  0.00    +0.000 OA
ATOM     17  O   UNL     1       1.925  11.201  17.878  0.00  0.00    +0.000 OA
BRANCH  15  18
ATOM     18  C   UNL     1      -0.535  10.670  18.550  0.00  0.00    +0.000 A 
ATOM     19  C   UNL     1      -1.444  11.567  19.123  0.00  0.00    +0.000 A 
ATOM     20  C   UNL     1      -2.766  11.588  18.674  0.00  0.00    +0.000 A 
ATOM     21  C   UNL     1      -3.177  10.722  17.659  0.00  0.00    +0.000 A 
ATOM     22  C   UNL     1      -2.267   9.835  17.083  0.00  0.00    +0.000 A 
ATOM     23  C   UNL     1      -0.940   9.814  17.517  0.00  0.00    +0.000 A 
ENDBRANCH  15  18
ENDBRANCH   2  15
BRANCH   2  24
ATOM     24  C   UNL     1       1.258   8.535  20.592  0.00  0.00    +0.000 C 
ATOM     25  N   UNL     1       0.922   8.090  21.610  0.00  0.00    +0.000 NA
ENDBRANCH   2  24
TORSDOF 5
ENDMDL
MODEL 3
REMARK VINA RESULT:      -7.3      2.017      2.499
REMARK  Name = 
REMARK  7 active torsions:
REMARK  status: ('A' for Active; 'I' for Inactive)
REMARK    1  A    between atoms: C_1  and  C_2
REMARK    2  A    between atoms: C_2  and  C_3
REMARK    3  A    between atoms: C_2  and  N_4
REMARK    4  A    between atoms: C_6  and  C_7
REMARK    5  A    between atoms: C_8  and  C_9
REMARK    6  A    between atoms: C_8  and  S_11
REMARK    7  A    between atoms: S_11  and  C_14
REMARK                            x       y       z     vdW  Elec       q    Type
REMARK                         _______ _______ _______ _____ _____    ______ ____
ROOT
ATOM      1  C   UNL     1       2.248   8.255  17.938  0.00  0.00    +0.000 C 
ATOM      2  C   UNL     1       1.596   8.602  19.069  0.00  0.00    +0.000 C 
ENDROOT
BRANCH   1   5
ATOM      3  N   UNL     1       4.966   5.940  17.367  0.00  0.00    +0.000 N 
ATOM      4  C   UNL     1       4.466   7.205  17.542  0.00  0.00    +0.000 A 
ATOM      5  C   UNL     1       3.109   7.125  17.742  0.00  0.00    +0.000 A 
ATOM      6  C   UNL     1       2.779   5.732  17.793  0.00  0.00    +0.000 A 
ATOM      7  C   UNL     1       1.586   5.002  18.019  0.00  0.00    +0.000 A 
ATOM      8  C   UNL     1       1.604   3.602  17.989  0.00  0.00    +0.000 A 
ATOM      9  C   UNL     1       2.785   2.915  17.732  0.00  0.00    +0.000 A 
ATOM     10  C   UNL     1       3.979   3.606  17.506  0.00  0.00    +0.000 A 
ATOM     11  C   UNL     1       3.959   5.011  17.544  0.00  0.00    +0.000 A 
BRANCH   3  13
ATOM     12  C   UNL     1       6.494   5.294  15.544  0.00  0.00    +0.000 C 
ATOM     13  C   UNL     1       6.364   5.669  17.022  0.00  0.00    +0.000 C 
ATOM     14  C   UNL     1       7.270   6.850  17.374  0.00  0.00    +0.000 C 
ENDBRANCH   3  13
ENDBRANCH   1   5
BRANCH   2  15
ATOM     15  S   UNL     1       0.448   9.900  18.984  0.00  0.00    +0.000 S 
ATOM     16  O   UNL     1      -0.108   9.970  17.642  0.00  0.00    +0.000 OA
ATOM     17  O   UNL     1      -0.451   9.799  20.121  0.00  0.00    +0.000 OA
BRANCH  15  18
ATOM     18  C   UNL     1       1.383  11.409  19.211  0.00  0.00    +0.000 A 
ATOM     19  C   UNL     1       2.121  11.934  18.144  0.00  0.00    +0.000 A 
ATOM     20  C   UNL     1       2.772  13.160  18.294  0.00  0.00    +0.000 A 
ATOM     21  C   UNL     1       2.685  13.858  19.500  0.00  0.00    +0.000 A 
ATOM     22  C   UNL     1       1.942  13.338  20.559  0.00  0.00    +0.000 A 
ATOM     23  C   UNL     1       1.277  12.118  20.415  0.00  0.00    +0.000 A 
ENDBRANCH  15  18
ENDBRANCH   2  15
BRANCH   2  24
ATOM     24  C   UNL     1       1.683   7.912  20.301  0.00  0.00    +0.000 C 
ATOM     25  N   UNL     1       1.746   7.354  21.317  0.00  0.00    +0.000 NA
ENDBRANCH   2  24
TORSDOF 5
ENDMDL
MODEL 4
REMARK VINA RESULT:      -7.2      2.018      2.535
REMARK  Name = 
REMARK  7 active torsions:
REMARK  status: ('A' for Active; 'I' for Inactive)
REMARK    1  A    between atoms: C_1  and  C_2
REMARK    2  A    between atoms: C_2  and  C_3
REMARK    3  A    between atoms: C_2  and  N_4
REMARK    4  A    between atoms: C_6  and  C_7
REMARK    5  A    between atoms: C_8  and  C_9
REMARK    6  A    between atoms: C_8  and  S_11
REMARK    7  A    between atoms: S_11  and  C_14
REMARK                            x       y       z     vdW  Elec       q    Type
REMARK                         _______ _______ _______ _____ _____    ______ ____
ROOT
ATOM      1  C   UNL     1       2.897   7.882  17.705  0.00  0.00    +0.000 C 
ATOM      2  C   UNL     1       2.076   8.445  18.619  0.00  0.00    +0.000 C 
ENDROOT
BRANCH   1   5
ATOM      3  N   UNL     1       5.303   5.201  18.010  0.00  0.00    +0.000 N 
ATOM      4  C   UNL     1       4.967   6.529  17.952  0.00  0.00    +0.000 A 
ATOM      5  C   UNL     1       3.604   6.639  17.820  0.00  0.00    +0.000 A 
ATOM      6  C   UNL     1       3.070   5.313  17.906  0.00  0.00    +0.000 A 
ATOM      7  C   UNL     1       1.764   4.766  17.893  0.00  0.00    +0.000 A 
ATOM      8  C   UNL     1       1.583   3.380  17.985  0.00  0.00    +0.000 A 
ATOM      9  C   UNL     1       2.677   2.528  18.083  0.00  0.00    +0.000 A 
ATOM     10  C   UNL     1       3.980   3.037  18.098  0.00  0.00    +0.000 A 
ATOM     11  C   UNL     1       4.157   4.429  18.013  0.00  0.00    +0.000 A 
BRANCH   3  13
ATOM     12  C   UNL     1       7.219   4.512  16.621  0.00  0.00    +0.000 C 
ATOM     13  C   UNL     1       6.687   4.722  18.041  0.00  0.00    +0.000 C 
ATOM     14  C   UNL     1       7.592   5.666  18.835  0.00  0.00    +0.000 C 
ENDBRANCH   3  13
ENDBRANCH   1   5
BRANCH   2  15
ATOM     15  S   UNL     1       1.176   9.852  18.150  0.00  0.00    +0.000 S 
ATOM     16  O   UNL     1       2.057  10.788  17.469  0.00  0.00    +0.000 OA
ATOM     17  O   UNL     1      -0.047   9.422  17.494  0.00  0.00    +0.000 OA
BRANCH  15  18
ATOM     18  C   UNL     1       0.679  10.657  19.669  0.00  0.00    +0.000 A 
ATOM     19  C   UNL     1       1.326  11.829  20.076  0.00  0.00    +0.000 A 
ATOM     20  C   UNL     1       0.874  12.508  21.210  0.00  0.00    +0.000 A 
ATOM     21  C   UNL     1      -0.217  12.020  21.931  0.00  0.00    +0.000 A 
ATOM     22  C   UNL     1      -0.866  10.856  21.519  0.00  0.00    +0.000 A 
ATOM     23  C   UNL     1      -0.429  10.177  20.380  0.00  0.00    +0.000 A 
ENDBRANCH  15  18
ENDBRANCH   2  15
BRANCH   2  24
ATOM     24  C   UNL     1       1.796   7.910  19.899  0.00  0.00    +0.000 C 
ATOM     25  N   UNL     1       1.564   7.459  20.943  0.00  0.00    +0.000 NA
ENDBRANCH   2  24
TORSDOF 5
ENDMDL
MODEL 5
REMARK VINA RESULT:      -7.1      1.210      1.342
REMARK  Name = 
REMARK  7 active torsions:
REMARK  status: ('A' for Active; 'I' for Inactive)
REMARK    1  A    between atoms: C_1  and  C_2
REMARK    2  A    between atoms: C_2  and  C_3
REMARK    3  A    between atoms: C_2  and  N_4
REMARK    4  A    between atoms: C_6  and  C_7
REMARK    5  A    between atoms: C_8  and  C_9
REMARK    6  A    between atoms: C_8  and  S_11
REMARK    7  A    between atoms: S_11  and  C_14
REMARK                            x       y       z     vdW  Elec       q    Type
REMARK                         _______ _______ _______ _____ _____    ______ ____
ROOT
ATOM      1  C   UNL     1       1.518   7.553  20.441  0.00  0.00    +0.000 C 
ATOM      2  C   UNL     1       1.269   8.770  19.909  0.00  0.00    +0.000 C 
ENDROOT
BRANCH   1   5
ATOM      3  N   UNL     1       3.914   5.435  18.754  0.00  0.00    +0.000 N 
ATOM      4  C   UNL     1       3.478   6.654  19.206  0.00  0.00    +0.000 A 
ATOM      5  C   UNL     1       2.280   6.487  19.856  0.00  0.00    +0.000 A 
ATOM      6  C   UNL     1       2.020   5.080  19.893  0.00  0.00    +0.000 A 
ATOM      7  C   UNL     1       0.999   4.272  20.452  0.00  0.00    +0.000 A 
ATOM      8  C   UNL     1       1.037   2.881  20.291  0.00  0.00    +0.000 A 
ATOM      9  C   UNL     1       2.068   2.279  19.579  0.00  0.00    +0.000 A 
ATOM     10  C   UNL     1       3.091   3.048  19.015  0.00  0.00    +0.000 A 
ATOM     11  C   UNL     1       3.054   4.443  19.185  0.00  0.00    +0.000 A 
BRANCH   3  13
ATOM     12  C   UNL     1       5.043   6.171  16.690  0.00  0.00    +0.000 C 
ATOM     13  C   UNL     1       5.107   5.265  17.922  0.00  0.00    +0.000 C 
ATOM     14  C   UNL     1       6.389   5.509  18.720  0.00  0.00    +0.000 C 
ENDBRANCH   3  13
ENDBRANCH   1   5
BRANCH   2  15
ATOM     15  S   UNL     1       0.494   9.955  20.911  0.00  0.00    +0.000 S 
ATOM     16  O   UNL     1      -0.165   9.293  22.026  0.00  0.00    +0.000 OA
ATOM     17  O   UNL     1       1.442  11.024  21.179  0.00  0.00    +0.000 OA
BRANCH  15  18
ATOM     18  C   UNL     1      -0.811  10.672  19.919  0.00  0.00    +0.000 A 
ATOM     19  C   UNL     1      -1.281   9.987  18.793  0.00  0.00    +0.000 A 
ATOM     20  C   UNL     1      -2.364  10.501  18.077  0.00  0.00    +0.000 A 
ATOM     21  C   UNL     1      -2.973  11.690  18.482  0.00  0.00    +0.000 A 
ATOM     22  C   UNL     1      -2.508  12.367  19.609  0.00  0.00    +0.000 A 
ATOM     23  C   UNL     1      -1.434  11.855  20.340  0.00  0.00    +0.000 A 
ENDBRANCH  15  18
ENDBRANCH   2  15
BRANCH   2  24
ATOM     24  C   UNL     1       1.696   9.201  18.631  0.00  0.00    +0.000 C 
ATOM     25  N   UNL     1       2.059   9.552  17.586  0.00  0.00    +0.000 NA
ENDBRANCH   2  24
TORSDOF 5
ENDMDL
MODEL 6
REMARK VINA RESULT:      -7.1      0.687      1.388
REMARK  Name = 
REMARK  7 active torsions:
REMARK  status: ('A' for Active; 'I' for Inactive)
REMARK    1  A    between atoms: C_1  and  C_2
REMARK    2  A    between atoms: C_2  and  C_3
REMARK    3  A    between atoms: C_2  and  N_4
REMARK    4  A    between atoms: C_6  and  C_7
REMARK    5  A    between atoms: C_8  and  C_9
REMARK    6  A    between atoms: C_8  and  S_11
REMARK    7  A    between atoms: S_11  and  C_14
REMARK                            x       y       z     vdW  Elec       q    Type
REMARK                         _______ _______ _______ _____ _____    ______ ____
ROOT
ATOM      1  C   UNL     1       1.920   7.028  20.123  0.00  0.00    +0.000 C 
ATOM      2  C   UNL     1       1.498   8.283  19.854  0.00  0.00    +0.000 C 
ENDROOT
BRANCH   1   5
ATOM      3  N   UNL     1       4.386   5.469  17.989  0.00  0.00    +0.000 N 
ATOM      4  C   UNL     1       3.938   6.502  18.772  0.00  0.00    +0.000 A 
ATOM      5  C   UNL     1       2.704   6.174  19.278  0.00  0.00    +0.000 A 
ATOM      6  C   UNL     1       2.430   4.831  18.867  0.00  0.00    +0.000 A 
ATOM      7  C   UNL     1       1.372   3.917  19.098  0.00  0.00    +0.000 A 
ATOM      8  C   UNL     1       1.405   2.643  18.518  0.00  0.00    +0.000 A 
ATOM      9  C   UNL     1       2.469   2.262  17.708  0.00  0.00    +0.000 A 
ATOM     10  C   UNL     1       3.528   3.140  17.460  0.00  0.00    +0.000 A 
ATOM     11  C   UNL     1       3.495   4.416  18.049  0.00  0.00    +0.000 A 
BRANCH   3  13
ATOM     12  C   UNL     1       6.678   4.585  17.782  0.00  0.00    +0.000 C 
ATOM     13  C   UNL     1       5.623   5.532  17.205  0.00  0.00    +0.000 C 
ATOM     14  C   UNL     1       5.368   5.239  15.726  0.00  0.00    +0.000 C 
ENDBRANCH   3  13
ENDBRANCH   1   5
BRANCH   2  15
ATOM     15  S   UNL     1       0.740   9.181  21.131  0.00  0.00    +0.000 S 
ATOM     16  O   UNL     1      -0.451   8.477  21.580  0.00  0.00    +0.000 OA
ATOM     17  O   UNL     1       1.756   9.549  22.103  0.00  0.00    +0.000 OA
BRANCH  15  18
ATOM     18  C   UNL     1       0.165  10.707  20.396  0.00  0.00    +0.000 A 
ATOM     19  C   UNL     1       0.948  11.864  20.499  0.00  0.00    +0.000 A 
ATOM     20  C   UNL     1       0.544  13.028  19.844  0.00  0.00    +0.000 A 
ATOM     21  C   UNL     1      -0.631  13.039  19.090  0.00  0.00    +0.000 A 
ATOM     22  C   UNL     1      -1.405  11.884  18.981  0.00  0.00    +0.000 A 
ATOM     23  C   UNL     1      -1.003  10.710  19.623  0.00  0.00    +0.000 A 
ENDBRANCH  15  18
ENDBRANCH   2  15
BRANCH   2  24
ATOM     24  C   UNL     1       1.728   8.976  18.642  0.00  0.00    +0.000 C 
ATOM     25  N   UNL     1       1.930   9.542  17.648  0.00  0.00    +0.000 NA
ENDBRANCH   2  24
TORSDOF 5
ENDMDL
MODEL 7
REMARK VINA RESULT:      -6.9      2.668      7.716
REMARK  Name = 
REMARK  7 active torsions:
REMARK  status: ('A' for Active; 'I' for Inactive)
REMARK    1  A    between atoms: C_1  and  C_2
REMARK    2  A    between atoms: C_2  and  C_3
REMARK    3  A    between atoms: C_2  and  N_4
REMARK    4  A    between atoms: C_6  and  C_7
REMARK    5  A    between atoms: C_8  and  C_9
REMARK    6  A    between atoms: C_8  and  S_11
REMARK    7  A    between atoms: S_11  and  C_14
REMARK                            x       y       z     vdW  Elec       q    Type
REMARK                         _______ _______ _______ _____ _____    ______ ____
ROOT
ATOM      1  C   UNL     1       2.420   7.952  18.485  0.00  0.00    +0.000 C 
ATOM      2  C   UNL     1       2.694   6.691  18.885  0.00  0.00    +0.000 C 
ENDROOT
BRANCH   1   5
ATOM      3  N   UNL     1      -0.397  10.175  18.928  0.00  0.00    +0.000 N 
ATOM      4  C   UNL     1       0.441   9.417  18.150  0.00  0.00    +0.000 A 
ATOM      5  C   UNL     1       1.368   8.805  18.957  0.00  0.00    +0.000 A 
ATOM      6  C   UNL     1       1.016   9.123  20.308  0.00  0.00    +0.000 A 
ATOM      7  C   UNL     1       1.531   8.767  21.579  0.00  0.00    +0.000 A 
ATOM      8  C   UNL     1       0.944   9.278  22.743  0.00  0.00    +0.000 A 
ATOM      9  C   UNL     1      -0.142  10.143  22.666  0.00  0.00    +0.000 A 
ATOM     10  C   UNL     1      -0.674  10.514  21.428  0.00  0.00    +0.000 A 
ATOM     11  C   UNL     1      -0.087   9.993  20.262  0.00  0.00    +0.000 A 
BRANCH   3  13
ATOM     12  C   UNL     1      -0.900  12.468  18.176  0.00  0.00    +0.000 C 
ATOM     13  C   UNL     1      -1.436  11.048  18.377  0.00  0.00    +0.000 C 
ATOM     14  C   UNL     1      -2.011  10.487  17.075  0.00  0.00    +0.000 C 
ENDBRANCH   3  13
ENDBRANCH   1   5
BRANCH   2  15
ATOM     15  S   UNL     1       4.152   5.950  18.307  0.00  0.00    +0.000 S 
ATOM     16  O   UNL     1       4.363   6.313  16.915  0.00  0.00    +0.000 OA
ATOM     17  O   UNL     1       5.210   6.194  19.274  0.00  0.00    +0.000 OA
BRANCH  15  18
ATOM     18  C   UNL     1       3.855   4.185  18.318  0.00  0.00    +0.000 A 
ATOM     19  C   UNL     1       4.436   3.391  19.314  0.00  0.00    +0.000 A 
ATOM     20  C   UNL     1       4.125   2.031  19.378  0.00  0.00    +0.000 A 
ATOM     21  C   UNL     1       3.241   1.468  18.456  0.00  0.00    +0.000 A 
ATOM     22  C   UNL     1       2.657   2.263  17.470  0.00  0.00    +0.000 A 
ATOM     23  C   UNL     1       2.951   3.627  17.405  0.00  0.00    +0.000 A 
ENDBRANCH  15  18
ENDBRANCH   2  15
BRANCH   2  24
ATOM     24  C   UNL     1       1.945   5.960  19.838  0.00  0.00    +0.000 C 
ATOM     25  N   UNL     1       1.328   5.351  20.610  0.00  0.00    +0.000 NA
ENDBRANCH   2  24
TORSDOF 5
ENDMDL
MODEL 8
REMARK VINA RESULT:      -6.9      2.840      7.457
REMARK  Name = 
REMARK  7 active torsions:
REMARK  status: ('A' for Active; 'I' for Inactive)
REMARK    1  A    between atoms: C_1  and  C_2
REMARK    2  A    between atoms: C_2  and  C_3
REMARK    3  A    between atoms: C_2  and  N_4
REMARK    4  A    between atoms: C_6  and  C_7
REMARK    5  A    between atoms: C_8  and  C_9
REMARK    6  A    between atoms: C_8  and  S_11
REMARK    7  A    between atoms: S_11  and  C_14
REMARK                            x       y       z     vdW  Elec       q    Type
REMARK                         _______ _______ _______ _____ _____    ______ ____
ROOT
ATOM      1  C   UNL     1       2.055   8.614  18.106  0.00  0.00    +0.000 C 
ATOM      2  C   UNL     1       2.200   7.674  19.066  0.00  0.00    +0.000 C 
ENDROOT
BRANCH   1   5
ATOM      3  N   UNL     1       1.245  12.109  18.556  0.00  0.00    +0.000 N 
ATOM      4  C   UNL     1       2.139  11.074  18.453  0.00  0.00    +0.000 A 
ATOM      5  C   UNL     1       1.447   9.907  18.240  0.00  0.00    +0.000 A 
ATOM      6  C   UNL     1       0.066  10.261  18.104  0.00  0.00    +0.000 A 
ATOM      7  C   UNL     1      -1.122   9.541  17.828  0.00  0.00    +0.000 A 
ATOM      8  C   UNL     1      -2.352  10.209  17.775  0.00  0.00    +0.000 A 
ATOM      9  C   UNL     1      -2.422  11.579  17.998  0.00  0.00    +0.000 A 
ATOM     10  C   UNL     1      -1.268  12.319  18.273  0.00  0.00    +0.000 A 
ATOM     11  C   UNL     1      -0.035  11.646  18.318  0.00  0.00    +0.000 A 
BRANCH   3  13
ATOM     12  C   UNL     1       1.615  13.692  20.409  0.00  0.00    +0.000 C 
ATOM     13  C   UNL     1       1.638  13.479  18.893  0.00  0.00    +0.000 C 
ATOM     14  C   UNL     1       3.005  13.834  18.307  0.00  0.00    +0.000 C 
ENDBRANCH   3  13
ENDBRANCH   1   5
BRANCH   2  15
ATOM     15  S   UNL     1       3.161   6.276  18.699  0.00  0.00    +0.000 S 
ATOM     16  O   UNL     1       3.367   6.191  17.262  0.00  0.00    +0.000 OA
ATOM     17  O   UNL     1       4.313   6.261  19.585  0.00  0.00    +0.000 OA
BRANCH  15  18
ATOM     18  C   UNL     1       2.166   4.856  19.141  0.00  0.00    +0.000 A 
ATOM     19  C   UNL     1       1.592   4.072  18.133  0.00  0.00    +0.000 A 
ATOM     20  C   UNL     1       0.897   2.910  18.476  0.00  0.00    +0.000 A 
ATOM     21  C   UNL     1       0.776   2.534  19.815  0.00  0.00    +0.000 A 
ATOM     22  C   UNL     1       1.356   3.312  20.817  0.00  0.00    +0.000 A 
ATOM     23  C   UNL     1       2.064   4.469  20.483  0.00  0.00    +0.000 A 
ENDBRANCH  15  18
ENDBRANCH   2  15
BRANCH   2  24
ATOM     24  C   UNL     1       1.729   7.789  20.395  0.00  0.00    +0.000 C 
ATOM     25  N   UNL     1       1.332   7.891  21.481  0.00  0.00    +0.000 NA
ENDBRANCH   2  24
TORSDOF 5
ENDMDL
MODEL 9
REMARK VINA RESULT:      -6.8      0.921      1.157
REMARK  Name = 
REMARK  7 active torsions:
REMARK  status: ('A' for Active; 'I' for Inactive)
REMARK    1  A    between atoms: C_1  and  C_2
REMARK    2  A    between atoms: C_2  and  C_3
REMARK    3  A    between atoms: C_2  and  N_4
REMARK    4  A    between atoms: C_6  and  C_7
REMARK    5  A    between atoms: C_8  and  C_9
REMARK    6  A    between atoms: C_8  and  S_11
REMARK    7  A    between atoms: S_11  and  C_14
REMARK                            x       y       z     vdW  Elec       q    Type
REMARK                         _______ _______ _______ _____ _____    ______ ____
ROOT
ATOM      1  C   UNL     1       1.814   7.065  20.019  0.00  0.00    +0.000 C 
ATOM      2  C   UNL     1       1.440   8.339  19.765  0.00  0.00    +0.000 C 
ENDROOT
BRANCH   1   5
ATOM      3  N   UNL     1       4.386   5.556  17.974  0.00  0.00    +0.000 N 
ATOM      4  C   UNL     1       3.884   6.584  18.730  0.00  0.00    +0.000 A 
ATOM      5  C   UNL     1       2.647   6.225  19.207  0.00  0.00    +0.000 A 
ATOM      6  C   UNL     1       2.425   4.869  18.807  0.00  0.00    +0.000 A 
ATOM      7  C   UNL     1       1.390   3.926  19.021  0.00  0.00    +0.000 A 
ATOM      8  C   UNL     1       1.478   2.646  18.460  0.00  0.00    +0.000 A 
ATOM      9  C   UNL     1       2.575   2.288  17.684  0.00  0.00    +0.000 A 
ATOM     10  C   UNL     1       3.614   3.195  17.454  0.00  0.00    +0.000 A 
ATOM     11  C   UNL     1       3.525   4.476  18.024  0.00  0.00    +0.000 A 
BRANCH   3  13
ATOM     12  C   UNL     1       6.620   4.560  17.673  0.00  0.00    +0.000 C 
ATOM     13  C   UNL     1       5.641   5.647  17.224  0.00  0.00    +0.000 C 
ATOM     14  C   UNL     1       5.401   5.584  15.715  0.00  0.00    +0.000 C 
ENDBRANCH   3  13
ENDBRANCH   1   5
BRANCH   2  15
ATOM     15  S   UNL     1       0.599   9.206  21.011  0.00  0.00    +0.000 S 
ATOM     16  O   UNL     1      -0.345   8.317  21.669  0.00  0.00    +0.000 OA
ATOM     17  O   UNL     1       1.575   9.925  21.812  0.00  0.00    +0.000 OA
BRANCH  15  18
ATOM     18  C   UNL     1      -0.386  10.446  20.179  0.00  0.00    +0.000 A 
ATOM     19  C   UNL     1      -1.200  10.076  19.101  0.00  0.00    +0.000 A 
ATOM     20  C   UNL     1      -2.040  11.025  18.516  0.00  0.00    +0.000 A 
ATOM     21  C   UNL     1      -2.069  12.333  19.002  0.00  0.00    +0.000 A 
ATOM     22  C   UNL     1      -1.264  12.698  20.081  0.00  0.00    +0.000 A 
ATOM     23  C   UNL     1      -0.429  11.753  20.682  0.00  0.00    +0.000 A 
ENDBRANCH  15  18
ENDBRANCH   2  15
BRANCH   2  24
ATOM     24  C   UNL     1       1.782   9.070  18.603  0.00  0.00    +0.000 C 
ATOM     25  N   UNL     1       2.074   9.664  17.649  0.00  0.00    +0.000 NA
ENDBRANCH   2  24
TORSDOF 5
ENDMDL
