MODEL 1
REMARK VINA RESULT:      -8.3      0.000      0.000
REMARK  Name = 
REMARK  9 active torsions:
REMARK  status: ('A' for Active; 'I' for Inactive)
REMARK    1  A    between atoms: C_2  and  C_3
REMARK    2  A    between atoms: C_5  and  C_6
REMARK    3  A    between atoms: C_17  and  N_18
REMARK    4  A    between atoms: N_18  and  C_19
REMARK    5  A    between atoms: C_19  and  C_20
REMARK    6  A    between atoms: C_21  and  C_22
REMARK    7  A    between atoms: C_22  and  O_23
REMARK    8  A    between atoms: O_23  and  C_24
REMARK    9  A    between atoms: C_24  and  C_26
REMARK                            x       y       z     vdW  Elec       q    Type
REMARK                         _______ _______ _______ _____ _____    ______ ____
ROOT
ATOM      1  C   UNL     1       2.191   4.399  20.702  0.00  0.00    +0.000 A 
ATOM      2  N   UNL     1       1.543   5.604  20.835  0.00  0.00    +0.000 NA
ATOM      3  C   UNL     1       2.074   6.357  19.889  0.00  0.00    +0.000 A 
ATOM      4  O   UNL     1       3.036   5.708  19.144  0.00  0.00    +0.000 OA
ATOM      5  C   UNL     1       3.111   4.444  19.676  0.00  0.00    +0.000 A 
ENDROOT
BRANCH   3   6
ATOM      6  C   UNL     1       1.794   7.757  19.522  0.00  0.00    +0.000 A 
ATOM      7  C   UNL     1       2.182   8.201  18.242  0.00  0.00    +0.000 A 
ATOM      8  C   UNL     1       1.949   9.510  17.827  0.00  0.00    +0.000 A 
ATOM      9  C   UNL     1       1.325  10.407  18.687  0.00  0.00    +0.000 A 
ATOM     10  C   UNL     1       0.917  10.010  19.965  0.00  0.00    +0.000 A 
ATOM     11  C   UNL     1       0.289  10.947  20.805  0.00  0.00    +0.000 A 
ATOM     12  C   UNL     1      -0.136  10.595  22.083  0.00  0.00    +0.000 A 
ATOM     13  C   UNL     1       0.063   9.301  22.536  0.00  0.00    +0.000 A 
ATOM     14  C   UNL     1       0.690   8.359  21.713  0.00  0.00    +0.000 A 
ATOM     15  C   UNL     1       1.138   8.674  20.405  0.00  0.00    +0.000 A 
ENDBRANCH   3   6
BRANCH   1  17
ATOM     16  N   UNL     1       1.662   2.415  22.275  0.00  0.00    +0.000 NA
ATOM     17  C   UNL     1       1.902   3.298  21.564  0.00  0.00    +0.000 C 
ENDBRANCH   1  17
BRANCH   5  18
ATOM     18  N   UNL     1       3.992   3.566  19.142  0.00  0.00    +0.000 N 
ATOM     19  H   UNL     1       4.838   3.288  19.632  0.00  0.00    +0.000 HD
BRANCH  18  20
ATOM     20  C   UNL     1       3.699   2.847  17.917  0.00  0.00    +0.000 C 
BRANCH  20  21
ATOM     21  C   UNL     1       4.415   3.427  16.765  0.00  0.00    +0.000 C 
ATOM     22  C   UNL     1       5.043   3.811  15.812  0.00  0.00    +0.000 C 
BRANCH  22  23
ATOM     23  C   UNL     1       5.872   4.219  14.664  0.00  0.00    +0.000 C 
BRANCH  23  24
ATOM     24  O   UNL     1       6.815   5.241  15.039  0.00  0.00    +0.000 OA
BRANCH  24  25
ATOM     25  C   UNL     1       6.266   6.275  15.742  0.00  0.00    +0.000 C 
ATOM     26  O   UNL     1       5.276   6.897  15.376  0.00  0.00    +0.000 OA
BRANCH  25  27
ATOM     27  C   UNL     1       7.021   6.532  16.961  0.00  0.00    +0.000 A 
ATOM     28  C   UNL     1       7.610   7.690  17.438  0.00  0.00    +0.000 A 
ATOM     29  C   UNL     1       8.254   7.498  18.700  0.00  0.00    +0.000 A 
ATOM     30  C   UNL     1       8.142   6.201  19.144  0.00  0.00    +0.000 A 
ATOM     31  S   UNL     1       7.259   5.227  18.057  0.00  0.00    +0.000 S 
ENDBRANCH  25  27
ENDBRANCH  24  25
ENDBRANCH  23  24
ENDBRANCH  22  23
ENDBRANCH  20  21
ENDBRANCH  18  20
ENDBRANCH   5  18
TORSDOF 9
ENDMDL
MODEL 2
REMARK VINA RESULT:      -8.3      4.733      7.044
REMARK  Name = 
REMARK  9 active torsions:
REMARK  status: ('A' for Active; 'I' for Inactive)
REMARK    1  A    between atoms: C_2  and  C_3
REMARK    2  A    between atoms: C_5  and  C_6
REMARK    3  A    between atoms: C_17  and  N_18
REMARK    4  A    between atoms: N_18  and  C_19
REMARK    5  A    between atoms: C_19  and  C_20
REMARK    6  A    between atoms: C_21  and  C_22
REMARK    7  A    between atoms: C_22  and  O_23
REMARK    8  A    between atoms: O_23  and  C_24
REMARK    9  A    between atoms: C_24  and  C_26
REMARK                            x       y       z     vdW  Elec       q    Type
REMARK                         _______ _______ _______ _____ _____    ______ ____
ROOT
ATOM      1  C   UNL     1       5.781   5.499  16.080  0.00  0.00    +0.000 A 
ATOM      2  N   UNL     1       4.545   5.132  16.560  0.00  0.00    +0.000 NA
ATOM      3  C   UNL     1       4.442   5.784  17.704  0.00  0.00    +0.000 A 
ATOM      4  O   UNL     1       5.544   6.558  17.998  0.00  0.00    +0.000 OA
ATOM      5  C   UNL     1       6.408   6.368  16.949  0.00  0.00    +0.000 A 
ENDROOT
BRANCH   3   6
ATOM      6  C   UNL     1       3.345   5.804  18.688  0.00  0.00    +0.000 A 
ATOM      7  C   UNL     1       2.875   7.054  19.137  0.00  0.00    +0.000 A 
ATOM      8  C   UNL     1       1.841   7.149  20.066  0.00  0.00    +0.000 A 
ATOM      9  C   UNL     1       1.255   5.993  20.570  0.00  0.00    +0.000 A 
ATOM     10  C   UNL     1       1.685   4.729  20.148  0.00  0.00    +0.000 A 
ATOM     11  C   UNL     1       1.067   3.584  20.680  0.00  0.00    +0.000 A 
ATOM     12  C   UNL     1       1.460   2.307  20.288  0.00  0.00    +0.000 A 
ATOM     13  C   UNL     1       2.476   2.162  19.358  0.00  0.00    +0.000 A 
ATOM     14  C   UNL     1       3.103   3.292  18.822  0.00  0.00    +0.000 A 
ATOM     15  C   UNL     1       2.734   4.611  19.193  0.00  0.00    +0.000 A 
ENDBRANCH   3   6
BRANCH   1  17
ATOM     16  N   UNL     1       6.686   4.594  13.833  0.00  0.00    +0.000 NA
ATOM     17  C   UNL     1       6.282   4.991  14.844  0.00  0.00    +0.000 C 
ENDBRANCH   1  17
BRANCH   5  18
ATOM     18  N   UNL     1       7.601   7.008  16.965  0.00  0.00    +0.000 N 
ATOM     19  H   UNL     1       8.100   7.238  16.109  0.00  0.00    +0.000 HD
BRANCH  18  20
ATOM     20  C   UNL     1       8.156   7.547  18.192  0.00  0.00    +0.000 C 
BRANCH  20  21
ATOM     21  C   UNL     1       8.432   8.990  18.072  0.00  0.00    +0.000 C 
ATOM     22  C   UNL     1       8.658  10.174  18.076  0.00  0.00    +0.000 C 
BRANCH  22  23
ATOM     23  C   UNL     1       8.895  11.625  18.158  0.00  0.00    +0.000 C 
BRANCH  23  24
ATOM     24  O   UNL     1       9.851  11.940  19.188  0.00  0.00    +0.000 OA
BRANCH  24  25
ATOM     25  C   UNL     1      11.090  12.266  18.718  0.00  0.00    +0.000 C 
ATOM     26  O   UNL     1      12.049  11.504  18.745  0.00  0.00    +0.000 OA
BRANCH  25  27
ATOM     27  C   UNL     1      11.108  13.627  18.200  0.00  0.00    +0.000 A 
ATOM     28  C   UNL     1      11.495  14.126  16.968  0.00  0.00    +0.000 A 
ATOM     29  C   UNL     1      11.341  15.544  16.877  0.00  0.00    +0.000 A 
ATOM     30  C   UNL     1      10.846  16.084  18.042  0.00  0.00    +0.000 A 
ATOM     31  S   UNL     1      10.561  14.893  19.229  0.00  0.00    +0.000 S 
ENDBRANCH  25  27
ENDBRANCH  24  25
ENDBRANCH  23  24
ENDBRANCH  22  23
ENDBRANCH  20  21
ENDBRANCH  18  20
ENDBRANCH   5  18
TORSDOF 9
ENDMDL
MODEL 3
REMARK VINA RESULT:      -8.3      4.941      7.345
REMARK  Name = 
REMARK  9 active torsions:
REMARK  status: ('A' for Active; 'I' for Inactive)
REMARK    1  A    between atoms: C_2  and  C_3
REMARK    2  A    between atoms: C_5  and  C_6
REMARK    3  A    between atoms: C_17  and  N_18
REMARK    4  A    between atoms: N_18  and  C_19
REMARK    5  A    between atoms: C_19  and  C_20
REMARK    6  A    between atoms: C_21  and  C_22
REMARK    7  A    between atoms: C_22  and  O_23
REMARK    8  A    between atoms: O_23  and  C_24
REMARK    9  A    between atoms: C_24  and  C_26
REMARK                            x       y       z     vdW  Elec       q    Type
REMARK                         _______ _______ _______ _____ _____    ______ ____
ROOT
ATOM      1  C   UNL     1       5.893   5.742  16.105  0.00  0.00    +0.000 A 
ATOM      2  N   UNL     1       4.736   5.145  16.549  0.00  0.00    +0.000 NA
ATOM      3  C   UNL     1       4.460   5.784  17.671  0.00  0.00    +0.000 A 
ATOM      4  O   UNL     1       5.375   6.767  17.985  0.00  0.00    +0.000 OA
ATOM      5  C   UNL     1       6.301   6.733  16.973  0.00  0.00    +0.000 A 
ENDROOT
BRANCH   3   6
ATOM      6  C   UNL     1       3.342   5.604  18.614  0.00  0.00    +0.000 A 
ATOM      7  C   UNL     1       2.968   6.697  19.423  0.00  0.00    +0.000 A 
ATOM      8  C   UNL     1       1.920   6.598  20.336  0.00  0.00    +0.000 A 
ATOM      9  C   UNL     1       1.224   5.401  20.463  0.00  0.00    +0.000 A 
ATOM     10  C   UNL     1       1.555   4.292  19.677  0.00  0.00    +0.000 A 
ATOM     11  C   UNL     1       0.826   3.100  19.835  0.00  0.00    +0.000 A 
ATOM     12  C   UNL     1       1.119   1.972  19.073  0.00  0.00    +0.000 A 
ATOM     13  C   UNL     1       2.145   2.024  18.143  0.00  0.00    +0.000 A 
ATOM     14  C   UNL     1       2.881   3.202  17.977  0.00  0.00    +0.000 A 
ATOM     15  C   UNL     1       2.617   4.374  18.731  0.00  0.00    +0.000 A 
ENDBRANCH   3   6
BRANCH   1  17
ATOM     16  N   UNL     1       7.041   4.984  13.914  0.00  0.00    +0.000 NA
ATOM     17  C   UNL     1       6.535   5.321  14.901  0.00  0.00    +0.000 C 
ENDBRANCH   1  17
BRANCH   5  18
ATOM     18  N   UNL     1       7.342   7.597  17.015  0.00  0.00    +0.000 N 
ATOM     19  H   UNL     1       7.479   8.311  16.304  0.00  0.00    +0.000 HD
BRANCH  18  20
ATOM     20  C   UNL     1       8.228   7.662  18.162  0.00  0.00    +0.000 C 
BRANCH  20  21
ATOM     21  C   UNL     1       8.588   9.054  18.490  0.00  0.00    +0.000 C 
ATOM     22  C   UNL     1       8.951  10.187  18.683  0.00  0.00    +0.000 C 
BRANCH  22  23
ATOM     23  C   UNL     1       9.472  11.549  18.886  0.00  0.00    +0.000 C 
BRANCH  23  24
ATOM     24  O   UNL     1       9.666  12.227  17.630  0.00  0.00    +0.000 OA
BRANCH  24  25
ATOM     25  C   UNL     1      10.739  13.071  17.612  0.00  0.00    +0.000 C 
ATOM     26  O   UNL     1      11.903  12.689  17.593  0.00  0.00    +0.000 OA
BRANCH  25  27
ATOM     27  C   UNL     1      10.306  14.461  17.628  0.00  0.00    +0.000 A 
ATOM     28  C   UNL     1       9.131  15.042  18.074  0.00  0.00    +0.000 A 
ATOM     29  C   UNL     1       9.124  16.462  17.907  0.00  0.00    +0.000 A 
ATOM     30  C   UNL     1      10.288  16.920  17.335  0.00  0.00    +0.000 A 
ATOM     31  S   UNL     1      11.384  15.653  17.013  0.00  0.00    +0.000 S 
ENDBRANCH  25  27
ENDBRANCH  24  25
ENDBRANCH  23  24
ENDBRANCH  22  23
ENDBRANCH  20  21
ENDBRANCH  18  20
ENDBRANCH   5  18
TORSDOF 9
ENDMDL
MODEL 4
REMARK VINA RESULT:      -8.2      4.674      7.132
REMARK  Name = 
REMARK  9 active torsions:
REMARK  status: ('A' for Active; 'I' for Inactive)
REMARK    1  A    between atoms: C_2  and  C_3
REMARK    2  A    between atoms: C_5  and  C_6
REMARK    3  A    between atoms: C_17  and  N_18
REMARK    4  A    between atoms: N_18  and  C_19
REMARK    5  A    between atoms: C_19  and  C_20
REMARK    6  A    between atoms: C_21  and  C_22
REMARK    7  A    between atoms: C_22  and  O_23
REMARK    8  A    between atoms: O_23  and  C_24
REMARK    9  A    between atoms: C_24  and  C_26
REMARK                            x       y       z     vdW  Elec       q    Type
REMARK                         _______ _______ _______ _____ _____    ______ ____
ROOT
ATOM      1  C   UNL     1       6.204   5.283  15.694  0.00  0.00    +0.000 A 
ATOM      2  N   UNL     1       5.322   4.255  15.935  0.00  0.00    +0.000 NA
ATOM      3  C   UNL     1       4.739   4.596  17.069  0.00  0.00    +0.000 A 
ATOM      4  O   UNL     1       5.194   5.792  17.584  0.00  0.00    +0.000 OA
ATOM      5  C   UNL     1       6.143   6.230  16.694  0.00  0.00    +0.000 A 
ENDROOT
BRANCH   3   6
ATOM      6  C   UNL     1       3.698   3.901  17.847  0.00  0.00    +0.000 A 
ATOM      7  C   UNL     1       3.478   2.533  17.593  0.00  0.00    +0.000 A 
ATOM      8  C   UNL     1       2.511   1.812  18.291  0.00  0.00    +0.000 A 
ATOM      9  C   UNL     1       1.738   2.447  19.257  0.00  0.00    +0.000 A 
ATOM     10  C   UNL     1       1.925   3.803  19.547  0.00  0.00    +0.000 A 
ATOM     11  C   UNL     1       1.124   4.409  20.531  0.00  0.00    +0.000 A 
ATOM     12  C   UNL     1       1.276   5.754  20.855  0.00  0.00    +0.000 A 
ATOM     13  C   UNL     1       2.233   6.510  20.196  0.00  0.00    +0.000 A 
ATOM     14  C   UNL     1       3.035   5.922  19.213  0.00  0.00    +0.000 A 
ATOM     15  C   UNL     1       2.914   4.555  18.852  0.00  0.00    +0.000 A 
ENDBRANCH   3   6
BRANCH   1  17
ATOM     16  N   UNL     1       7.741   5.303  13.613  0.00  0.00    +0.000 NA
ATOM     17  C   UNL     1       7.049   5.286  14.543  0.00  0.00    +0.000 C 
ENDBRANCH   1  17
BRANCH   5  18
ATOM     18  N   UNL     1       6.780   7.397  16.946  0.00  0.00    +0.000 N 
ATOM     19  H   UNL     1       6.503   8.268  16.501  0.00  0.00    +0.000 HD
BRANCH  18  20
ATOM     20  C   UNL     1       7.787   7.504  17.985  0.00  0.00    +0.000 C 
BRANCH  20  21
ATOM     21  C   UNL     1       8.355   8.863  18.050  0.00  0.00    +0.000 C 
ATOM     22  C   UNL     1       8.725  10.007  18.124  0.00  0.00    +0.000 C 
BRANCH  22  23
ATOM     23  C   UNL     1       9.097  11.431  18.189  0.00  0.00    +0.000 C 
BRANCH  23  24
ATOM     24  O   UNL     1      10.526  11.601  18.118  0.00  0.00    +0.000 OA
BRANCH  24  25
ATOM     25  C   UNL     1      10.920  12.857  17.757  0.00  0.00    +0.000 C 
ATOM     26  O   UNL     1      11.407  13.129  16.666  0.00  0.00    +0.000 OA
BRANCH  25  27
ATOM     27  C   UNL     1      10.692  13.804  18.839  0.00  0.00    +0.000 A 
ATOM     28  C   UNL     1      11.127  13.804  20.154  0.00  0.00    +0.000 A 
ATOM     29  C   UNL     1      10.670  14.946  20.883  0.00  0.00    +0.000 A 
ATOM     30  C   UNL     1       9.898  15.779  20.106  0.00  0.00    +0.000 A 
ATOM     31  S   UNL     1       9.734  15.195  18.511  0.00  0.00    +0.000 S 
ENDBRANCH  25  27
ENDBRANCH  24  25
ENDBRANCH  23  24
ENDBRANCH  22  23
ENDBRANCH  20  21
ENDBRANCH  18  20
ENDBRANCH   5  18
TORSDOF 9
ENDMDL
MODEL 5
REMARK VINA RESULT:      -8.2      4.500      7.089
REMARK  Name = 
REMARK  9 active torsions:
REMARK  status: ('A' for Active; 'I' for Inactive)
REMARK    1  A    between atoms: C_2  and  C_3
REMARK    2  A    between atoms: C_5  and  C_6
REMARK    3  A    between atoms: C_17  and  N_18
REMARK    4  A    between atoms: N_18  and  C_19
REMARK    5  A    between atoms: C_19  and  C_20
REMARK    6  A    between atoms: C_21  and  C_22
REMARK    7  A    between atoms: C_22  and  O_23
REMARK    8  A    between atoms: O_23  and  C_24
REMARK    9  A    between atoms: C_24  and  C_26
REMARK                            x       y       z     vdW  Elec       q    Type
REMARK                         _______ _______ _______ _____ _____    ______ ____
ROOT
ATOM      1  C   UNL     1       6.233   4.993  15.450  0.00  0.00    +0.000 A 
ATOM      2  N   UNL     1       5.275   4.057  15.762  0.00  0.00    +0.000 NA
ATOM      3  C   UNL     1       4.888   4.392  16.979  0.00  0.00    +0.000 A 
ATOM      4  O   UNL     1       5.542   5.498  17.480  0.00  0.00    +0.000 OA
ATOM      5  C   UNL     1       6.413   5.880  16.490  0.00  0.00    +0.000 A 
ENDROOT
BRANCH   3   6
ATOM      6  C   UNL     1       3.882   3.771  17.859  0.00  0.00    +0.000 A 
ATOM      7  C   UNL     1       3.701   2.375  17.784  0.00  0.00    +0.000 A 
ATOM      8  C   UNL     1       2.768   1.721  18.586  0.00  0.00    +0.000 A 
ATOM      9  C   UNL     1       1.993   2.450  19.481  0.00  0.00    +0.000 A 
ATOM     10  C   UNL     1       2.142   3.837  19.594  0.00  0.00    +0.000 A 
ATOM     11  C   UNL     1       1.339   4.538  20.511  0.00  0.00    +0.000 A 
ATOM     12  C   UNL     1       1.455   5.918  20.660  0.00  0.00    +0.000 A 
ATOM     13  C   UNL     1       2.377   6.612  19.892  0.00  0.00    +0.000 A 
ATOM     14  C   UNL     1       3.180   5.928  18.974  0.00  0.00    +0.000 A 
ATOM     15  C   UNL     1       3.096   4.524  18.790  0.00  0.00    +0.000 A 
ENDBRANCH   3   6
BRANCH   1  17
ATOM     16  N   UNL     1       7.463   4.968  13.174  0.00  0.00    +0.000 NA
ATOM     17  C   UNL     1       6.916   4.972  14.196  0.00  0.00    +0.000 C 
ENDBRANCH   1  17
BRANCH   5  18
ATOM     18  N   UNL     1       7.209   6.954  16.704  0.00  0.00    +0.000 N 
ATOM     19  H   UNL     1       7.406   7.632  15.972  0.00  0.00    +0.000 HD
BRANCH  18  20
ATOM     20  C   UNL     1       7.693   7.287  18.030  0.00  0.00    +0.000 C 
BRANCH  20  21
ATOM     21  C   UNL     1       8.225   8.661  18.082  0.00  0.00    +0.000 C 
ATOM     22  C   UNL     1       8.730   9.750  18.190  0.00  0.00    +0.000 C 
BRANCH  22  23
ATOM     23  C   UNL     1       9.373  11.058  18.402  0.00  0.00    +0.000 C 
BRANCH  23  24
ATOM     24  O   UNL     1      10.154  11.066  19.612  0.00  0.00    +0.000 OA
BRANCH  24  25
ATOM     25  C   UNL     1       9.577  11.748  20.644  0.00  0.00    +0.000 C 
ATOM     26  O   UNL     1       8.972  11.208  21.562  0.00  0.00    +0.000 OA
BRANCH  25  27
ATOM     27  C   UNL     1       9.773  13.183  20.492  0.00  0.00    +0.000 A 
ATOM     28  C   UNL     1      10.930  13.942  20.445  0.00  0.00    +0.000 A 
ATOM     29  C   UNL     1      10.665  15.336  20.274  0.00  0.00    +0.000 A 
ATOM     30  C   UNL     1       9.316  15.599  20.201  0.00  0.00    +0.000 A 
ATOM     31  S   UNL     1       8.380  14.179  20.326  0.00  0.00    +0.000 S 
ENDBRANCH  25  27
ENDBRANCH  24  25
ENDBRANCH  23  24
ENDBRANCH  22  23
ENDBRANCH  20  21
ENDBRANCH  18  20
ENDBRANCH   5  18
TORSDOF 9
ENDMDL
MODEL 6
REMARK VINA RESULT:      -8.1      1.374      2.306
REMARK  Name = 
REMARK  9 active torsions:
REMARK  status: ('A' for Active; 'I' for Inactive)
REMARK    1  A    between atoms: C_2  and  C_3
REMARK    2  A    between atoms: C_5  and  C_6
REMARK    3  A    between atoms: C_17  and  N_18
REMARK    4  A    between atoms: N_18  and  C_19
REMARK    5  A    between atoms: C_19  and  C_20
REMARK    6  A    between atoms: C_21  and  C_22
REMARK    7  A    between atoms: C_22  and  O_23
REMARK    8  A    between atoms: O_23  and  C_24
REMARK    9  A    between atoms: C_24  and  C_26
REMARK                            x       y       z     vdW  Elec       q    Type
REMARK                         _______ _______ _______ _____ _____    ______ ____
ROOT
ATOM      1  C   UNL     1       2.147   4.522  20.447  0.00  0.00    +0.000 A 
ATOM      2  N   UNL     1       1.920   5.832  20.800  0.00  0.00    +0.000 NA
ATOM      3  C   UNL     1       1.922   6.477  19.649  0.00  0.00    +0.000 A 
ATOM      4  O   UNL     1       2.140   5.660  18.560  0.00  0.00    +0.000 OA
ATOM      5  C   UNL     1       2.288   4.398  19.080  0.00  0.00    +0.000 A 
ENDROOT
BRANCH   3   6
ATOM      6  C   UNL     1       1.731   7.911  19.364  0.00  0.00    +0.000 A 
ATOM      7  C   UNL     1       2.218   8.420  18.144  0.00  0.00    +0.000 A 
ATOM      8  C   UNL     1       2.071   9.764  17.809  0.00  0.00    +0.000 A 
ATOM      9  C   UNL     1       1.437  10.632  18.691  0.00  0.00    +0.000 A 
ATOM     10  C   UNL     1       0.932  10.170  19.912  0.00  0.00    +0.000 A 
ATOM     11  C   UNL     1       0.297  11.079  20.776  0.00  0.00    +0.000 A 
ATOM     12  C   UNL     1      -0.222  10.665  22.000  0.00  0.00    +0.000 A 
ATOM     13  C   UNL     1      -0.112   9.334  22.372  0.00  0.00    +0.000 A 
ATOM     14  C   UNL     1       0.521   8.420  21.524  0.00  0.00    +0.000 A 
ATOM     15  C   UNL     1       1.063   8.798  20.269  0.00  0.00    +0.000 A 
ENDBRANCH   3   6
BRANCH   1  17
ATOM     16  N   UNL     1       2.307   2.644  22.218  0.00  0.00    +0.000 NA
ATOM     17  C   UNL     1       2.227   3.488  21.427  0.00  0.00    +0.000 C 
ENDBRANCH   1  17
BRANCH   5  18
ATOM     18  N   UNL     1       2.525   3.369  18.233  0.00  0.00    +0.000 N 
ATOM     19  H   UNL     1       1.770   2.837  17.810  0.00  0.00    +0.000 HD
BRANCH  18  20
ATOM     20  C   UNL     1       3.862   3.073  17.754  0.00  0.00    +0.000 C 
BRANCH  20  21
ATOM     21  C   UNL     1       4.874   3.912  18.422  0.00  0.00    +0.000 C 
ATOM     22  C   UNL     1       5.714   4.645  18.879  0.00  0.00    +0.000 C 
BRANCH  22  23
ATOM     23  C   UNL     1       6.776   5.547  19.357  0.00  0.00    +0.000 C 
BRANCH  23  24
ATOM     24  O   UNL     1       7.776   5.759  18.343  0.00  0.00    +0.000 OA
BRANCH  24  25
ATOM     25  C   UNL     1       7.351   6.516  17.290  0.00  0.00    +0.000 C 
ATOM     26  O   UNL     1       7.420   7.739  17.261  0.00  0.00    +0.000 OA
BRANCH  25  27
ATOM     27  C   UNL     1       6.806   5.676  16.233  0.00  0.00    +0.000 A 
ATOM     28  C   UNL     1       7.277   4.500  15.673  0.00  0.00    +0.000 A 
ATOM     29  C   UNL     1       6.414   3.996  14.651  0.00  0.00    +0.000 A 
ATOM     30  C   UNL     1       5.316   4.803  14.458  0.00  0.00    +0.000 A 
ATOM     31  S   UNL     1       5.321   6.149  15.506  0.00  0.00    +0.000 S 
ENDBRANCH  25  27
ENDBRANCH  24  25
ENDBRANCH  23  24
ENDBRANCH  22  23
ENDBRANCH  20  21
ENDBRANCH  18  20
ENDBRANCH   5  18
TORSDOF 9
ENDMDL
MODEL 7
REMARK VINA RESULT:      -8.1      5.038      7.461
REMARK  Name = 
REMARK  9 active torsions:
REMARK  status: ('A' for Active; 'I' for Inactive)
REMARK    1  A    between atoms: C_2  and  C_3
REMARK    2  A    between atoms: C_5  and  C_6
REMARK    3  A    between atoms: C_17  and  N_18
REMARK    4  A    between atoms: N_18  and  C_19
REMARK    5  A    between atoms: C_19  and  C_20
REMARK    6  A    between atoms: C_21  and  C_22
REMARK    7  A    between atoms: C_22  and  O_23
REMARK    8  A    between atoms: O_23  and  C_24
REMARK    9  A    between atoms: C_24  and  C_26
REMARK                            x       y       z     vdW  Elec       q    Type
REMARK                         _______ _______ _______ _____ _____    ______ ____
ROOT
ATOM      1  C   UNL     1       6.007   5.821  16.302  0.00  0.00    +0.000 A 
ATOM      2  N   UNL     1       4.902   5.120  16.726  0.00  0.00    +0.000 NA
ATOM      3  C   UNL     1       4.481   5.798  17.778  0.00  0.00    +0.000 A 
ATOM      4  O   UNL     1       5.251   6.905  18.065  0.00  0.00    +0.000 OA
ATOM      5  C   UNL     1       6.238   6.913  17.111  0.00  0.00    +0.000 A 
ENDROOT
BRANCH   3   6
ATOM      6  C   UNL     1       3.333   5.549  18.669  0.00  0.00    +0.000 A 
ATOM      7  C   UNL     1       2.907   6.593  19.515  0.00  0.00    +0.000 A 
ATOM      8  C   UNL     1       1.829   6.428  20.383  0.00  0.00    +0.000 A 
ATOM      9  C   UNL     1       1.155   5.213  20.426  0.00  0.00    +0.000 A 
ATOM     10  C   UNL     1       1.539   4.151  19.600  0.00  0.00    +0.000 A 
ATOM     11  C   UNL     1       0.831   2.938  19.673  0.00  0.00    +0.000 A 
ATOM     12  C   UNL     1       1.176   1.854  18.869  0.00  0.00    +0.000 A 
ATOM     13  C   UNL     1       2.234   1.973  17.981  0.00  0.00    +0.000 A 
ATOM     14  C   UNL     1       2.949   3.173  17.900  0.00  0.00    +0.000 A 
ATOM     15  C   UNL     1       2.632   4.301  18.700  0.00  0.00    +0.000 A 
ENDBRANCH   3   6
BRANCH   1  17
ATOM     16  N   UNL     1       7.377   5.062  14.243  0.00  0.00    +0.000 NA
ATOM     17  C   UNL     1       6.769   5.398  15.171  0.00  0.00    +0.000 C 
ENDBRANCH   1  17
BRANCH   5  18
ATOM     18  N   UNL     1       7.165   7.900  17.144  0.00  0.00    +0.000 N 
ATOM     19  H   UNL     1       7.116   8.705  16.525  0.00  0.00    +0.000 HD
BRANCH  18  20
ATOM     20  C   UNL     1       8.188   7.946  18.172  0.00  0.00    +0.000 C 
BRANCH  20  21
ATOM     21  C   UNL     1       8.687   9.318  18.376  0.00  0.00    +0.000 C 
ATOM     22  C   UNL     1       9.028  10.448  18.617  0.00  0.00    +0.000 C 
BRANCH  22  23
ATOM     23  C   UNL     1       9.362  11.845  18.942  0.00  0.00    +0.000 C 
BRANCH  23  24
ATOM     24  O   UNL     1       9.164  12.707  17.805  0.00  0.00    +0.000 OA
BRANCH  24  25
ATOM     25  C   UNL     1       8.770  13.974  18.129  0.00  0.00    +0.000 C 
ATOM     26  O   UNL     1       7.690  14.240  18.643  0.00  0.00    +0.000 OA
BRANCH  25  27
ATOM     27  C   UNL     1       9.796  14.944  17.771  0.00  0.00    +0.000 A 
ATOM     28  C   UNL     1      11.062  14.772  17.237  0.00  0.00    +0.000 A 
ATOM     29  C   UNL     1      11.744  16.011  17.032  0.00  0.00    +0.000 A 
ATOM     30  C   UNL     1      10.981  17.089  17.419  0.00  0.00    +0.000 A 
ATOM     31  S   UNL     1       9.455  16.612  18.014  0.00  0.00    +0.000 S 
ENDBRANCH  25  27
ENDBRANCH  24  25
ENDBRANCH  23  24
ENDBRANCH  22  23
ENDBRANCH  20  21
ENDBRANCH  18  20
ENDBRANCH   5  18
TORSDOF 9
ENDMDL
MODEL 8
REMARK VINA RESULT:      -8.1      4.790      7.318
REMARK  Name = 
REMARK  9 active torsions:
REMARK  status: ('A' for Active; 'I' for Inactive)
REMARK    1  A    between atoms: C_2  and  C_3
REMARK    2  A    between atoms: C_5  and  C_6
REMARK    3  A    between atoms: C_17  and  N_18
REMARK    4  A    between atoms: N_18  and  C_19
REMARK    5  A    between atoms: C_19  and  C_20
REMARK    6  A    between atoms: C_21  and  C_22
REMARK    7  A    between atoms: C_22  and  O_23
REMARK    8  A    between atoms: O_23  and  C_24
REMARK    9  A    between atoms: C_24  and  C_26
REMARK                            x       y       z     vdW  Elec       q    Type
REMARK                         _______ _______ _______ _____ _____    ______ ____
ROOT
ATOM      1  C   UNL     1       6.497   5.049  15.908  0.00  0.00    +0.000 A 
ATOM      2  N   UNL     1       5.468   4.144  16.027  0.00  0.00    +0.000 NA
ATOM      3  C   UNL     1       5.055   4.295  17.272  0.00  0.00    +0.000 A 
ATOM      4  O   UNL     1       5.760   5.250  17.974  0.00  0.00    +0.000 OA
ATOM      5  C   UNL     1       6.693   5.732  17.090  0.00  0.00    +0.000 A 
ENDROOT
BRANCH   3   6
ATOM      6  C   UNL     1       3.976   3.607  18.003  0.00  0.00    +0.000 A 
ATOM      7  C   UNL     1       3.837   2.215  17.832  0.00  0.00    +0.000 A 
ATOM      8  C   UNL     1       2.840   1.499  18.492  0.00  0.00    +0.000 A 
ATOM      9  C   UNL     1       1.956   2.163  19.336  0.00  0.00    +0.000 A 
ATOM     10  C   UNL     1       2.060   3.543  19.541  0.00  0.00    +0.000 A 
ATOM     11  C   UNL     1       1.147   4.177  20.403  0.00  0.00    +0.000 A 
ATOM     12  C   UNL     1       1.214   5.548  20.639  0.00  0.00    +0.000 A 
ATOM     13  C   UNL     1       2.195   6.300  20.015  0.00  0.00    +0.000 A 
ATOM     14  C   UNL     1       3.108   5.684  19.152  0.00  0.00    +0.000 A 
ATOM     15  C   UNL     1       3.077   4.291  18.884  0.00  0.00    +0.000 A 
ENDBRANCH   3   6
BRANCH   1  17
ATOM     16  N   UNL     1       7.824   5.291  13.700  0.00  0.00    +0.000 NA
ATOM     17  C   UNL     1       7.228   5.192  14.690  0.00  0.00    +0.000 C 
ENDBRANCH   1  17
BRANCH   5  18
ATOM     18  N   UNL     1       7.548   6.694  17.509  0.00  0.00    +0.000 N 
ATOM     19  H   UNL     1       8.436   6.470  17.951  0.00  0.00    +0.000 HD
BRANCH  18  20
ATOM     20  C   UNL     1       7.324   8.094  17.202  0.00  0.00    +0.000 C 
BRANCH  20  21
ATOM     21  C   UNL     1       8.146   8.973  18.054  0.00  0.00    +0.000 C 
ATOM     22  C   UNL     1       8.871   9.713  18.668  0.00  0.00    +0.000 C 
BRANCH  22  23
ATOM     23  C   UNL     1       9.820  10.603  19.359  0.00  0.00    +0.000 C 
BRANCH  23  24
ATOM     24  O   UNL     1       9.751  11.944  18.841  0.00  0.00    +0.000 OA
BRANCH  24  25
ATOM     25  C   UNL     1      10.943  12.427  18.382  0.00  0.00    +0.000 C 
ATOM     26  O   UNL     1      11.859  11.714  17.990  0.00  0.00    +0.000 OA
BRANCH  25  27
ATOM     27  C   UNL     1      10.969  13.882  18.436  0.00  0.00    +0.000 A 
ATOM     28  C   UNL     1      10.145  14.828  17.848  0.00  0.00    +0.000 A 
ATOM     29  C   UNL     1      10.529  16.166  18.174  0.00  0.00    +0.000 A 
ATOM     30  C   UNL     1      11.633  16.202  18.993  0.00  0.00    +0.000 A 
ATOM     31  S   UNL     1      12.196  14.637  19.375  0.00  0.00    +0.000 S 
ENDBRANCH  25  27
ENDBRANCH  24  25
ENDBRANCH  23  24
ENDBRANCH  22  23
ENDBRANCH  20  21
ENDBRANCH  18  20
ENDBRANCH   5  18
TORSDOF 9
ENDMDL
MODEL 9
REMARK VINA RESULT:      -8.1      5.118      9.391
REMARK  Name = 
REMARK  9 active torsions:
REMARK  status: ('A' for Active; 'I' for Inactive)
REMARK    1  A    between atoms: C_2  and  C_3
REMARK    2  A    between atoms: C_5  and  C_6
REMARK    3  A    between atoms: C_17  and  N_18
REMARK    4  A    between atoms: N_18  and  C_19
REMARK    5  A    between atoms: C_19  and  C_20
REMARK    6  A    between atoms: C_21  and  C_22
REMARK    7  A    between atoms: C_22  and  O_23
REMARK    8  A    between atoms: O_23  and  C_24
REMARK    9  A    between atoms: C_24  and  C_26
REMARK                            x       y       z     vdW  Elec       q    Type
REMARK                         _______ _______ _______ _____ _____    ______ ____
ROOT
ATOM      1  C   UNL     1       1.573   8.715  20.036  0.00  0.00    +0.000 A 
ATOM      2  N   UNL     1       2.157   7.470  20.027  0.00  0.00    +0.000 NA
ATOM      3  C   UNL     1       2.430   7.257  18.753  0.00  0.00    +0.000 A 
ATOM      4  O   UNL     1       2.056   8.296  17.928  0.00  0.00    +0.000 OA
ATOM      5  C   UNL     1       1.499   9.234  18.760  0.00  0.00    +0.000 A 
ENDROOT
BRANCH   3   6
ATOM      6  C   UNL     1       3.063   6.096  18.101  0.00  0.00    +0.000 A 
ATOM      7  C   UNL     1       4.187   6.323  17.281  0.00  0.00    +0.000 A 
ATOM      8  C   UNL     1       4.835   5.273  16.633  0.00  0.00    +0.000 A 
ATOM      9  C   UNL     1       4.371   3.972  16.790  0.00  0.00    +0.000 A 
ATOM     10  C   UNL     1       3.263   3.698  17.599  0.00  0.00    +0.000 A 
ATOM     11  C   UNL     1       2.825   2.368  17.732  0.00  0.00    +0.000 A 
ATOM     12  C   UNL     1       1.728   2.049  18.529  0.00  0.00    +0.000 A 
ATOM     13  C   UNL     1       1.058   3.057  19.202  0.00  0.00    +0.000 A 
ATOM     14  C   UNL     1       1.480   4.385  19.076  0.00  0.00    +0.000 A 
ATOM     15  C   UNL     1       2.592   4.755  18.277  0.00  0.00    +0.000 A 
ENDBRANCH   3   6
BRANCH   1  17
ATOM     16  N   UNL     1       0.744   9.789  22.238  0.00  0.00    +0.000 NA
ATOM     17  C   UNL     1       1.116   9.316  21.248  0.00  0.00    +0.000 C 
ENDBRANCH   1  17
BRANCH   5  18
ATOM     18  N   UNL     1       1.025  10.382  18.221  0.00  0.00    +0.000 N 
ATOM     19  H   UNL     1       1.300  10.694  17.293  0.00  0.00    +0.000 HD
BRANCH  18  20
ATOM     20  C   UNL     1      -0.025  11.147  18.866  0.00  0.00    +0.000 C 
BRANCH  20  21
ATOM     21  C   UNL     1      -1.353  10.809  18.321  0.00  0.00    +0.000 C 
ATOM     22  C   UNL     1      -2.453  10.632  17.863  0.00  0.00    +0.000 C 
BRANCH  22  23
ATOM     23  C   UNL     1      -3.821  10.495  17.333  0.00  0.00    +0.000 C 
BRANCH  23  24
ATOM     24  O   UNL     1      -4.599  11.680  17.587  0.00  0.00    +0.000 OA
BRANCH  24  25
ATOM     25  C   UNL     1      -5.662  11.480  18.421  0.00  0.00    +0.000 C 
ATOM     26  O   UNL     1      -6.671  10.863  18.101  0.00  0.00    +0.000 OA
BRANCH  25  27
ATOM     27  C   UNL     1      -5.429  12.104  19.716  0.00  0.00    +0.000 A 
ATOM     28  C   UNL     1      -4.316  12.750  20.227  0.00  0.00    +0.000 A 
ATOM     29  C   UNL     1      -4.522  13.227  21.559  0.00  0.00    +0.000 A 
ATOM     30  C   UNL     1      -5.781  12.928  22.025  0.00  0.00    +0.000 A 
ATOM     31  S   UNL     1      -6.710  12.090  20.864  0.00  0.00    +0.000 S 
ENDBRANCH  25  27
ENDBRANCH  24  25
ENDBRANCH  23  24
ENDBRANCH  22  23
ENDBRANCH  20  21
ENDBRANCH  18  20
ENDBRANCH   5  18
TORSDOF 9
ENDMDL
