MODEL 1
REMARK VINA RESULT:      -8.7      0.000      0.000
REMARK  Name = 
REMARK  4 active torsions:
REMARK  status: ('A' for Active; 'I' for Inactive)
REMARK    1  A    between atoms: C_8  and  C_9
REMARK    2  A    between atoms: C_15  and  C_16
REMARK    3  A    between atoms: C_20  and  N_21
REMARK    4  A    between atoms: N_21  and  C_22
REMARK                            x       y       z     vdW  Elec       q    Type
REMARK                         _______ _______ _______ _____ _____    ______ ____
ROOT
ATOM      1  C   UNL     1       2.465   6.274  19.258  0.00  0.00    +0.000 A 
ATOM      2  C   UNL     1       2.962   6.542  17.972  0.00  0.00    +0.000 A 
ATOM      3  C   UNL     1       2.864   7.807  17.363  0.00  0.00    +0.000 A 
ATOM      4  C   UNL     1       2.219   8.813  18.085  0.00  0.00    +0.000 A 
ATOM      5  N   UNL     1       1.951  10.122  17.802  0.00  0.00    +0.000 N 
ATOM      6  N   UNL     1       1.293  10.780  18.778  0.00  0.00    +0.000 NA
ATOM      7  C   UNL     1       1.126   9.861  19.749  0.00  0.00    +0.000 A 
ATOM      8  C   UNL     1       1.702   8.611  19.355  0.00  0.00    +0.000 A 
ATOM      9  C   UNL     1       1.848   7.337  19.940  0.00  0.00    +0.000 A 
ATOM     10  H   UNL     1       2.189  10.628  16.959  0.00  0.00    +0.000 HD
ENDROOT
BRANCH   1  18
ATOM     11  F   UNL     1       0.310   4.951  20.650  0.00  0.00    +0.000 F 
ATOM     12  C   UNL     1       1.505   4.344  20.588  0.00  0.00    +0.000 A 
ATOM     13  C   UNL     1       1.611   3.102  21.222  0.00  0.00    +0.000 A 
ATOM     14  C   UNL     1       2.809   2.398  21.172  0.00  0.00    +0.000 A 
ATOM     15  C   UNL     1       3.888   2.951  20.498  0.00  0.00    +0.000 A 
ATOM     16  C   UNL     1       3.773   4.201  19.883  0.00  0.00    +0.000 A 
ATOM     17  F   UNL     1       4.867   4.688  19.276  0.00  0.00    +0.000 F 
ATOM     18  C   UNL     1       2.581   4.940  19.900  0.00  0.00    +0.000 A 
ENDBRANCH   1  18
BRANCH   7  19
ATOM     19  C   UNL     1       0.449  10.162  21.019  0.00  0.00    +0.000 A 
ATOM     20  C   UNL     1       0.824   9.551  22.206  0.00  0.00    +0.000 A 
ATOM     21  N   UNL     1       0.175   9.772  23.376  0.00  0.00    +0.000 NA
ATOM     22  C   UNL     1      -0.872  10.634  23.296  0.00  0.00    +0.000 A 
ATOM     23  C   UNL     1      -1.250  11.307  22.130  0.00  0.00    +0.000 A 
ATOM     24  N   UNL     1      -0.586  11.053  20.983  0.00  0.00    +0.000 NA
BRANCH  23  25
ATOM     25  N   UNL     1      -2.369  12.168  22.137  0.00  0.00    +0.000 N 
ATOM     26  H   UNL     1      -3.202  11.686  21.816  0.00  0.00    +0.000 HD
BRANCH  25  27
ATOM     27  C   UNL     1      -2.600  12.909  23.394  0.00  0.00    +0.000 C 
ATOM     28  C   UNL     1      -3.951  12.555  24.027  0.00  0.00    +0.000 C 
ATOM     29  C   UNL     1      -5.129  13.197  23.302  0.00  0.00    +0.000 C 
ATOM     30  N   UNL     1      -4.995  14.648  23.197  0.00  0.00    +0.000 NA
ATOM     31  C   UNL     1      -3.756  15.028  22.522  0.00  0.00    +0.000 C 
ATOM     32  C   UNL     1      -2.508  14.424  23.162  0.00  0.00    +0.000 C 
ATOM     33  H   UNL     1      -5.020  15.060  24.130  0.00  0.00    +0.000 HD
ENDBRANCH  25  27
ENDBRANCH  23  25
ENDBRANCH   7  19
TORSDOF 4
ENDMDL
MODEL 2
REMARK VINA RESULT:      -8.7      0.108      1.512
REMARK  Name = 
REMARK  4 active torsions:
REMARK  status: ('A' for Active; 'I' for Inactive)
REMARK    1  A    between atoms: C_8  and  C_9
REMARK    2  A    between atoms: C_15  and  C_16
REMARK    3  A    between atoms: C_20  and  N_21
REMARK    4  A    between atoms: N_21  and  C_22
REMARK                            x       y       z     vdW  Elec       q    Type
REMARK                         _______ _______ _______ _____ _____    ______ ____
ROOT
ATOM      1  C   UNL     1       2.487   6.257  19.270  0.00  0.00    +0.000 A 
ATOM      2  C   UNL     1       2.983   6.515  17.981  0.00  0.00    +0.000 A 
ATOM      3  C   UNL     1       2.885   7.774  17.362  0.00  0.00    +0.000 A 
ATOM      4  C   UNL     1       2.243   8.787  18.078  0.00  0.00    +0.000 A 
ATOM      5  N   UNL     1       1.975  10.094  17.784  0.00  0.00    +0.000 N 
ATOM      6  N   UNL     1       1.319  10.761  18.756  0.00  0.00    +0.000 NA
ATOM      7  C   UNL     1       1.153   9.849  19.735  0.00  0.00    +0.000 A 
ATOM      8  C   UNL     1       1.727   8.595  19.349  0.00  0.00    +0.000 A 
ATOM      9  C   UNL     1       1.872   7.326  19.945  0.00  0.00    +0.000 A 
ATOM     10  H   UNL     1       2.213  10.593  16.937  0.00  0.00    +0.000 HD
ENDROOT
BRANCH   1  18
ATOM     11  F   UNL     1       4.898   4.670  19.306  0.00  0.00    +0.000 F 
ATOM     12  C   UNL     1       3.796   4.180  19.894  0.00  0.00    +0.000 A 
ATOM     13  C   UNL     1       3.908   2.915  20.479  0.00  0.00    +0.000 A 
ATOM     14  C   UNL     1       2.817   2.357  21.137  0.00  0.00    +0.000 A 
ATOM     15  C   UNL     1       1.626   3.067  21.191  0.00  0.00    +0.000 A 
ATOM     16  C   UNL     1       1.525   4.324  20.587  0.00  0.00    +0.000 A 
ATOM     17  F   UNL     1       0.333   4.939  20.651  0.00  0.00    +0.000 F 
ATOM     18  C   UNL     1       2.602   4.928  19.922  0.00  0.00    +0.000 A 
ENDBRANCH   1  18
BRANCH   7  19
ATOM     19  C   UNL     1       0.477  10.161  21.004  0.00  0.00    +0.000 A 
ATOM     20  C   UNL     1       0.864   9.571  22.197  0.00  0.00    +0.000 A 
ATOM     21  N   UNL     1       0.217   9.801  23.367  0.00  0.00    +0.000 NA
ATOM     22  C   UNL     1      -0.839  10.651  23.279  0.00  0.00    +0.000 A 
ATOM     23  C   UNL     1      -1.229  11.304  22.105  0.00  0.00    +0.000 A 
ATOM     24  N   UNL     1      -0.567  11.041  20.959  0.00  0.00    +0.000 NA
BRANCH  23  25
ATOM     25  N   UNL     1      -2.357  12.153  22.105  0.00  0.00    +0.000 N 
ATOM     26  H   UNL     1      -3.200  11.640  21.872  0.00  0.00    +0.000 HD
BRANCH  25  27
ATOM     27  C   UNL     1      -2.527  12.993  23.308  0.00  0.00    +0.000 C 
ATOM     28  C   UNL     1      -3.876  12.745  23.994  0.00  0.00    +0.000 C 
ATOM     29  C   UNL     1      -5.043  13.382  23.248  0.00  0.00    +0.000 C 
ATOM     30  N   UNL     1      -4.853  14.815  23.032  0.00  0.00    +0.000 NA
ATOM     31  C   UNL     1      -3.615  15.090  22.306  0.00  0.00    +0.000 C 
ATOM     32  C   UNL     1      -2.379  14.482  22.963  0.00  0.00    +0.000 C 
ATOM     33  H   UNL     1      -4.838  15.294  23.933  0.00  0.00    +0.000 HD
ENDBRANCH  25  27
ENDBRANCH  23  25
ENDBRANCH   7  19
TORSDOF 4
ENDMDL
MODEL 3
REMARK VINA RESULT:      -8.5      5.378     10.979
REMARK  Name = 
REMARK  4 active torsions:
REMARK  status: ('A' for Active; 'I' for Inactive)
REMARK    1  A    between atoms: C_8  and  C_9
REMARK    2  A    between atoms: C_15  and  C_16
REMARK    3  A    between atoms: C_20  and  N_21
REMARK    4  A    between atoms: N_21  and  C_22
REMARK                            x       y       z     vdW  Elec       q    Type
REMARK                         _______ _______ _______ _____ _____    ______ ____
ROOT
ATOM      1  C   UNL     1       2.031   6.894  19.939  0.00  0.00    +0.000 A 
ATOM      2  C   UNL     1       1.519   6.004  20.897  0.00  0.00    +0.000 A 
ATOM      3  C   UNL     1       1.928   4.661  20.991  0.00  0.00    +0.000 A 
ATOM      4  C   UNL     1       2.871   4.218  20.062  0.00  0.00    +0.000 A 
ATOM      5  N   UNL     1       3.471   3.006  19.867  0.00  0.00    +0.000 N 
ATOM      6  N   UNL     1       4.345   2.976  18.839  0.00  0.00    +0.000 NA
ATOM      7  C   UNL     1       4.320   4.228  18.341  0.00  0.00    +0.000 A 
ATOM      8  C   UNL     1       3.410   5.042  19.088  0.00  0.00    +0.000 A 
ATOM      9  C   UNL     1       2.995   6.389  19.048  0.00  0.00    +0.000 A 
ATOM     10  H   UNL     1       3.328   2.157  20.399  0.00  0.00    +0.000 HD
ENDROOT
BRANCH   1  18
ATOM     11  F   UNL     1       1.377   8.535  22.221  0.00  0.00    +0.000 F 
ATOM     12  C   UNL     1       1.273   9.067  20.994  0.00  0.00    +0.000 A 
ATOM     13  C   UNL     1       0.839  10.395  20.923  0.00  0.00    +0.000 A 
ATOM     14  C   UNL     1       0.739  11.025  19.687  0.00  0.00    +0.000 A 
ATOM     15  C   UNL     1       1.063  10.316  18.539  0.00  0.00    +0.000 A 
ATOM     16  C   UNL     1       1.478   8.984  18.626  0.00  0.00    +0.000 A 
ATOM     17  F   UNL     1       1.744   8.350  17.473  0.00  0.00    +0.000 F 
ATOM     18  C   UNL     1       1.603   8.312  19.851  0.00  0.00    +0.000 A 
ENDBRANCH   1  18
BRANCH   7  19
ATOM     19  C   UNL     1       5.145   4.643  17.196  0.00  0.00    +0.000 A 
ATOM     20  C   UNL     1       5.669   5.923  17.103  0.00  0.00    +0.000 A 
ATOM     21  N   UNL     1       6.383   6.342  16.029  0.00  0.00    +0.000 NA
ATOM     22  C   UNL     1       6.542   5.413  15.050  0.00  0.00    +0.000 A 
ATOM     23  C   UNL     1       6.072   4.098  15.129  0.00  0.00    +0.000 A 
ATOM     24  N   UNL     1       5.357   3.722  16.209  0.00  0.00    +0.000 NA
BRANCH  23  25
ATOM     25  N   UNL     1       6.265   3.209  14.049  0.00  0.00    +0.000 N 
ATOM     26  H   UNL     1       5.736   2.353  14.182  0.00  0.00    +0.000 HD
BRANCH  25  27
ATOM     27  C   UNL     1       6.070   3.784  12.702  0.00  0.00    +0.000 C 
ATOM     28  C   UNL     1       4.940   3.081  11.938  0.00  0.00    +0.000 C 
ATOM     29  C   UNL     1       5.347   1.708  11.414  0.00  0.00    +0.000 C 
ATOM     30  N   UNL     1       6.550   1.761  10.586  0.00  0.00    +0.000 NA
ATOM     31  C   UNL     1       7.676   2.349  11.307  0.00  0.00    +0.000 C 
ATOM     32  C   UNL     1       7.370   3.727  11.888  0.00  0.00    +0.000 C 
ATOM     33  H   UNL     1       6.358   2.304   9.744  0.00  0.00    +0.000 HD
ENDBRANCH  25  27
ENDBRANCH  23  25
ENDBRANCH   7  19
TORSDOF 4
ENDMDL
MODEL 4
REMARK VINA RESULT:      -8.5      5.379     11.012
REMARK  Name = 
REMARK  4 active torsions:
REMARK  status: ('A' for Active; 'I' for Inactive)
REMARK    1  A    between atoms: C_8  and  C_9
REMARK    2  A    between atoms: C_15  and  C_16
REMARK    3  A    between atoms: C_20  and  N_21
REMARK    4  A    between atoms: N_21  and  C_22
REMARK                            x       y       z     vdW  Elec       q    Type
REMARK                         _______ _______ _______ _____ _____    ______ ____
ROOT
ATOM      1  C   UNL     1       2.012   6.838  19.926  0.00  0.00    +0.000 A 
ATOM      2  C   UNL     1       1.468   5.940  20.859  0.00  0.00    +0.000 A 
ATOM      3  C   UNL     1       1.860   4.591  20.941  0.00  0.00    +0.000 A 
ATOM      4  C   UNL     1       2.819   4.150  20.027  0.00  0.00    +0.000 A 
ATOM      5  N   UNL     1       3.410   2.935  19.827  0.00  0.00    +0.000 N 
ATOM      6  N   UNL     1       4.307   2.910  18.820  0.00  0.00    +0.000 NA
ATOM      7  C   UNL     1       4.308   4.170  18.341  0.00  0.00    +0.000 A 
ATOM      8  C   UNL     1       3.390   4.984  19.079  0.00  0.00    +0.000 A 
ATOM      9  C   UNL     1       2.991   6.335  19.050  0.00  0.00    +0.000 A 
ATOM     10  H   UNL     1       3.244   2.080  20.343  0.00  0.00    +0.000 HD
ENDROOT
BRANCH   1  18
ATOM     11  F   UNL     1       1.789   8.334  17.468  0.00  0.00    +0.000 F 
ATOM     12  C   UNL     1       1.529   8.957  18.627  0.00  0.00    +0.000 A 
ATOM     13  C   UNL     1       1.173  10.307  18.546  0.00  0.00    +0.000 A 
ATOM     14  C   UNL     1       0.856  11.010  19.703  0.00  0.00    +0.000 A 
ATOM     15  C   UNL     1       0.911  10.358  20.926  0.00  0.00    +0.000 A 
ATOM     16  C   UNL     1       1.285   9.012  20.992  0.00  0.00    +0.000 A 
ATOM     17  F   UNL     1       1.347   8.455  22.212  0.00  0.00    +0.000 F 
ATOM     18  C   UNL     1       1.602   8.262  19.851  0.00  0.00    +0.000 A 
ENDBRANCH   1  18
BRANCH   7  19
ATOM     19  C   UNL     1       5.164   4.592  17.222  0.00  0.00    +0.000 A 
ATOM     20  C   UNL     1       5.714   5.864  17.167  0.00  0.00    +0.000 A 
ATOM     21  N   UNL     1       6.457   6.291  16.116  0.00  0.00    +0.000 NA
ATOM     22  C   UNL     1       6.619   5.380  15.121  0.00  0.00    +0.000 A 
ATOM     23  C   UNL     1       6.122   4.073  15.163  0.00  0.00    +0.000 A 
ATOM     24  N   UNL     1       5.378   3.689  16.220  0.00  0.00    +0.000 NA
BRANCH  23  25
ATOM     25  N   UNL     1       6.321   3.203  14.068  0.00  0.00    +0.000 N 
ATOM     26  H   UNL     1       5.786   2.349  14.180  0.00  0.00    +0.000 HD
BRANCH  25  27
ATOM     27  C   UNL     1       6.144   3.805  12.731  0.00  0.00    +0.000 C 
ATOM     28  C   UNL     1       4.959   3.186  11.977  0.00  0.00    +0.000 C 
ATOM     29  C   UNL     1       5.267   1.795  11.434  0.00  0.00    +0.000 C 
ATOM     30  N   UNL     1       6.458   1.778  10.586  0.00  0.00    +0.000 NA
ATOM     31  C   UNL     1       7.631   2.283  11.296  0.00  0.00    +0.000 C 
ATOM     32  C   UNL     1       7.425   3.671  11.896  0.00  0.00    +0.000 C 
ATOM     33  H   UNL     1       6.289   2.341   9.753  0.00  0.00    +0.000 HD
ENDBRANCH  25  27
ENDBRANCH  23  25
ENDBRANCH   7  19
TORSDOF 4
ENDMDL
MODEL 5
REMARK VINA RESULT:      -8.4      1.104      1.402
REMARK  Name = 
REMARK  4 active torsions:
REMARK  status: ('A' for Active; 'I' for Inactive)
REMARK    1  A    between atoms: C_8  and  C_9
REMARK    2  A    between atoms: C_15  and  C_16
REMARK    3  A    between atoms: C_20  and  N_21
REMARK    4  A    between atoms: N_21  and  C_22
REMARK                            x       y       z     vdW  Elec       q    Type
REMARK                         _______ _______ _______ _____ _____    ______ ____
ROOT
ATOM      1  C   UNL     1       2.447   6.312  19.265  0.00  0.00    +0.000 A 
ATOM      2  C   UNL     1       2.974   6.570  17.988  0.00  0.00    +0.000 A 
ATOM      3  C   UNL     1       2.900   7.833  17.372  0.00  0.00    +0.000 A 
ATOM      4  C   UNL     1       2.251   8.848  18.078  0.00  0.00    +0.000 A 
ATOM      5  N   UNL     1       2.002  10.160  17.783  0.00  0.00    +0.000 N 
ATOM      6  N   UNL     1       1.330  10.828  18.743  0.00  0.00    +0.000 NA
ATOM      7  C   UNL     1       1.134   9.914  19.714  0.00  0.00    +0.000 A 
ATOM      8  C   UNL     1       1.705   8.656  19.337  0.00  0.00    +0.000 A 
ATOM      9  C   UNL     1       1.826   7.384  19.930  0.00  0.00    +0.000 A 
ATOM     10  H   UNL     1       2.263  10.660  16.944  0.00  0.00    +0.000 HD
ENDROOT
BRANCH   1  18
ATOM     11  F   UNL     1       0.249   5.014  20.613  0.00  0.00    +0.000 F 
ATOM     12  C   UNL     1       1.440   4.396  20.580  0.00  0.00    +0.000 A 
ATOM     13  C   UNL     1       1.519   3.155  21.221  0.00  0.00    +0.000 A 
ATOM     14  C   UNL     1       2.712   2.441  21.200  0.00  0.00    +0.000 A 
ATOM     15  C   UNL     1       3.811   2.981  20.548  0.00  0.00    +0.000 A 
ATOM     16  C   UNL     1       3.721   4.230  19.926  0.00  0.00    +0.000 A 
ATOM     17  F   UNL     1       4.833   4.704  19.343  0.00  0.00    +0.000 F 
ATOM     18  C   UNL     1       2.536   4.980  19.914  0.00  0.00    +0.000 A 
ENDBRANCH   1  18
BRANCH   7  19
ATOM     19  C   UNL     1       0.433  10.227  20.969  0.00  0.00    +0.000 A 
ATOM     20  C   UNL     1       0.769   9.608  22.163  0.00  0.00    +0.000 A 
ATOM     21  N   UNL     1       0.098   9.840  23.318  0.00  0.00    +0.000 NA
ATOM     22  C   UNL     1      -0.931  10.722  23.215  0.00  0.00    +0.000 A 
ATOM     23  C   UNL     1      -1.269  11.403  22.041  0.00  0.00    +0.000 A 
ATOM     24  N   UNL     1      -0.584  11.137  20.909  0.00  0.00    +0.000 NA
BRANCH  23  25
ATOM     25  N   UNL     1      -2.372  12.284  22.023  0.00  0.00    +0.000 N 
ATOM     26  H   UNL     1      -2.374  12.882  22.843  0.00  0.00    +0.000 HD
BRANCH  25  27
ATOM     27  C   UNL     1      -2.563  13.047  20.772  0.00  0.00    +0.000 C 
ATOM     28  C   UNL     1      -2.642  14.557  21.029  0.00  0.00    +0.000 C 
ATOM     29  C   UNL     1      -3.979  14.985  21.625  0.00  0.00    +0.000 C 
ATOM     30  N   UNL     1      -5.115  14.560  20.811  0.00  0.00    +0.000 NA
ATOM     31  C   UNL     1      -5.123  13.113  20.611  0.00  0.00    +0.000 C 
ATOM     32  C   UNL     1      -3.819  12.574  20.028  0.00  0.00    +0.000 C 
ATOM     33  H   UNL     1      -5.080  15.033  19.907  0.00  0.00    +0.000 HD
ENDBRANCH  25  27
ENDBRANCH  23  25
ENDBRANCH   7  19
TORSDOF 4
ENDMDL
MODEL 6
REMARK VINA RESULT:      -8.4      1.067      2.063
REMARK  Name = 
REMARK  4 active torsions:
REMARK  status: ('A' for Active; 'I' for Inactive)
REMARK    1  A    between atoms: C_8  and  C_9
REMARK    2  A    between atoms: C_15  and  C_16
REMARK    3  A    between atoms: C_20  and  N_21
REMARK    4  A    between atoms: N_21  and  C_22
REMARK                            x       y       z     vdW  Elec       q    Type
REMARK                         _______ _______ _______ _____ _____    ______ ____
ROOT
ATOM      1  C   UNL     1       2.450   6.270  19.284  0.00  0.00    +0.000 A 
ATOM      2  C   UNL     1       2.970   6.515  18.002  0.00  0.00    +0.000 A 
ATOM      3  C   UNL     1       2.891   7.771  17.373  0.00  0.00    +0.000 A 
ATOM      4  C   UNL     1       2.243   8.793  18.070  0.00  0.00    +0.000 A 
ATOM      5  N   UNL     1       1.989  10.100  17.762  0.00  0.00    +0.000 N 
ATOM      6  N   UNL     1       1.320  10.777  18.717  0.00  0.00    +0.000 NA
ATOM      7  C   UNL     1       1.131   9.873  19.699  0.00  0.00    +0.000 A 
ATOM      8  C   UNL     1       1.703   8.614  19.333  0.00  0.00    +0.000 A 
ATOM      9  C   UNL     1       1.830   7.348  19.940  0.00  0.00    +0.000 A 
ATOM     10  H   UNL     1       2.245  10.591  16.915  0.00  0.00    +0.000 HD
ENDROOT
BRANCH   1  18
ATOM     11  F   UNL     1       4.858   4.682  19.399  0.00  0.00    +0.000 F 
ATOM     12  C   UNL     1       3.739   4.197  19.959  0.00  0.00    +0.000 A 
ATOM     13  C   UNL     1       3.833   2.935  20.555  0.00  0.00    +0.000 A 
ATOM     14  C   UNL     1       2.723   2.382  21.184  0.00  0.00    +0.000 A 
ATOM     15  C   UNL     1       1.532   3.093  21.199  0.00  0.00    +0.000 A 
ATOM     16  C   UNL     1       1.449   4.346  20.585  0.00  0.00    +0.000 A 
ATOM     17  F   UNL     1       0.257   4.962  20.611  0.00  0.00    +0.000 F 
ATOM     18  C   UNL     1       2.545   4.946  19.948  0.00  0.00    +0.000 A 
ENDBRANCH   1  18
BRANCH   7  19
ATOM     19  C   UNL     1       0.435  10.199  20.954  0.00  0.00    +0.000 A 
ATOM     20  C   UNL     1       0.782   9.599  22.155  0.00  0.00    +0.000 A 
ATOM     21  N   UNL     1       0.116   9.842  23.310  0.00  0.00    +0.000 NA
ATOM     22  C   UNL     1      -0.919  10.716  23.201  0.00  0.00    +0.000 A 
ATOM     23  C   UNL     1      -1.268  11.378  22.020  0.00  0.00    +0.000 A 
ATOM     24  N   UNL     1      -0.588  11.102  20.888  0.00  0.00    +0.000 NA
BRANCH  23  25
ATOM     25  N   UNL     1      -2.376  12.253  21.997  0.00  0.00    +0.000 N 
ATOM     26  H   UNL     1      -2.349  12.898  22.779  0.00  0.00    +0.000 HD
BRANCH  25  27
ATOM     27  C   UNL     1      -2.625  12.940  20.713  0.00  0.00    +0.000 C 
ATOM     28  C   UNL     1      -2.196  14.412  20.759  0.00  0.00    +0.000 C 
ATOM     29  C   UNL     1      -3.170  15.286  21.542  0.00  0.00    +0.000 C 
ATOM     30  N   UNL     1      -4.539  15.183  21.041  0.00  0.00    +0.000 NA
ATOM     31  C   UNL     1      -5.017  13.803  21.059  0.00  0.00    +0.000 C 
ATOM     32  C   UNL     1      -4.103  12.835  20.312  0.00  0.00    +0.000 C 
ATOM     33  H   UNL     1      -4.580  15.550  20.091  0.00  0.00    +0.000 HD
ENDBRANCH  25  27
ENDBRANCH  23  25
ENDBRANCH   7  19
TORSDOF 4
ENDMDL
MODEL 7
REMARK VINA RESULT:      -8.4      0.908      1.915
REMARK  Name = 
REMARK  4 active torsions:
REMARK  status: ('A' for Active; 'I' for Inactive)
REMARK    1  A    between atoms: C_8  and  C_9
REMARK    2  A    between atoms: C_15  and  C_16
REMARK    3  A    between atoms: C_20  and  N_21
REMARK    4  A    between atoms: N_21  and  C_22
REMARK                            x       y       z     vdW  Elec       q    Type
REMARK                         _______ _______ _______ _____ _____    ______ ____
ROOT
ATOM      1  C   UNL     1       2.475   6.274  19.276  0.00  0.00    +0.000 A 
ATOM      2  C   UNL     1       2.970   6.531  17.987  0.00  0.00    +0.000 A 
ATOM      3  C   UNL     1       2.869   7.789  17.366  0.00  0.00    +0.000 A 
ATOM      4  C   UNL     1       2.225   8.801  18.080  0.00  0.00    +0.000 A 
ATOM      5  N   UNL     1       1.955  10.108  17.784  0.00  0.00    +0.000 N 
ATOM      6  N   UNL     1       1.297  10.774  18.755  0.00  0.00    +0.000 NA
ATOM      7  C   UNL     1       1.133   9.864  19.735  0.00  0.00    +0.000 A 
ATOM      8  C   UNL     1       1.710   8.611  19.352  0.00  0.00    +0.000 A 
ATOM      9  C   UNL     1       1.858   7.343  19.949  0.00  0.00    +0.000 A 
ATOM     10  H   UNL     1       2.191  10.606  16.936  0.00  0.00    +0.000 HD
ENDROOT
BRANCH   1  18
ATOM     11  F   UNL     1       4.890   4.692  19.313  0.00  0.00    +0.000 F 
ATOM     12  C   UNL     1       3.789   4.201  19.903  0.00  0.00    +0.000 A 
ATOM     13  C   UNL     1       3.904   2.937  20.490  0.00  0.00    +0.000 A 
ATOM     14  C   UNL     1       2.814   2.378  21.149  0.00  0.00    +0.000 A 
ATOM     15  C   UNL     1       1.623   3.085  21.202  0.00  0.00    +0.000 A 
ATOM     16  C   UNL     1       1.518   4.341  20.597  0.00  0.00    +0.000 A 
ATOM     17  F   UNL     1       0.325   4.954  20.661  0.00  0.00    +0.000 F 
ATOM     18  C   UNL     1       2.593   4.947  19.930  0.00  0.00    +0.000 A 
ENDBRANCH   1  18
BRANCH   7  19
ATOM     19  C   UNL     1       0.457  10.176  21.004  0.00  0.00    +0.000 A 
ATOM     20  C   UNL     1       0.775   9.514  22.180  0.00  0.00    +0.000 A 
ATOM     21  N   UNL     1       0.124   9.746  23.346  0.00  0.00    +0.000 NA
ATOM     22  C   UNL     1      -0.865  10.676  23.274  0.00  0.00    +0.000 A 
ATOM     23  C   UNL     1      -1.182  11.400  22.120  0.00  0.00    +0.000 A 
ATOM     24  N   UNL     1      -0.519  11.132  20.976  0.00  0.00    +0.000 NA
BRANCH  23  25
ATOM     25  N   UNL     1      -2.244  12.330  22.134  0.00  0.00    +0.000 N 
ATOM     26  H   UNL     1      -2.783  12.255  22.991  0.00  0.00    +0.000 HD
BRANCH  25  27
ATOM     27  C   UNL     1      -1.877  13.727  21.824  0.00  0.00    +0.000 C 
ATOM     28  C   UNL     1      -0.924  14.315  22.872  0.00  0.00    +0.000 C 
ATOM     29  C   UNL     1      -1.629  14.673  24.176  0.00  0.00    +0.000 C 
ATOM     30  N   UNL     1      -2.759  15.576  23.970  0.00  0.00    +0.000 NA
ATOM     31  C   UNL     1      -3.735  15.015  23.039  0.00  0.00    +0.000 C 
ATOM     32  C   UNL     1      -3.129  14.607  21.698  0.00  0.00    +0.000 C 
ATOM     33  H   UNL     1      -2.418  16.470  23.615  0.00  0.00    +0.000 HD
ENDBRANCH  25  27
ENDBRANCH  23  25
ENDBRANCH   7  19
TORSDOF 4
ENDMDL
MODEL 8
REMARK VINA RESULT:      -8.4      3.982      9.594
REMARK  Name = 
REMARK  4 active torsions:
REMARK  status: ('A' for Active; 'I' for Inactive)
REMARK    1  A    between atoms: C_8  and  C_9
REMARK    2  A    between atoms: C_15  and  C_16
REMARK    3  A    between atoms: C_20  and  N_21
REMARK    4  A    between atoms: N_21  and  C_22
REMARK                            x       y       z     vdW  Elec       q    Type
REMARK                         _______ _______ _______ _____ _____    ______ ____
ROOT
ATOM      1  C   UNL     1      -0.032  12.959  21.233  0.00  0.00    +0.000 A 
ATOM      2  C   UNL     1      -0.822  12.852  22.390  0.00  0.00    +0.000 A 
ATOM      3  C   UNL     1      -1.105  11.621  23.011  0.00  0.00    +0.000 A 
ATOM      4  C   UNL     1      -0.580  10.472  22.415  0.00  0.00    +0.000 A 
ATOM      5  N   UNL     1      -0.660   9.148  22.742  0.00  0.00    +0.000 N 
ATOM      6  N   UNL     1      -0.004   8.325  21.897  0.00  0.00    +0.000 NA
ATOM      7  C   UNL     1       0.534   9.150  20.976  0.00  0.00    +0.000 A 
ATOM      8  C   UNL     1       0.200  10.510  21.271  0.00  0.00    +0.000 A 
ATOM      9  C   UNL     1       0.484  11.766  20.698  0.00  0.00    +0.000 A 
ATOM     10  H   UNL     1      -1.147   8.738  23.528  0.00  0.00    +0.000 HD
ENDROOT
BRANCH   1  18
ATOM     11  F   UNL     1      -1.072  13.782  18.669  0.00  0.00    +0.000 F 
ATOM     12  C   UNL     1      -0.243  14.609  19.324  0.00  0.00    +0.000 A 
ATOM     13  C   UNL     1       0.060  15.820  18.693  0.00  0.00    +0.000 A 
ATOM     14  C   UNL     1       0.886  16.743  19.325  0.00  0.00    +0.000 A 
ATOM     15  C   UNL     1       1.406  16.438  20.574  0.00  0.00    +0.000 A 
ATOM     16  C   UNL     1       1.108  15.217  21.185  0.00  0.00    +0.000 A 
ATOM     17  F   UNL     1       1.672  14.976  22.379  0.00  0.00    +0.000 F 
ATOM     18  C   UNL     1       0.272  14.261  20.589  0.00  0.00    +0.000 A 
ENDBRANCH   1  18
BRANCH   7  19
ATOM     19  C   UNL     1       1.350   8.661  19.854  0.00  0.00    +0.000 A 
ATOM     20  C   UNL     1       1.544   9.421  18.711  0.00  0.00    +0.000 A 
ATOM     21  N   UNL     1       2.244   8.965  17.643  0.00  0.00    +0.000 NA
ATOM     22  C   UNL     1       2.739   7.707  17.778  0.00  0.00    +0.000 A 
ATOM     23  C   UNL     1       2.606   6.929  18.933  0.00  0.00    +0.000 A 
ATOM     24  N   UNL     1       1.893   7.413  19.970  0.00  0.00    +0.000 NA
BRANCH  23  25
ATOM     25  N   UNL     1       3.134   5.620  18.971  0.00  0.00    +0.000 N 
ATOM     26  H   UNL     1       2.826   5.127  19.803  0.00  0.00    +0.000 HD
BRANCH  25  27
ATOM     27  C   UNL     1       2.950   4.818  17.744  0.00  0.00    +0.000 C 
ATOM     28  C   UNL     1       1.540   4.219  17.657  0.00  0.00    +0.000 C 
ATOM     29  C   UNL     1       1.343   3.033  18.595  0.00  0.00    +0.000 C 
ATOM     30  N   UNL     1       2.341   1.986  18.387  0.00  0.00    +0.000 NA
ATOM     31  C   UNL     1       3.701   2.497  18.544  0.00  0.00    +0.000 C 
ATOM     32  C   UNL     1       4.001   3.702  17.656  0.00  0.00    +0.000 C 
ATOM     33  H   UNL     1       2.227   1.590  17.454  0.00  0.00    +0.000 HD
ENDBRANCH  25  27
ENDBRANCH  23  25
ENDBRANCH   7  19
TORSDOF 4
ENDMDL
MODEL 9
REMARK VINA RESULT:      -8.3      3.997      9.148
REMARK  Name = 
REMARK  4 active torsions:
REMARK  status: ('A' for Active; 'I' for Inactive)
REMARK    1  A    between atoms: C_8  and  C_9
REMARK    2  A    between atoms: C_15  and  C_16
REMARK    3  A    between atoms: C_20  and  N_21
REMARK    4  A    between atoms: N_21  and  C_22
REMARK                            x       y       z     vdW  Elec       q    Type
REMARK                         _______ _______ _______ _____ _____    ______ ____
ROOT
ATOM      1  C   UNL     1      -1.437  10.635  19.174  0.00  0.00    +0.000 A 
ATOM      2  C   UNL     1      -1.482  11.628  20.167  0.00  0.00    +0.000 A 
ATOM      3  C   UNL     1      -0.680  11.591  21.323  0.00  0.00    +0.000 A 
ATOM      4  C   UNL     1       0.172  10.495  21.470  0.00  0.00    +0.000 A 
ATOM      5  N   UNL     1       1.063  10.147  22.446  0.00  0.00    +0.000 N 
ATOM      6  N   UNL     1       1.710   8.984  22.222  0.00  0.00    +0.000 NA
ATOM      7  C   UNL     1       1.224   8.553  21.041  0.00  0.00    +0.000 A 
ATOM      8  C   UNL     1       0.259   9.480  20.531  0.00  0.00    +0.000 A 
ATOM      9  C   UNL     1      -0.540   9.570  19.374  0.00  0.00    +0.000 A 
ATOM     10  H   UNL     1       1.276  10.658  23.293  0.00  0.00    +0.000 HD
ENDROOT
BRANCH   1  18
ATOM     11  F   UNL     1      -3.883  12.150  18.948  0.00  0.00    +0.000 F 
ATOM     12  C   UNL     1      -3.477  11.422  17.897  0.00  0.00    +0.000 A 
ATOM     13  C   UNL     1      -4.294  11.453  16.761  0.00  0.00    +0.000 A 
ATOM     14  C   UNL     1      -3.920  10.749  15.622  0.00  0.00    +0.000 A 
ATOM     15  C   UNL     1      -2.742  10.017  15.636  0.00  0.00    +0.000 A 
ATOM     16  C   UNL     1      -1.945   9.983  16.784  0.00  0.00    +0.000 A 
ATOM     17  F   UNL     1      -0.837   9.227  16.737  0.00  0.00    +0.000 F 
ATOM     18  C   UNL     1      -2.278  10.684  17.952  0.00  0.00    +0.000 A 
ENDBRANCH   1  18
BRANCH   7  19
ATOM     19  C   UNL     1       1.671   7.302  20.408  0.00  0.00    +0.000 A 
ATOM     20  C   UNL     1       1.260   6.064  20.877  0.00  0.00    +0.000 A 
ATOM     21  N   UNL     1       1.706   4.899  20.345  0.00  0.00    +0.000 NA
ATOM     22  C   UNL     1       2.587   5.038  19.320  0.00  0.00    +0.000 A 
ATOM     23  C   UNL     1       2.987   6.269  18.787  0.00  0.00    +0.000 A 
ATOM     24  N   UNL     1       2.530   7.406  19.351  0.00  0.00    +0.000 NA
BRANCH  23  25
ATOM     25  N   UNL     1       3.927   6.315  17.735  0.00  0.00    +0.000 N 
ATOM     26  H   UNL     1       4.359   7.231  17.673  0.00  0.00    +0.000 HD
BRANCH  25  27
ATOM     27  C   UNL     1       4.923   5.224  17.716  0.00  0.00    +0.000 C 
ATOM     28  C   UNL     1       6.297   5.693  18.211  0.00  0.00    +0.000 C 
ATOM     29  C   UNL     1       7.039   6.538  17.181  0.00  0.00    +0.000 C 
ATOM     30  N   UNL     1       7.181   5.854  15.897  0.00  0.00    +0.000 NA
ATOM     31  C   UNL     1       5.884   5.463  15.348  0.00  0.00    +0.000 C 
ATOM     32  C   UNL     1       5.049   4.621  16.309  0.00  0.00    +0.000 C 
ATOM     33  H   UNL     1       7.768   5.029  16.016  0.00  0.00    +0.000 HD
ENDBRANCH  25  27
ENDBRANCH  23  25
ENDBRANCH   7  19
TORSDOF 4
ENDMDL
