MODEL 1
REMARK VINA RESULT:      -8.2      0.000      0.000
REMARK  Name = 
REMARK  7 active torsions:
REMARK  status: ('A' for Active; 'I' for Inactive)
REMARK    1  A    between atoms: C_1  and  N_2
REMARK    2  A    between atoms: N_2  and  C_3
REMARK    3  A    between atoms: C_8  and  C_9
REMARK    4  A    between atoms: C_12  and  N_13
REMARK    5  A    between atoms: C_16  and  C_17
REMARK    6  A    between atoms: C_19  and  O_20
REMARK    7  A    between atoms: O_20  and  C_21
REMARK                            x       y       z     vdW  Elec       q    Type
REMARK                         _______ _______ _______ _____ _____    ______ ____
ROOT
ATOM      1  C   UNL     1       2.470   7.409  19.227  0.00  0.00    +0.000 A 
ATOM      2  C   UNL     1       2.523   8.151  18.046  0.00  0.00    +0.000 A 
ATOM      3  C   UNL     1       1.791   9.327  17.924  0.00  0.00    +0.000 A 
ATOM      4  C   UNL     1       1.028   9.807  18.999  0.00  0.00    +0.000 A 
ATOM      5  C   UNL     1       1.028   9.114  20.228  0.00  0.00    +0.000 A 
ATOM      6  C   UNL     1       1.752   7.915  20.322  0.00  0.00    +0.000 A 
ENDROOT
BRANCH   1  12
ATOM      7  C   UNL     1       3.507   2.539  20.095  0.00  0.00    +0.000 C 
ATOM      8  C   UNL     1       2.051   2.148  20.484  0.00  0.00    +0.000 C 
ATOM      9  C   UNL     1       1.334   3.267  21.277  0.00  0.00    +0.000 C 
ATOM     10  C   UNL     1       1.228   4.567  20.455  0.00  0.00    +0.000 C 
ATOM     11  C   UNL     1       2.532   4.896  19.826  0.00  0.00    +0.000 A 
ATOM     12  C   UNL     1       3.089   6.088  19.291  0.00  0.00    +0.000 A 
ATOM     13  N   UNL     1       4.353   5.868  18.880  0.00  0.00    +0.000 NA
ATOM     14  O   UNL     1       4.621   4.530  19.132  0.00  0.00    +0.000 OA
ATOM     15  C   UNL     1       3.523   3.965  19.675  0.00  0.00    +0.000 A 
BRANCH   7  17
ATOM     16  C   UNL     1       3.490   1.615  17.811  0.00  0.00    +0.000 C 
ATOM     17  N   UNL     1       4.116   1.618  19.128  0.00  0.00    +0.000 NA
ATOM     18  H   UNL     1       5.092   1.896  19.010  0.00  0.00    +0.000 HD
ENDBRANCH   7  17
ENDBRANCH   1  12
BRANCH   4  19
ATOM     19  N   UNL     1       0.255  10.979  18.781  0.00  0.00    +0.000 N 
ATOM     20  C   UNL     1      -1.036  11.088  18.320  0.00  0.00    +0.000 A 
ATOM     21  N   UNL     1      -1.442  12.339  18.248  0.00  0.00    +0.000 NA
ATOM     22  C   UNL     1      -0.376  13.090  18.669  0.00  0.00    +0.000 A 
ATOM     23  C   UNL     1      -0.434  14.567  18.685  0.00  0.00    +0.000 C 
ATOM     24  C   UNL     1       0.674  12.273  19.016  0.00  0.00    +0.000 A 
ENDBRANCH   4  19
BRANCH   5  25
ATOM     25  O   UNL     1       0.245   9.596  21.241  0.00  0.00    +0.000 OA
ATOM     26  C   UNL     1       0.644   9.333  22.582  0.00  0.00    +0.000 C 
ENDBRANCH   5  25
TORSDOF 4
ENDMDL
MODEL 2
REMARK VINA RESULT:      -7.8      0.879      1.193
REMARK  Name = 
REMARK  7 active torsions:
REMARK  status: ('A' for Active; 'I' for Inactive)
REMARK    1  A    between atoms: C_1  and  N_2
REMARK    2  A    between atoms: N_2  and  C_3
REMARK    3  A    between atoms: C_8  and  C_9
REMARK    4  A    between atoms: C_12  and  N_13
REMARK    5  A    between atoms: C_16  and  C_17
REMARK    6  A    between atoms: C_19  and  O_20
REMARK    7  A    between atoms: O_20  and  C_21
REMARK                            x       y       z     vdW  Elec       q    Type
REMARK                         _______ _______ _______ _____ _____    ______ ____
ROOT
ATOM      1  C   UNL     1       2.333   7.520  19.173  0.00  0.00    +0.000 A 
ATOM      2  C   UNL     1       2.021   8.149  17.968  0.00  0.00    +0.000 A 
ATOM      3  C   UNL     1       1.167   9.247  17.949  0.00  0.00    +0.000 A 
ATOM      4  C   UNL     1       0.645   9.764  19.145  0.00  0.00    +0.000 A 
ATOM      5  C   UNL     1       1.014   9.192  20.380  0.00  0.00    +0.000 A 
ATOM      6  C   UNL     1       1.857   8.068  20.374  0.00  0.00    +0.000 A 
ENDROOT
BRANCH   1  12
ATOM      7  C   UNL     1       4.007   2.835  20.066  0.00  0.00    +0.000 C 
ATOM      8  C   UNL     1       2.715   2.356  20.791  0.00  0.00    +0.000 C 
ATOM      9  C   UNL     1       2.079   3.469  21.657  0.00  0.00    +0.000 C 
ATOM     10  C   UNL     1       1.670   4.688  20.807  0.00  0.00    +0.000 C 
ATOM     11  C   UNL     1       2.769   5.075  19.886  0.00  0.00    +0.000 A 
ATOM     12  C   UNL     1       3.078   6.265  19.174  0.00  0.00    +0.000 A 
ATOM     13  N   UNL     1       4.239   6.120  18.506  0.00  0.00    +0.000 NA
ATOM     14  O   UNL     1       4.686   4.832  18.768  0.00  0.00    +0.000 OA
ATOM     15  C   UNL     1       3.792   4.221  19.572  0.00  0.00    +0.000 A 
BRANCH   7  17
ATOM     16  C   UNL     1       3.506   1.582  18.005  0.00  0.00    +0.000 C 
ATOM     17  N   UNL     1       4.481   1.896  19.042  0.00  0.00    +0.000 NA
ATOM     18  H   UNL     1       5.294   2.319  18.590  0.00  0.00    +0.000 HD
ENDBRANCH   7  17
ENDBRANCH   1  12
BRANCH   4  19
ATOM     19  N   UNL     1      -0.271  10.845  19.045  0.00  0.00    +0.000 N 
ATOM     20  C   UNL     1      -0.010  12.186  18.891  0.00  0.00    +0.000 A 
ATOM     21  N   UNL     1      -1.109  12.909  18.825  0.00  0.00    +0.000 NA
ATOM     22  C   UNL     1      -2.139  12.014  18.949  0.00  0.00    +0.000 A 
ATOM     23  C   UNL     1      -3.548  12.460  18.968  0.00  0.00    +0.000 C 
ATOM     24  C   UNL     1      -1.647  10.737  19.071  0.00  0.00    +0.000 A 
ENDBRANCH   4  19
BRANCH   5  25
ATOM     25  O   UNL     1       0.458   9.703  21.521  0.00  0.00    +0.000 OA
ATOM     26  C   UNL     1      -0.454   8.887  22.249  0.00  0.00    +0.000 C 
ENDBRANCH   5  25
TORSDOF 4
ENDMDL
MODEL 3
REMARK VINA RESULT:      -7.6      2.587      8.027
REMARK  Name = 
REMARK  7 active torsions:
REMARK  status: ('A' for Active; 'I' for Inactive)
REMARK    1  A    between atoms: C_1  and  N_2
REMARK    2  A    between atoms: N_2  and  C_3
REMARK    3  A    between atoms: C_8  and  C_9
REMARK    4  A    between atoms: C_12  and  N_13
REMARK    5  A    between atoms: C_16  and  C_17
REMARK    6  A    between atoms: C_19  and  O_20
REMARK    7  A    between atoms: O_20  and  C_21
REMARK                            x       y       z     vdW  Elec       q    Type
REMARK                         _______ _______ _______ _____ _____    ______ ____
ROOT
ATOM      1  C   UNL     1       1.382   8.348  20.187  0.00  0.00    +0.000 A 
ATOM      2  C   UNL     1       1.826   8.642  18.898  0.00  0.00    +0.000 A 
ATOM      3  C   UNL     1       2.579   7.714  18.186  0.00  0.00    +0.000 A 
ATOM      4  C   UNL     1       2.863   6.454  18.736  0.00  0.00    +0.000 A 
ATOM      5  C   UNL     1       2.353   6.109  20.005  0.00  0.00    +0.000 A 
ATOM      6  C   UNL     1       1.617   7.070  20.717  0.00  0.00    +0.000 A 
ENDROOT
BRANCH   1  12
ATOM      7  C   UNL     1      -1.358  12.253  21.858  0.00  0.00    +0.000 C 
ATOM      8  C   UNL     1      -2.276  12.333  20.603  0.00  0.00    +0.000 C 
ATOM      9  C   UNL     1      -1.512  12.020  19.295  0.00  0.00    +0.000 C 
ATOM     10  C   UNL     1      -0.922  10.595  19.308  0.00  0.00    +0.000 C 
ATOM     11  C   UNL     1      -0.226  10.330  20.592  0.00  0.00    +0.000 A 
ATOM     12  C   UNL     1       0.752   9.384  21.000  0.00  0.00    +0.000 A 
ATOM     13  N   UNL     1       1.102   9.599  22.283  0.00  0.00    +0.000 NA
ATOM     14  O   UNL     1       0.345  10.677  22.722  0.00  0.00    +0.000 OA
ATOM     15  C   UNL     1      -0.451  11.084  21.712  0.00  0.00    +0.000 A 
BRANCH   7  17
ATOM     16  C   UNL     1      -3.533  12.523  22.983  0.00  0.00    +0.000 C 
ATOM     17  N   UNL     1      -2.102  12.285  23.123  0.00  0.00    +0.000 NA
ATOM     18  H   UNL     1      -1.979  11.377  23.576  0.00  0.00    +0.000 HD
ENDBRANCH   7  17
ENDBRANCH   1  12
BRANCH   4  19
ATOM     19  N   UNL     1       3.691   5.583  17.980  0.00  0.00    +0.000 N 
ATOM     20  C   UNL     1       3.371   4.381  17.393  0.00  0.00    +0.000 A 
ATOM     21  N   UNL     1       4.391   3.843  16.757  0.00  0.00    +0.000 NA
ATOM     22  C   UNL     1       5.431   4.717  16.937  0.00  0.00    +0.000 A 
ATOM     23  C   UNL     1       6.779   4.430  16.400  0.00  0.00    +0.000 C 
ATOM     24  C   UNL     1       5.019   5.801  17.674  0.00  0.00    +0.000 A 
ENDBRANCH   4  19
BRANCH   5  25
ATOM     25  O   UNL     1       2.679   4.884  20.520  0.00  0.00    +0.000 OA
ATOM     26  C   UNL     1       1.623   3.984  20.837  0.00  0.00    +0.000 C 
ENDBRANCH   5  25
TORSDOF 4
ENDMDL
MODEL 4
REMARK VINA RESULT:      -7.5      2.226      8.119
REMARK  Name = 
REMARK  7 active torsions:
REMARK  status: ('A' for Active; 'I' for Inactive)
REMARK    1  A    between atoms: C_1  and  N_2
REMARK    2  A    between atoms: N_2  and  C_3
REMARK    3  A    between atoms: C_8  and  C_9
REMARK    4  A    between atoms: C_12  and  N_13
REMARK    5  A    between atoms: C_16  and  C_17
REMARK    6  A    between atoms: C_19  and  O_20
REMARK    7  A    between atoms: O_20  and  C_21
REMARK                            x       y       z     vdW  Elec       q    Type
REMARK                         _______ _______ _______ _____ _____    ______ ____
ROOT
ATOM      1  C   UNL     1       1.434   8.781  19.213  0.00  0.00    +0.000 A 
ATOM      2  C   UNL     1       2.080   8.890  17.981  0.00  0.00    +0.000 A 
ATOM      3  C   UNL     1       2.981   7.913  17.572  0.00  0.00    +0.000 A 
ATOM      4  C   UNL     1       3.217   6.783  18.370  0.00  0.00    +0.000 A 
ATOM      5  C   UNL     1       2.513   6.616  19.580  0.00  0.00    +0.000 A 
ATOM      6  C   UNL     1       1.627   7.627  19.987  0.00  0.00    +0.000 A 
ENDROOT
BRANCH   1  12
ATOM      7  C   UNL     1      -2.018  12.414  19.869  0.00  0.00    +0.000 C 
ATOM      8  C   UNL     1      -2.998  11.881  18.783  0.00  0.00    +0.000 C 
ATOM      9  C   UNL     1      -2.255  11.293  17.559  0.00  0.00    +0.000 C 
ATOM     10  C   UNL     1      -1.360  10.102  17.956  0.00  0.00    +0.000 C 
ATOM     11  C   UNL     1      -0.553  10.432  19.158  0.00  0.00    +0.000 A 
ATOM     12  C   UNL     1       0.633   9.891  19.722  0.00  0.00    +0.000 A 
ATOM     13  N   UNL     1       0.995  10.595  20.811  0.00  0.00    +0.000 NA
ATOM     14  O   UNL     1       0.041  11.590  20.972  0.00  0.00    +0.000 OA
ATOM     15  C   UNL     1      -0.880  11.466  19.994  0.00  0.00    +0.000 A 
BRANCH   7  17
ATOM     16  C   UNL     1      -4.136  12.754  21.081  0.00  0.00    +0.000 C 
ATOM     17  N   UNL     1      -2.680  12.733  21.140  0.00  0.00    +0.000 NA
ATOM     18  H   UNL     1      -2.404  12.020  21.818  0.00  0.00    +0.000 HD
ENDBRANCH   7  17
ENDBRANCH   1  12
BRANCH   4  19
ATOM     19  N   UNL     1       4.198   5.859  17.921  0.00  0.00    +0.000 N 
ATOM     20  C   UNL     1       4.020   4.662  17.268  0.00  0.00    +0.000 A 
ATOM     21  N   UNL     1       5.161   4.064  16.991  0.00  0.00    +0.000 NA
ATOM     22  C   UNL     1       6.133   4.892  17.489  0.00  0.00    +0.000 A 
ATOM     23  C   UNL     1       7.565   4.532  17.409  0.00  0.00    +0.000 C 
ATOM     24  C   UNL     1       5.563   6.009  18.052  0.00  0.00    +0.000 A 
ENDBRANCH   4  19
BRANCH   5  25
ATOM     25  O   UNL     1       2.796   5.517  20.346  0.00  0.00    +0.000 OA
ATOM     26  C   UNL     1       1.727   4.641  20.687  0.00  0.00    +0.000 C 
ENDBRANCH   5  25
TORSDOF 4
ENDMDL
MODEL 5
REMARK VINA RESULT:      -7.4      1.660      2.361
REMARK  Name = 
REMARK  7 active torsions:
REMARK  status: ('A' for Active; 'I' for Inactive)
REMARK    1  A    between atoms: C_1  and  N_2
REMARK    2  A    between atoms: N_2  and  C_3
REMARK    3  A    between atoms: C_8  and  C_9
REMARK    4  A    between atoms: C_12  and  N_13
REMARK    5  A    between atoms: C_16  and  C_17
REMARK    6  A    between atoms: C_19  and  O_20
REMARK    7  A    between atoms: O_20  and  C_21
REMARK                            x       y       z     vdW  Elec       q    Type
REMARK                         _______ _______ _______ _____ _____    ______ ____
ROOT
ATOM      1  C   UNL     1       1.911   7.973  19.691  0.00  0.00    +0.000 A 
ATOM      2  C   UNL     1       1.623   8.672  18.518  0.00  0.00    +0.000 A 
ATOM      3  C   UNL     1       0.926   9.874  18.571  0.00  0.00    +0.000 A 
ATOM      4  C   UNL     1       0.544  10.423  19.805  0.00  0.00    +0.000 A 
ATOM      5  C   UNL     1       0.898   9.772  21.005  0.00  0.00    +0.000 A 
ATOM      6  C   UNL     1       1.579   8.545  20.928  0.00  0.00    +0.000 A 
ENDROOT
BRANCH   1  12
ATOM      7  C   UNL     1       4.482   3.815  18.407  0.00  0.00    +0.000 C 
ATOM      8  C   UNL     1       5.462   4.543  17.439  0.00  0.00    +0.000 C 
ATOM      9  C   UNL     1       4.772   5.683  16.653  0.00  0.00    +0.000 C 
ATOM     10  C   UNL     1       4.211   6.766  17.596  0.00  0.00    +0.000 C 
ATOM     11  C   UNL     1       3.455   6.146  18.714  0.00  0.00    +0.000 A 
ATOM     12  C   UNL     1       2.477   6.629  19.623  0.00  0.00    +0.000 A 
ATOM     13  N   UNL     1       2.058   5.634  20.429  0.00  0.00    +0.000 NA
ATOM     14  O   UNL     1       2.769   4.501  20.058  0.00  0.00    +0.000 OA
ATOM     15  C   UNL     1       3.607   4.828  19.053  0.00  0.00    +0.000 A 
BRANCH   7  17
ATOM     16  C   UNL     1       4.403   1.719  19.699  0.00  0.00    +0.000 C 
ATOM     17  N   UNL     1       5.160   2.914  19.348  0.00  0.00    +0.000 NA
ATOM     18  H   UNL     1       6.033   2.614  18.911  0.00  0.00    +0.000 HD
ENDBRANCH   7  17
ENDBRANCH   1  12
BRANCH   4  19
ATOM     19  N   UNL     1      -0.221  11.619  19.779  0.00  0.00    +0.000 N 
ATOM     20  C   UNL     1      -1.587  11.770  19.754  0.00  0.00    +0.000 A 
ATOM     21  N   UNL     1      -1.956  13.034  19.744  0.00  0.00    +0.000 NA
ATOM     22  C   UNL     1      -0.788  13.751  19.754  0.00  0.00    +0.000 A 
ATOM     23  C   UNL     1      -0.792  15.228  19.701  0.00  0.00    +0.000 C 
ATOM     24  C   UNL     1       0.291  12.901  19.790  0.00  0.00    +0.000 A 
ENDBRANCH   4  19
BRANCH   5  25
ATOM     25  O   UNL     1       0.479  10.321  22.186  0.00  0.00    +0.000 OA
ATOM     26  C   UNL     1      -0.417   9.568  22.997  0.00  0.00    +0.000 C 
ENDBRANCH   5  25
TORSDOF 4
ENDMDL
MODEL 6
REMARK VINA RESULT:      -7.3      2.363      3.335
REMARK  Name = 
REMARK  7 active torsions:
REMARK  status: ('A' for Active; 'I' for Inactive)
REMARK    1  A    between atoms: C_1  and  N_2
REMARK    2  A    between atoms: N_2  and  C_3
REMARK    3  A    between atoms: C_8  and  C_9
REMARK    4  A    between atoms: C_12  and  N_13
REMARK    5  A    between atoms: C_16  and  C_17
REMARK    6  A    between atoms: C_19  and  O_20
REMARK    7  A    between atoms: O_20  and  C_21
REMARK                            x       y       z     vdW  Elec       q    Type
REMARK                         _______ _______ _______ _____ _____    ______ ____
ROOT
ATOM      1  C   UNL     1       2.493   7.763  18.888  0.00  0.00    +0.000 A 
ATOM      2  C   UNL     1       2.219   8.581  17.791  0.00  0.00    +0.000 A 
ATOM      3  C   UNL     1       1.164   9.487  17.838  0.00  0.00    +0.000 A 
ATOM      4  C   UNL     1       0.393   9.622  19.003  0.00  0.00    +0.000 A 
ATOM      5  C   UNL     1       0.707   8.862  20.148  0.00  0.00    +0.000 A 
ATOM      6  C   UNL     1       1.759   7.935  20.071  0.00  0.00    +0.000 A 
ENDROOT
BRANCH   1  12
ATOM      7  C   UNL     1       6.062   4.557  17.296  0.00  0.00    +0.000 C 
ATOM      8  C   UNL     1       6.493   5.417  16.071  0.00  0.00    +0.000 C 
ATOM      9  C   UNL     1       5.294   6.130  15.403  0.00  0.00    +0.000 C 
ATOM     10  C   UNL     1       4.589   7.093  16.380  0.00  0.00    +0.000 C 
ATOM     11  C   UNL     1       4.354   6.430  17.688  0.00  0.00    +0.000 A 
ATOM     12  C   UNL     1       3.477   6.690  18.774  0.00  0.00    +0.000 A 
ATOM     13  N   UNL     1       3.618   5.745  19.723  0.00  0.00    +0.000 NA
ATOM     14  O   UNL     1       4.596   4.871  19.267  0.00  0.00    +0.000 OA
ATOM     15  C   UNL     1       5.035   5.305  18.067  0.00  0.00    +0.000 A 
BRANCH   7  17
ATOM     16  C   UNL     1       7.963   5.139  18.751  0.00  0.00    +0.000 C 
ATOM     17  N   UNL     1       7.195   4.084  18.101  0.00  0.00    +0.000 NA
ATOM     18  H   UNL     1       6.821   3.474  18.830  0.00  0.00    +0.000 HD
ENDBRANCH   7  17
ENDBRANCH   1  12
BRANCH   4  19
ATOM     19  N   UNL     1      -0.708  10.519  18.957  0.00  0.00    +0.000 N 
ATOM     20  C   UNL     1      -0.822  11.774  19.507  0.00  0.00    +0.000 A 
ATOM     21  N   UNL     1      -1.990  12.329  19.258  0.00  0.00    +0.000 NA
ATOM     22  C   UNL     1      -2.682  11.403  18.522  0.00  0.00    +0.000 A 
ATOM     23  C   UNL     1      -4.072  11.650  18.085  0.00  0.00    +0.000 C 
ATOM     24  C   UNL     1      -1.906  10.288  18.312  0.00  0.00    +0.000 A 
ENDBRANCH   4  19
BRANCH   5  25
ATOM     25  O   UNL     1      -0.090   8.999  21.253  0.00  0.00    +0.000 OA
ATOM     26  C   UNL     1       0.466   9.613  22.411  0.00  0.00    +0.000 C 
ENDBRANCH   5  25
TORSDOF 4
ENDMDL
MODEL 7
REMARK VINA RESULT:      -7.2      1.815      8.386
REMARK  Name = 
REMARK  7 active torsions:
REMARK  status: ('A' for Active; 'I' for Inactive)
REMARK    1  A    between atoms: C_1  and  N_2
REMARK    2  A    between atoms: N_2  and  C_3
REMARK    3  A    between atoms: C_8  and  C_9
REMARK    4  A    between atoms: C_12  and  N_13
REMARK    5  A    between atoms: C_16  and  C_17
REMARK    6  A    between atoms: C_19  and  O_20
REMARK    7  A    between atoms: O_20  and  C_21
REMARK                            x       y       z     vdW  Elec       q    Type
REMARK                         _______ _______ _______ _____ _____    ______ ____
ROOT
ATOM      1  C   UNL     1       1.476   8.773  19.508  0.00  0.00    +0.000 A 
ATOM      2  C   UNL     1       1.469   7.860  20.563  0.00  0.00    +0.000 A 
ATOM      3  C   UNL     1       2.117   6.636  20.437  0.00  0.00    +0.000 A 
ATOM      4  C   UNL     1       2.825   6.322  19.266  0.00  0.00    +0.000 A 
ATOM      5  C   UNL     1       2.912   7.266  18.222  0.00  0.00    +0.000 A 
ATOM      6  C   UNL     1       2.228   8.485  18.359  0.00  0.00    +0.000 A 
ENDROOT
BRANCH   1  12
ATOM      7  C   UNL     1      -1.997  12.357  18.709  0.00  0.00    +0.000 C 
ATOM      8  C   UNL     1      -2.905  11.478  17.797  0.00  0.00    +0.000 C 
ATOM      9  C   UNL     1      -2.084  10.534  16.887  0.00  0.00    +0.000 C 
ATOM     10  C   UNL     1      -1.223   9.556  17.710  0.00  0.00    +0.000 C 
ATOM     11  C   UNL     1      -0.496  10.278  18.786  0.00  0.00    +0.000 A 
ATOM     12  C   UNL     1       0.647   9.973  19.571  0.00  0.00    +0.000 A 
ATOM     13  N   UNL     1       0.939  11.003  20.389  0.00  0.00    +0.000 NA
ATOM     14  O   UNL     1      -0.020  11.978  20.151  0.00  0.00    +0.000 OA
ATOM     15  C   UNL     1      -0.875  11.522  19.212  0.00  0.00    +0.000 A 
BRANCH   7  17
ATOM     16  C   UNL     1      -4.108  12.598  19.956  0.00  0.00    +0.000 C 
ATOM     17  N   UNL     1      -2.741  13.064  19.758  0.00  0.00    +0.000 NA
ATOM     18  H   UNL     1      -2.235  12.931  20.636  0.00  0.00    +0.000 HD
ENDBRANCH   7  17
ENDBRANCH   1  12
BRANCH   4  19
ATOM     19  N   UNL     1       3.408   5.030  19.182  0.00  0.00    +0.000 N 
ATOM     20  C   UNL     1       4.671   4.627  19.544  0.00  0.00    +0.000 A 
ATOM     21  N   UNL     1       4.871   3.343  19.333  0.00  0.00    +0.000 NA
ATOM     22  C   UNL     1       3.698   2.876  18.802  0.00  0.00    +0.000 A 
ATOM     23  C   UNL     1       3.548   1.465  18.386  0.00  0.00    +0.000 C 
ATOM     24  C   UNL     1       2.779   3.894  18.713  0.00  0.00    +0.000 A 
ENDBRANCH   4  19
BRANCH   5  25
ATOM     25  O   UNL     1       3.583   6.909  17.083  0.00  0.00    +0.000 OA
ATOM     26  C   UNL     1       4.986   7.142  17.029  0.00  0.00    +0.000 C 
ENDBRANCH   5  25
TORSDOF 4
ENDMDL
MODEL 8
REMARK VINA RESULT:      -7.2      1.897      2.631
REMARK  Name = 
REMARK  7 active torsions:
REMARK  status: ('A' for Active; 'I' for Inactive)
REMARK    1  A    between atoms: C_1  and  N_2
REMARK    2  A    between atoms: N_2  and  C_3
REMARK    3  A    between atoms: C_8  and  C_9
REMARK    4  A    between atoms: C_12  and  N_13
REMARK    5  A    between atoms: C_16  and  C_17
REMARK    6  A    between atoms: C_19  and  O_20
REMARK    7  A    between atoms: O_20  and  C_21
REMARK                            x       y       z     vdW  Elec       q    Type
REMARK                         _______ _______ _______ _____ _____    ______ ____
ROOT
ATOM      1  C   UNL     1       1.890   7.904  19.665  0.00  0.00    +0.000 A 
ATOM      2  C   UNL     1       1.646   8.777  18.605  0.00  0.00    +0.000 A 
ATOM      3  C   UNL     1       1.086  10.028  18.841  0.00  0.00    +0.000 A 
ATOM      4  C   UNL     1       0.802  10.446  20.150  0.00  0.00    +0.000 A 
ATOM      5  C   UNL     1       1.118   9.610  21.241  0.00  0.00    +0.000 A 
ATOM      6  C   UNL     1       1.659   8.340  20.979  0.00  0.00    +0.000 A 
ENDROOT
BRANCH   1  12
ATOM      7  C   UNL     1       4.092   3.726  17.863  0.00  0.00    +0.000 C 
ATOM      8  C   UNL     1       5.240   4.475  17.124  0.00  0.00    +0.000 C 
ATOM      9  C   UNL     1       4.766   5.811  16.503  0.00  0.00    +0.000 C 
ATOM     10  C   UNL     1       4.239   6.782  17.578  0.00  0.00    +0.000 C 
ATOM     11  C   UNL     1       3.309   6.084  18.502  0.00  0.00    +0.000 A 
ATOM     12  C   UNL     1       2.305   6.529  19.403  0.00  0.00    +0.000 A 
ATOM     13  N   UNL     1       1.697   5.475  19.980  0.00  0.00    +0.000 NA
ATOM     14  O   UNL     1       2.310   4.339  19.469  0.00  0.00    +0.000 OA
ATOM     15  C   UNL     1       3.276   4.720  18.609  0.00  0.00    +0.000 A 
BRANCH   7  17
ATOM     16  C   UNL     1       3.765   1.387  18.563  0.00  0.00    +0.000 C 
ATOM     17  N   UNL     1       4.565   2.600  18.677  0.00  0.00    +0.000 NA
ATOM     18  H   UNL     1       5.515   2.379  18.374  0.00  0.00    +0.000 HD
ENDBRANCH   7  17
ENDBRANCH   1  12
BRANCH   4  19
ATOM     19  N   UNL     1       0.171  11.709  20.311  0.00  0.00    +0.000 N 
ATOM     20  C   UNL     1       0.744  12.956  20.392  0.00  0.00    +0.000 A 
ATOM     21  N   UNL     1      -0.149  13.914  20.531  0.00  0.00    +0.000 NA
ATOM     22  C   UNL     1      -1.362  13.276  20.553  0.00  0.00    +0.000 A 
ATOM     23  C   UNL     1      -2.622  14.026  20.744  0.00  0.00    +0.000 C 
ATOM     24  C   UNL     1      -1.189  11.921  20.404  0.00  0.00    +0.000 A 
ENDBRANCH   4  19
BRANCH   5  25
ATOM     25  O   UNL     1       0.795  10.040  22.499  0.00  0.00    +0.000 OA
ATOM     26  C   UNL     1      -0.360   9.488  23.123  0.00  0.00    +0.000 C 
ENDBRANCH   5  25
TORSDOF 4
ENDMDL
MODEL 9
REMARK VINA RESULT:      -7.1      2.499      3.284
REMARK  Name = 
REMARK  7 active torsions:
REMARK  status: ('A' for Active; 'I' for Inactive)
REMARK    1  A    between atoms: C_1  and  N_2
REMARK    2  A    between atoms: N_2  and  C_3
REMARK    3  A    between atoms: C_8  and  C_9
REMARK    4  A    between atoms: C_12  and  N_13
REMARK    5  A    between atoms: C_16  and  C_17
REMARK    6  A    between atoms: C_19  and  O_20
REMARK    7  A    between atoms: O_20  and  C_21
REMARK                            x       y       z     vdW  Elec       q    Type
REMARK                         _______ _______ _______ _____ _____    ______ ____
ROOT
ATOM      1  C   UNL     1       2.078   7.912  19.070  0.00  0.00    +0.000 A 
ATOM      2  C   UNL     1       1.943   7.644  20.433  0.00  0.00    +0.000 A 
ATOM      3  C   UNL     1       1.228   8.513  21.251  0.00  0.00    +0.000 A 
ATOM      4  C   UNL     1       0.596   9.643  20.709  0.00  0.00    +0.000 A 
ATOM      5  C   UNL     1       0.653   9.885  19.321  0.00  0.00    +0.000 A 
ATOM      6  C   UNL     1       1.402   9.010  18.517  0.00  0.00    +0.000 A 
ENDROOT
BRANCH   1  12
ATOM      7  C   UNL     1       4.620   4.128  16.884  0.00  0.00    +0.000 C 
ATOM      8  C   UNL     1       3.661   3.005  17.378  0.00  0.00    +0.000 C 
ATOM      9  C   UNL     1       3.124   3.276  18.804  0.00  0.00    +0.000 C 
ATOM     10  C   UNL     1       2.320   4.590  18.869  0.00  0.00    +0.000 C 
ATOM     11  C   UNL     1       3.056   5.687  18.191  0.00  0.00    +0.000 A 
ATOM     12  C   UNL     1       2.976   7.104  18.250  0.00  0.00    +0.000 A 
ATOM     13  N   UNL     1       3.920   7.657  17.464  0.00  0.00    +0.000 NA
ATOM     14  O   UNL     1       4.611   6.605  16.878  0.00  0.00    +0.000 OA
ATOM     15  C   UNL     1       4.071   5.444  17.306  0.00  0.00    +0.000 A 
BRANCH   7  17
ATOM     16  C   UNL     1       6.356   4.073  15.138  0.00  0.00    +0.000 C 
ATOM     17  N   UNL     1       4.934   4.035  15.454  0.00  0.00    +0.000 NA
ATOM     18  H   UNL     1       4.562   3.146  15.114  0.00  0.00    +0.000 HD
ENDBRANCH   7  17
ENDBRANCH   1  12
BRANCH   4  19
ATOM     19  N   UNL     1      -0.062  10.520  21.613  0.00  0.00    +0.000 N 
ATOM     20  C   UNL     1      -0.800  10.212  22.731  0.00  0.00    +0.000 A 
ATOM     21  N   UNL     1      -1.260  11.284  23.343  0.00  0.00    +0.000 NA
ATOM     22  C   UNL     1      -0.817  12.344  22.596  0.00  0.00    +0.000 A 
ATOM     23  C   UNL     1      -1.174  13.735  22.948  0.00  0.00    +0.000 C 
ATOM     24  C   UNL     1      -0.066  11.898  21.536  0.00  0.00    +0.000 A 
ENDBRANCH   4  19
BRANCH   5  25
ATOM     25  O   UNL     1       0.052  11.015  18.837  0.00  0.00    +0.000 OA
ATOM     26  C   UNL     1      -1.193  10.878  18.160  0.00  0.00    +0.000 C 
ENDBRANCH   5  25
TORSDOF 4
ENDMDL
