MODEL 1
REMARK VINA RESULT:      -7.3      0.000      0.000
REMARK  Name = 
REMARK  5 active torsions:
REMARK  status: ('A' for Active; 'I' for Inactive)
REMARK    1  A    between atoms: C_1  and  O_2
REMARK    2  A    between atoms: O_2  and  C_3
REMARK    3  A    between atoms: C_8  and  O_9
REMARK    4  A    between atoms: O_9  and  C_10
REMARK    5  A    between atoms: C_14  and  C_15
REMARK                            x       y       z     vdW  Elec       q    Type
REMARK                         _______ _______ _______ _____ _____    ______ ____
ROOT
ATOM      1  C   UNL     1      -0.792  11.385  20.998  0.00  0.00    +0.000 A 
ATOM      2  C   UNL     1      -0.438  10.061  21.292  0.00  0.00    +0.000 A 
ATOM      3  C   UNL     1       0.443   9.347  20.471  0.00  0.00    +0.000 A 
ATOM      4  C   UNL     1       0.953   9.972  19.323  0.00  0.00    +0.000 A 
ATOM      5  C   UNL     1       0.624  11.305  19.037  0.00  0.00    +0.000 A 
ATOM      6  C   UNL     1      -0.236  12.028  19.877  0.00  0.00    +0.000 A 
ATOM      7  C   UNL     1       1.830   9.224  18.373  0.00  0.00    +0.000 C 
ATOM      8  O   UNL     1       2.207   9.728  17.322  0.00  0.00    +0.000 OA
ATOM      9  C   UNL     1       2.194   7.830  18.769  0.00  0.00    +0.000 C 
ATOM     10  C   UNL     1       2.476   6.951  17.791  0.00  0.00    +0.000 C 
ATOM     11  C   UNL     1       2.160   7.556  20.246  0.00  0.00    +0.000 C 
ATOM     12  C   UNL     1       0.788   7.920  20.801  0.00  0.00    +0.000 C 
ENDROOT
BRANCH  10  13
ATOM     13  C   UNL     1       2.742   5.538  18.062  0.00  0.00    +0.000 A 
ATOM     14  C   UNL     1       4.046   5.127  18.368  0.00  0.00    +0.000 A 
ATOM     15  C   UNL     1       4.337   3.769  18.512  0.00  0.00    +0.000 A 
ATOM     16  C   UNL     1       3.324   2.825  18.353  0.00  0.00    +0.000 A 
ATOM     17 CL   UNL     1       3.692   1.150  18.486  0.00  0.00    +0.000 Cl
ATOM     18  C   UNL     1       2.020   3.227  18.070  0.00  0.00    +0.000 A 
ATOM     19  C   UNL     1       1.728   4.585  17.926  0.00  0.00    +0.000 A 
ENDBRANCH  10  13
BRANCH   1  21
ATOM     20  C   UNL     1      -1.587  11.392  23.238  0.00  0.00    +0.000 C 
ATOM     21  O   UNL     1      -1.648  11.931  21.922  0.00  0.00    +0.000 OA
ENDBRANCH   1  21
BRANCH   6  22
ATOM     22  O   UNL     1      -0.554  13.345  19.680  0.00  0.00    +0.000 OA
ATOM     23  C   UNL     1       0.476  14.316  19.807  0.00  0.00    +0.000 C 
ENDBRANCH   6  22
TORSDOF 3
ENDMDL
MODEL 2
REMARK VINA RESULT:      -7.2      2.197      3.325
REMARK  Name = 
REMARK  5 active torsions:
REMARK  status: ('A' for Active; 'I' for Inactive)
REMARK    1  A    between atoms: C_1  and  O_2
REMARK    2  A    between atoms: O_2  and  C_3
REMARK    3  A    between atoms: C_8  and  O_9
REMARK    4  A    between atoms: O_9  and  C_10
REMARK    5  A    between atoms: C_14  and  C_15
REMARK                            x       y       z     vdW  Elec       q    Type
REMARK                         _______ _______ _______ _____ _____    ______ ____
ROOT
ATOM      1  C   UNL     1       0.212  11.335  19.917  0.00  0.00    +0.000 A 
ATOM      2  C   UNL     1       0.982  10.863  18.845  0.00  0.00    +0.000 A 
ATOM      3  C   UNL     1       1.492   9.559  18.838  0.00  0.00    +0.000 A 
ATOM      4  C   UNL     1       1.241   8.730  19.942  0.00  0.00    +0.000 A 
ATOM      5  C   UNL     1       0.450   9.187  21.005  0.00  0.00    +0.000 A 
ATOM      6  C   UNL     1      -0.085  10.484  20.997  0.00  0.00    +0.000 A 
ATOM      7  C   UNL     1       1.834   7.361  20.018  0.00  0.00    +0.000 C 
ATOM      8  O   UNL     1       1.698   6.662  21.015  0.00  0.00    +0.000 OA
ATOM      9  C   UNL     1       2.613   6.911  18.825  0.00  0.00    +0.000 C 
ATOM     10  C   UNL     1       3.587   6.004  19.014  0.00  0.00    +0.000 C 
ATOM     11  C   UNL     1       2.237   7.574  17.530  0.00  0.00    +0.000 C 
ATOM     12  C   UNL     1       2.333   9.087  17.683  0.00  0.00    +0.000 C 
ENDROOT
BRANCH  10  13
ATOM     13  C   UNL     1       4.477   5.575  17.935  0.00  0.00    +0.000 A 
ATOM     14  C   UNL     1       5.591   6.357  17.606  0.00  0.00    +0.000 A 
ATOM     15  C   UNL     1       6.380   6.025  16.503  0.00  0.00    +0.000 A 
ATOM     16  C   UNL     1       6.056   4.909  15.733  0.00  0.00    +0.000 A 
ATOM     17 CL   UNL     1       7.001   4.525  14.348  0.00  0.00    +0.000 Cl
ATOM     18  C   UNL     1       4.961   4.113  16.068  0.00  0.00    +0.000 A 
ATOM     19  C   UNL     1       4.171   4.444  17.170  0.00  0.00    +0.000 A 
ENDBRANCH  10  13
BRANCH   1  21
ATOM     20  C   UNL     1      -1.084  12.861  18.636  0.00  0.00    +0.000 C 
ATOM     21  O   UNL     1      -0.219  12.626  19.742  0.00  0.00    +0.000 OA
ENDBRANCH   1  21
BRANCH   6  22
ATOM     22  O   UNL     1      -0.906  10.970  21.979  0.00  0.00    +0.000 OA
ATOM     23  C   UNL     1      -0.916  10.314  23.239  0.00  0.00    +0.000 C 
ENDBRANCH   6  22
TORSDOF 3
ENDMDL
MODEL 3
REMARK VINA RESULT:      -7.2      1.953      3.193
REMARK  Name = 
REMARK  5 active torsions:
REMARK  status: ('A' for Active; 'I' for Inactive)
REMARK    1  A    between atoms: C_1  and  O_2
REMARK    2  A    between atoms: O_2  and  C_3
REMARK    3  A    between atoms: C_8  and  O_9
REMARK    4  A    between atoms: O_9  and  C_10
REMARK    5  A    between atoms: C_14  and  C_15
REMARK                            x       y       z     vdW  Elec       q    Type
REMARK                         _______ _______ _______ _____ _____    ______ ____
ROOT
ATOM      1  C   UNL     1       0.317  12.174  20.157  0.00  0.00    +0.000 A 
ATOM      2  C   UNL     1       0.898  11.592  19.021  0.00  0.00    +0.000 A 
ATOM      3  C   UNL     1       1.289  10.248  19.016  0.00  0.00    +0.000 A 
ATOM      4  C   UNL     1       1.114   9.489  20.183  0.00  0.00    +0.000 A 
ATOM      5  C   UNL     1       0.510  10.057  21.314  0.00  0.00    +0.000 A 
ATOM      6  C   UNL     1       0.092  11.396  21.308  0.00  0.00    +0.000 A 
ATOM      7  C   UNL     1       1.592   8.075  20.253  0.00  0.00    +0.000 C 
ATOM      8  O   UNL     1       1.528   7.432  21.293  0.00  0.00    +0.000 OA
ATOM      9  C   UNL     1       2.167   7.510  18.994  0.00  0.00    +0.000 C 
ATOM     10  C   UNL     1       3.077   6.525  19.105  0.00  0.00    +0.000 C 
ATOM     11  C   UNL     1       1.683   8.154  17.726  0.00  0.00    +0.000 C 
ATOM     12  C   UNL     1       1.929   9.656  17.789  0.00  0.00    +0.000 C 
ENDROOT
BRANCH  10  13
ATOM     13  C   UNL     1       3.778   5.975  17.945  0.00  0.00    +0.000 A 
ATOM     14  C   UNL     1       3.613   4.624  17.615  0.00  0.00    +0.000 A 
ATOM     15  C   UNL     1       4.366   4.057  16.585  0.00  0.00    +0.000 A 
ATOM     16  C   UNL     1       5.280   4.842  15.884  0.00  0.00    +0.000 A 
ATOM     17 CL   UNL     1       6.240   4.134  14.645  0.00  0.00    +0.000 Cl
ATOM     18  C   UNL     1       5.433   6.193  16.192  0.00  0.00    +0.000 A 
ATOM     19  C   UNL     1       4.681   6.762  17.222  0.00  0.00    +0.000 A 
ENDBRANCH  10  13
BRANCH   1  21
ATOM     20  C   UNL     1       1.027  14.362  19.561  0.00  0.00    +0.000 C 
ATOM     21  O   UNL     1      -0.020  13.492  19.973  0.00  0.00    +0.000 OA
ENDBRANCH   1  21
BRANCH   6  22
ATOM     22  O   UNL     1      -0.549  11.993  22.360  0.00  0.00    +0.000 OA
ATOM     23  C   UNL     1      -1.469  11.220  23.118  0.00  0.00    +0.000 C 
ENDBRANCH   6  22
TORSDOF 3
ENDMDL
MODEL 4
REMARK VINA RESULT:      -7.2      4.340      6.552
REMARK  Name = 
REMARK  5 active torsions:
REMARK  status: ('A' for Active; 'I' for Inactive)
REMARK    1  A    between atoms: C_1  and  O_2
REMARK    2  A    between atoms: O_2  and  C_3
REMARK    3  A    between atoms: C_8  and  O_9
REMARK    4  A    between atoms: O_9  and  C_10
REMARK    5  A    between atoms: C_14  and  C_15
REMARK                            x       y       z     vdW  Elec       q    Type
REMARK                         _______ _______ _______ _____ _____    ______ ____
ROOT
ATOM      1  C   UNL     1       1.753   4.470  20.097  0.00  0.00    +0.000 A 
ATOM      2  C   UNL     1       2.340   3.658  19.116  0.00  0.00    +0.000 A 
ATOM      3  C   UNL     1       3.233   4.187  18.177  0.00  0.00    +0.000 A 
ATOM      4  C   UNL     1       3.517   5.561  18.214  0.00  0.00    +0.000 A 
ATOM      5  C   UNL     1       2.953   6.374  19.208  0.00  0.00    +0.000 A 
ATOM      6  C   UNL     1       2.081   5.836  20.166  0.00  0.00    +0.000 A 
ATOM      7  C   UNL     1       4.397   6.187  17.182  0.00  0.00    +0.000 C 
ATOM      8  O   UNL     1       4.579   7.398  17.149  0.00  0.00    +0.000 OA
ATOM      9  C   UNL     1       5.016   5.256  16.191  0.00  0.00    +0.000 C 
ATOM     10  C   UNL     1       5.331   5.746  14.978  0.00  0.00    +0.000 C 
ATOM     11  C   UNL     1       5.179   3.838  16.661  0.00  0.00    +0.000 C 
ATOM     12  C   UNL     1       3.832   3.296  17.123  0.00  0.00    +0.000 C 
ENDROOT
BRANCH  10  13
ATOM     13  C   UNL     1       5.843   4.899  13.902  0.00  0.00    +0.000 A 
ATOM     14  C   UNL     1       4.987   3.984  13.276  0.00  0.00    +0.000 A 
ATOM     15  C   UNL     1       5.490   3.087  12.331  0.00  0.00    +0.000 A 
ATOM     16  C   UNL     1       6.846   3.108  12.011  0.00  0.00    +0.000 A 
ATOM     17 CL   UNL     1       7.474   1.973  10.881  0.00  0.00    +0.000 Cl
ATOM     18  C   UNL     1       7.700   4.030  12.614  0.00  0.00    +0.000 A 
ATOM     19  C   UNL     1       7.199   4.927  13.559  0.00  0.00    +0.000 A 
ENDBRANCH  10  13
BRANCH   1  21
ATOM     20  C   UNL     1       1.471   2.621  21.563  0.00  0.00    +0.000 C 
ATOM     21  O   UNL     1       0.922   3.777  20.941  0.00  0.00    +0.000 OA
ENDBRANCH   1  21
BRANCH   6  22
ATOM     22  O   UNL     1       1.540   6.566  21.191  0.00  0.00    +0.000 OA
ATOM     23  C   UNL     1       1.319   7.955  20.990  0.00  0.00    +0.000 C 
ENDBRANCH   6  22
TORSDOF 3
ENDMDL
MODEL 5
REMARK VINA RESULT:      -7.2      1.941      3.107
REMARK  Name = 
REMARK  5 active torsions:
REMARK  status: ('A' for Active; 'I' for Inactive)
REMARK    1  A    between atoms: C_1  and  O_2
REMARK    2  A    between atoms: O_2  and  C_3
REMARK    3  A    between atoms: C_8  and  O_9
REMARK    4  A    between atoms: O_9  and  C_10
REMARK    5  A    between atoms: C_14  and  C_15
REMARK                            x       y       z     vdW  Elec       q    Type
REMARK                         _______ _______ _______ _____ _____    ______ ____
ROOT
ATOM      1  C   UNL     1       0.269  12.174  19.941  0.00  0.00    +0.000 A 
ATOM      2  C   UNL     1       0.925  11.566  18.862  0.00  0.00    +0.000 A 
ATOM      3  C   UNL     1       1.321  10.224  18.918  0.00  0.00    +0.000 A 
ATOM      4  C   UNL     1       1.073   9.496  20.091  0.00  0.00    +0.000 A 
ATOM      5  C   UNL     1       0.394  10.091  21.164  0.00  0.00    +0.000 A 
ATOM      6  C   UNL     1      -0.028  11.427  21.094  0.00  0.00    +0.000 A 
ATOM      7  C   UNL     1       1.551   8.087  20.231  0.00  0.00    +0.000 C 
ATOM      8  O   UNL     1       1.421   7.471  21.282  0.00  0.00    +0.000 OA
ATOM      9  C   UNL     1       2.210   7.492  19.028  0.00  0.00    +0.000 C 
ATOM     10  C   UNL     1       3.114   6.516  19.225  0.00  0.00    +0.000 C 
ATOM     11  C   UNL     1       1.808   8.099  17.714  0.00  0.00    +0.000 C 
ATOM     12  C   UNL     1       2.042   9.604  17.752  0.00  0.00    +0.000 C 
ENDROOT
BRANCH  10  13
ATOM     13  C   UNL     1       3.892   5.939  18.129  0.00  0.00    +0.000 A 
ATOM     14  C   UNL     1       4.760   6.755  17.393  0.00  0.00    +0.000 A 
ATOM     15  C   UNL     1       5.418   6.248  16.271  0.00  0.00    +0.000 A 
ATOM     16  C   UNL     1       5.209   4.924  15.888  0.00  0.00    +0.000 A 
ATOM     17 CL   UNL     1       5.983   4.312  14.479  0.00  0.00    +0.000 Cl
ATOM     18  C   UNL     1       4.363   4.099  16.627  0.00  0.00    +0.000 A 
ATOM     19  C   UNL     1       3.704   4.606  17.750  0.00  0.00    +0.000 A 
ENDBRANCH  10  13
BRANCH   1  21
ATOM     20  C   UNL     1       1.014  14.360  19.377  0.00  0.00    +0.000 C 
ATOM     21  O   UNL     1      -0.061  13.485  19.699  0.00  0.00    +0.000 OA
ENDBRANCH   1  21
BRANCH   6  22
ATOM     22  O   UNL     1      -0.740  12.048  22.086  0.00  0.00    +0.000 OA
ATOM     23  C   UNL     1      -1.386  11.242  23.061  0.00  0.00    +0.000 C 
ENDBRANCH   6  22
TORSDOF 3
ENDMDL
MODEL 6
REMARK VINA RESULT:      -7.1      0.787      1.253
REMARK  Name = 
REMARK  5 active torsions:
REMARK  status: ('A' for Active; 'I' for Inactive)
REMARK    1  A    between atoms: C_1  and  O_2
REMARK    2  A    between atoms: O_2  and  C_3
REMARK    3  A    between atoms: C_8  and  O_9
REMARK    4  A    between atoms: O_9  and  C_10
REMARK    5  A    between atoms: C_14  and  C_15
REMARK                            x       y       z     vdW  Elec       q    Type
REMARK                         _______ _______ _______ _____ _____    ______ ____
ROOT
ATOM      1  C   UNL     1      -0.087  10.986  21.970  0.00  0.00    +0.000 A 
ATOM      2  C   UNL     1       0.322   9.647  22.052  0.00  0.00    +0.000 A 
ATOM      3  C   UNL     1       0.962   9.018  20.977  0.00  0.00    +0.000 A 
ATOM      4  C   UNL     1       1.170   9.746  19.795  0.00  0.00    +0.000 A 
ATOM      5  C   UNL     1       0.787  11.092  19.716  0.00  0.00    +0.000 A 
ATOM      6  C   UNL     1       0.172  11.729  20.804  0.00  0.00    +0.000 A 
ATOM      7  C   UNL     1       1.772   9.094  18.594  0.00  0.00    +0.000 C 
ATOM      8  O   UNL     1       1.875   9.691  17.529  0.00  0.00    +0.000 OA
ATOM      9  C   UNL     1       2.216   7.677  18.765  0.00  0.00    +0.000 C 
ATOM     10  C   UNL     1       2.236   6.888  17.676  0.00  0.00    +0.000 C 
ATOM     11  C   UNL     1       2.555   7.279  20.174  0.00  0.00    +0.000 C 
ATOM     12  C   UNL     1       1.370   7.574  21.086  0.00  0.00    +0.000 C 
ENDROOT
BRANCH  10  13
ATOM     13  C   UNL     1       2.553   5.462  17.750  0.00  0.00    +0.000 A 
ATOM     14  C   UNL     1       1.546   4.547  18.083  0.00  0.00    +0.000 A 
ATOM     15  C   UNL     1       1.859   3.200  18.274  0.00  0.00    +0.000 A 
ATOM     16  C   UNL     1       3.176   2.768  18.128  0.00  0.00    +0.000 A 
ATOM     17 CL   UNL     1       3.569   1.117  18.407  0.00  0.00    +0.000 Cl
ATOM     18  C   UNL     1       4.180   3.669  17.775  0.00  0.00    +0.000 A 
ATOM     19  C   UNL     1       3.869   5.017  17.585  0.00  0.00    +0.000 A 
ENDBRANCH  10  13
BRANCH   1  21
ATOM     20  C   UNL     1      -2.086  11.635  23.078  0.00  0.00    +0.000 C 
ATOM     21  O   UNL     1      -0.678  11.439  23.123  0.00  0.00    +0.000 OA
ENDBRANCH   1  21
BRANCH   6  22
ATOM     22  O   UNL     1      -0.177  13.053  20.807  0.00  0.00    +0.000 OA
ATOM     23  C   UNL     1       0.838  14.019  21.043  0.00  0.00    +0.000 C 
ENDBRANCH   6  22
TORSDOF 3
ENDMDL
MODEL 7
REMARK VINA RESULT:      -7.1      4.386      6.500
REMARK  Name = 
REMARK  5 active torsions:
REMARK  status: ('A' for Active; 'I' for Inactive)
REMARK    1  A    between atoms: C_1  and  O_2
REMARK    2  A    between atoms: O_2  and  C_3
REMARK    3  A    between atoms: C_8  and  O_9
REMARK    4  A    between atoms: O_9  and  C_10
REMARK    5  A    between atoms: C_14  and  C_15
REMARK                            x       y       z     vdW  Elec       q    Type
REMARK                         _______ _______ _______ _____ _____    ______ ____
ROOT
ATOM      1  C   UNL     1       1.765   4.521  20.116  0.00  0.00    +0.000 A 
ATOM      2  C   UNL     1       2.402   3.674  19.197  0.00  0.00    +0.000 A 
ATOM      3  C   UNL     1       3.288   4.180  18.239  0.00  0.00    +0.000 A 
ATOM      4  C   UNL     1       3.515   5.564  18.193  0.00  0.00    +0.000 A 
ATOM      5  C   UNL     1       2.902   6.414  19.125  0.00  0.00    +0.000 A 
ATOM      6  C   UNL     1       2.037   5.901  20.103  0.00  0.00    +0.000 A 
ATOM      7  C   UNL     1       4.387   6.160  17.136  0.00  0.00    +0.000 C 
ATOM      8  O   UNL     1       4.520   7.373  17.029  0.00  0.00    +0.000 OA
ATOM      9  C   UNL     1       5.061   5.195  16.215  0.00  0.00    +0.000 C 
ATOM     10  C   UNL     1       5.376   5.620  14.979  0.00  0.00    +0.000 C 
ATOM     11  C   UNL     1       5.272   3.817  16.777  0.00  0.00    +0.000 C 
ATOM     12  C   UNL     1       3.941   3.249  17.253  0.00  0.00    +0.000 C 
ENDROOT
BRANCH  10  13
ATOM     13  C   UNL     1       5.941   4.729  13.966  0.00  0.00    +0.000 A 
ATOM     14  C   UNL     1       7.268   4.904  13.555  0.00  0.00    +0.000 A 
ATOM     15  C   UNL     1       7.783   4.140  12.506  0.00  0.00    +0.000 A 
ATOM     16  C   UNL     1       6.972   3.199  11.872  0.00  0.00    +0.000 A 
ATOM     17 CL   UNL     1       7.593   2.290  10.551  0.00  0.00    +0.000 Cl
ATOM     18  C   UNL     1       5.657   3.004  12.291  0.00  0.00    +0.000 A 
ATOM     19  C   UNL     1       5.140   3.768  13.339  0.00  0.00    +0.000 A 
ENDBRANCH  10  13
BRANCH   1  21
ATOM     20  C   UNL     1       1.482   2.663  21.571  0.00  0.00    +0.000 C 
ATOM     21  O   UNL     1       0.949   3.848  20.990  0.00  0.00    +0.000 OA
ENDBRANCH   1  21
BRANCH   6  22
ATOM     22  O   UNL     1       1.449   6.671  21.071  0.00  0.00    +0.000 OA
ATOM     23  C   UNL     1       1.362   8.073  20.861  0.00  0.00    +0.000 C 
ENDBRANCH   6  22
TORSDOF 3
ENDMDL
MODEL 8
REMARK VINA RESULT:      -7.1      2.678      3.849
REMARK  Name = 
REMARK  5 active torsions:
REMARK  status: ('A' for Active; 'I' for Inactive)
REMARK    1  A    between atoms: C_1  and  O_2
REMARK    2  A    between atoms: O_2  and  C_3
REMARK    3  A    between atoms: C_8  and  O_9
REMARK    4  A    between atoms: O_9  and  C_10
REMARK    5  A    between atoms: C_14  and  C_15
REMARK                            x       y       z     vdW  Elec       q    Type
REMARK                         _______ _______ _______ _____ _____    ______ ____
ROOT
ATOM      1  C   UNL     1       0.365  10.035  20.448  0.00  0.00    +0.000 A 
ATOM      2  C   UNL     1       1.138   9.813  19.299  0.00  0.00    +0.000 A 
ATOM      3  C   UNL     1       1.770   8.584  19.078  0.00  0.00    +0.000 A 
ATOM      4  C   UNL     1       1.639   7.574  20.043  0.00  0.00    +0.000 A 
ATOM      5  C   UNL     1       0.847   7.780  21.181  0.00  0.00    +0.000 A 
ATOM      6  C   UNL     1       0.190   9.002  21.387  0.00  0.00    +0.000 A 
ATOM      7  C   UNL     1       2.364   6.276  19.892  0.00  0.00    +0.000 C 
ATOM      8  O   UNL     1       2.331   5.422  20.770  0.00  0.00    +0.000 OA
ATOM      9  C   UNL     1       3.139   6.096  18.627  0.00  0.00    +0.000 C 
ATOM     10  C   UNL     1       4.202   5.272  18.652  0.00  0.00    +0.000 C 
ATOM     11  C   UNL     1       2.654   6.908  17.460  0.00  0.00    +0.000 C 
ATOM     12  C   UNL     1       2.611   8.382  17.846  0.00  0.00    +0.000 C 
ENDROOT
BRANCH  10  13
ATOM     13  C   UNL     1       5.089   5.106  17.501  0.00  0.00    +0.000 A 
ATOM     14  C   UNL     1       6.212   5.933  17.369  0.00  0.00    +0.000 A 
ATOM     15  C   UNL     1       6.999   5.867  16.218  0.00  0.00    +0.000 A 
ATOM     16  C   UNL     1       6.666   4.972  15.203  0.00  0.00    +0.000 A 
ATOM     17 CL   UNL     1       7.609   4.922  13.766  0.00  0.00    +0.000 Cl
ATOM     18  C   UNL     1       5.563   4.130  15.337  0.00  0.00    +0.000 A 
ATOM     19  C   UNL     1       4.774   4.195  16.487  0.00  0.00    +0.000 A 
ENDBRANCH  10  13
BRANCH   1  21
ATOM     20  C   UNL     1      -1.358  11.487  19.691  0.00  0.00    +0.000 C 
ATOM     21  O   UNL     1      -0.194  11.288  20.485  0.00  0.00    +0.000 OA
ENDBRANCH   1  21
BRANCH   6  22
ATOM     22  O   UNL     1      -0.638   9.247  22.449  0.00  0.00    +0.000 OA
ATOM     23  C   UNL     1      -0.055   9.622  23.689  0.00  0.00    +0.000 C 
ENDBRANCH   6  22
TORSDOF 3
ENDMDL
MODEL 9
REMARK VINA RESULT:      -7.0      2.299      3.371
REMARK  Name = 
REMARK  5 active torsions:
REMARK  status: ('A' for Active; 'I' for Inactive)
REMARK    1  A    between atoms: C_1  and  O_2
REMARK    2  A    between atoms: O_2  and  C_3
REMARK    3  A    between atoms: C_8  and  O_9
REMARK    4  A    between atoms: O_9  and  C_10
REMARK    5  A    between atoms: C_14  and  C_15
REMARK                            x       y       z     vdW  Elec       q    Type
REMARK                         _______ _______ _______ _____ _____    ______ ____
ROOT
ATOM      1  C   UNL     1       0.476  11.165  20.903  0.00  0.00    +0.000 A 
ATOM      2  C   UNL     1       1.006  10.792  19.659  0.00  0.00    +0.000 A 
ATOM      3  C   UNL     1       1.457   9.487  19.427  0.00  0.00    +0.000 A 
ATOM      4  C   UNL     1       1.394   8.554  20.473  0.00  0.00    +0.000 A 
ATOM      5  C   UNL     1       0.842   8.914  21.710  0.00  0.00    +0.000 A 
ATOM      6  C   UNL     1       0.364  10.214  21.932  0.00  0.00    +0.000 A 
ATOM      7  C   UNL     1       1.941   7.175  20.298  0.00  0.00    +0.000 C 
ATOM      8  O   UNL     1       1.975   6.381  21.231  0.00  0.00    +0.000 OA
ATOM      9  C   UNL     1       2.456   6.836  18.937  0.00  0.00    +0.000 C 
ATOM     10  C   UNL     1       3.415   5.897  18.843  0.00  0.00    +0.000 C 
ATOM     11  C   UNL     1       1.860   7.633  17.812  0.00  0.00    +0.000 C 
ATOM     12  C   UNL     1       2.040   9.121  18.089  0.00  0.00    +0.000 C 
ENDROOT
BRANCH  10  13
ATOM     13  C   UNL     1       4.062   5.566  17.574  0.00  0.00    +0.000 A 
ATOM     14  C   UNL     1       4.158   4.226  17.177  0.00  0.00    +0.000 A 
ATOM     15  C   UNL     1       4.875   3.885  16.029  0.00  0.00    +0.000 A 
ATOM     16  C   UNL     1       5.493   4.883  15.278  0.00  0.00    +0.000 A 
ATOM     17 CL   UNL     1       6.415   4.459  13.889  0.00  0.00    +0.000 Cl
ATOM     18  C   UNL     1       5.384   6.221  15.654  0.00  0.00    +0.000 A 
ATOM     19  C   UNL     1       4.667   6.564  16.803  0.00  0.00    +0.000 A 
ENDBRANCH  10  13
BRANCH   1  21
ATOM     20  C   UNL     1      -0.621  12.958  19.792  0.00  0.00    +0.000 C 
ATOM     21  O   UNL     1       0.067  12.475  20.941  0.00  0.00    +0.000 OA
ENDBRANCH   1  21
BRANCH   6  22
ATOM     22  O   UNL     1      -0.233  10.611  23.099  0.00  0.00    +0.000 OA
ATOM     23  C   UNL     1      -1.591  11.026  23.057  0.00  0.00    +0.000 C 
ENDBRANCH   6  22
TORSDOF 3
ENDMDL
