MODEL 1
REMARK VINA RESULT:      -8.0      0.000      0.000
REMARK  Name = 
REMARK  8 active torsions:
REMARK  status: ('A' for Active; 'I' for Inactive)
REMARK    1  A    between atoms: C_1  and  O_2
REMARK    2  A    between atoms: O_2  and  C_3
REMARK    3  A    between atoms: C_9  and  O_10
REMARK    4  A    between atoms: O_10  and  C_11
REMARK    5  A    between atoms: C_17  and  C_18
REMARK    6  A    between atoms: C_18  and  C_19
REMARK    7  A    between atoms: C_23  and  O_24
REMARK    8  A    between atoms: O_24  and  C_25
REMARK                            x       y       z     vdW  Elec       q    Type
REMARK                         _______ _______ _______ _____ _____    ______ ____
ROOT
ATOM      1  C   UNL     1       1.569   7.542  20.326  0.00  0.00    +0.000 A 
ATOM      2  C   UNL     1       1.410   6.249  20.854  0.00  0.00    +0.000 A 
ATOM      3  C   UNL     1       2.111   5.152  20.371  0.00  0.00    +0.000 A 
ATOM      4  N   UNL     1       2.000   3.984  21.029  0.00  0.00    +0.000 NA
ATOM      5  C   UNL     1       2.764   2.948  20.629  0.00  0.00    +0.000 A 
ATOM      6  C   UNL     1       3.683   3.033  19.609  0.00  0.00    +0.000 A 
ATOM      7  C   UNL     1       3.809   4.244  18.935  0.00  0.00    +0.000 A 
ATOM      8  C   UNL     1       2.944   5.320  19.259  0.00  0.00    +0.000 A 
ATOM      9  C   UNL     1       2.895   6.563  18.583  0.00  0.00    +0.000 A 
ATOM     10  C   UNL     1       2.289   7.692  19.141  0.00  0.00    +0.000 A 
ENDROOT
BRANCH   1  12
ATOM     11  C   UNL     1      -0.249   8.435  21.560  0.00  0.00    +0.000 C 
ATOM     12  O   UNL     1       1.016   8.639  20.927  0.00  0.00    +0.000 OA
ENDBRANCH   1  12
BRANCH  10  13
ATOM     13  O   UNL     1       2.570   8.816  18.419  0.00  0.00    +0.000 OA
ATOM     14  C   UNL     1       1.524   9.541  17.797  0.00  0.00    +0.000 C 
ENDBRANCH  10  13
BRANCH   7  15
ATOM     15  O   UNL     1       4.803   4.238  17.976  0.00  0.00    +0.000 OA
BRANCH  15  16
ATOM     16  C   UNL     1       5.952   4.989  18.102  0.00  0.00    +0.000 A 
ATOM     17  C   UNL     1       6.781   4.966  19.233  0.00  0.00    +0.000 A 
ATOM     18  C   UNL     1       7.752   5.956  19.410  0.00  0.00    +0.000 A 
ATOM     19  C   UNL     1       7.954   6.906  18.417  0.00  0.00    +0.000 A 
ATOM     20  F   UNL     1       8.851   7.881  18.609  0.00  0.00    +0.000 F 
ATOM     21  C   UNL     1       7.241   6.854  17.228  0.00  0.00    +0.000 A 
ATOM     22  C   UNL     1       6.256   5.875  17.050  0.00  0.00    +0.000 A 
BRANCH  22  23
ATOM     23  C   UNL     1       5.554   5.845  15.738  0.00  0.00    +0.000 C 
ATOM     24  C   UNL     1       5.663   4.629  14.852  0.00  0.00    +0.000 C 
ATOM     25  O   UNL     1       4.944   6.849  15.369  0.00  0.00    +0.000 OA
ENDBRANCH  22  23
ENDBRANCH  15  16
ENDBRANCH   7  15
TORSDOF 5
ENDMDL
MODEL 2
REMARK VINA RESULT:      -7.3      2.318      6.265
REMARK  Name = 
REMARK  8 active torsions:
REMARK  status: ('A' for Active; 'I' for Inactive)
REMARK    1  A    between atoms: C_1  and  O_2
REMARK    2  A    between atoms: O_2  and  C_3
REMARK    3  A    between atoms: C_9  and  O_10
REMARK    4  A    between atoms: O_10  and  C_11
REMARK    5  A    between atoms: C_17  and  C_18
REMARK    6  A    between atoms: C_18  and  C_19
REMARK    7  A    between atoms: C_23  and  O_24
REMARK    8  A    between atoms: O_24  and  C_25
REMARK                            x       y       z     vdW  Elec       q    Type
REMARK                         _______ _______ _______ _____ _____    ______ ____
ROOT
ATOM      1  C   UNL     1       4.979   4.176  17.124  0.00  0.00    +0.000 A 
ATOM      2  C   UNL     1       3.904   3.427  17.635  0.00  0.00    +0.000 A 
ATOM      3  C   UNL     1       3.031   3.926  18.592  0.00  0.00    +0.000 A 
ATOM      4  N   UNL     1       1.951   3.191  18.916  0.00  0.00    +0.000 NA
ATOM      5  C   UNL     1       1.046   3.722  19.762  0.00  0.00    +0.000 A 
ATOM      6  C   UNL     1       1.145   4.993  20.280  0.00  0.00    +0.000 A 
ATOM      7  C   UNL     1       2.254   5.760  19.936  0.00  0.00    +0.000 A 
ATOM      8  C   UNL     1       3.278   5.192  19.136  0.00  0.00    +0.000 A 
ATOM      9  C   UNL     1       4.502   5.823  18.803  0.00  0.00    +0.000 A 
ATOM     10  C   UNL     1       5.309   5.377  17.753  0.00  0.00    +0.000 A 
ENDROOT
BRANCH   1  12
ATOM     11  C   UNL     1       5.495   4.440  14.825  0.00  0.00    +0.000 C 
ATOM     12  O   UNL     1       5.714   3.746  16.055  0.00  0.00    +0.000 OA
ENDBRANCH   1  12
BRANCH  10  13
ATOM     13  O   UNL     1       6.302   6.271  17.474  0.00  0.00    +0.000 OA
ATOM     14  C   UNL     1       7.484   6.286  18.256  0.00  0.00    +0.000 C 
ENDBRANCH  10  13
BRANCH   7  15
ATOM     15  O   UNL     1       2.221   7.038  20.457  0.00  0.00    +0.000 OA
BRANCH  15  16
ATOM     16  C   UNL     1       1.766   8.118  19.729  0.00  0.00    +0.000 A 
ATOM     17  C   UNL     1       2.171   8.403  18.417  0.00  0.00    +0.000 A 
ATOM     18  C   UNL     1       1.900   9.654  17.856  0.00  0.00    +0.000 A 
ATOM     19  C   UNL     1       1.149  10.579  18.570  0.00  0.00    +0.000 A 
ATOM     20  F   UNL     1       0.931  11.794  18.052  0.00  0.00    +0.000 F 
ATOM     21  C   UNL     1       0.617  10.258  19.811  0.00  0.00    +0.000 A 
ATOM     22  C   UNL     1       0.898   9.011  20.385  0.00  0.00    +0.000 A 
BRANCH  22  23
ATOM     23  C   UNL     1       0.266   8.710  21.699  0.00  0.00    +0.000 C 
ATOM     24  C   UNL     1       0.831   9.311  22.963  0.00  0.00    +0.000 C 
ATOM     25  O   UNL     1      -0.676   7.918  21.738  0.00  0.00    +0.000 OA
ENDBRANCH  22  23
ENDBRANCH  15  16
ENDBRANCH   7  15
TORSDOF 5
ENDMDL
MODEL 3
REMARK VINA RESULT:      -7.2      1.742      2.649
REMARK  Name = 
REMARK  8 active torsions:
REMARK  status: ('A' for Active; 'I' for Inactive)
REMARK    1  A    between atoms: C_1  and  O_2
REMARK    2  A    between atoms: O_2  and  C_3
REMARK    3  A    between atoms: C_9  and  O_10
REMARK    4  A    between atoms: O_10  and  C_11
REMARK    5  A    between atoms: C_17  and  C_18
REMARK    6  A    between atoms: C_18  and  C_19
REMARK    7  A    between atoms: C_23  and  O_24
REMARK    8  A    between atoms: O_24  and  C_25
REMARK                            x       y       z     vdW  Elec       q    Type
REMARK                         _______ _______ _______ _____ _____    ______ ____
ROOT
ATOM      1  C   UNL     1       1.657   6.994  20.197  0.00  0.00    +0.000 A 
ATOM      2  C   UNL     1       1.460   5.711  20.737  0.00  0.00    +0.000 A 
ATOM      3  C   UNL     1       2.338   4.660  20.509  0.00  0.00    +0.000 A 
ATOM      4  N   UNL     1       2.145   3.510  21.180  0.00  0.00    +0.000 NA
ATOM      5  C   UNL     1       3.058   2.528  21.044  0.00  0.00    +0.000 A 
ATOM      6  C   UNL     1       4.201   2.653  20.288  0.00  0.00    +0.000 A 
ATOM      7  C   UNL     1       4.409   3.846  19.603  0.00  0.00    +0.000 A 
ATOM      8  C   UNL     1       3.416   4.857  19.638  0.00  0.00    +0.000 A 
ATOM      9  C   UNL     1       3.454   6.069  18.904  0.00  0.00    +0.000 A 
ATOM     10  C   UNL     1       2.646   7.162  19.228  0.00  0.00    +0.000 A 
ENDROOT
BRANCH   1  12
ATOM     11  C   UNL     1       1.300   8.728  21.775  0.00  0.00    +0.000 C 
ATOM     12  O   UNL     1       0.892   8.062  20.577  0.00  0.00    +0.000 OA
ENDBRANCH   1  12
BRANCH  10  13
ATOM     13  O   UNL     1       3.023   8.280  18.540  0.00  0.00    +0.000 OA
ATOM     14  C   UNL     1       2.095   8.943  17.700  0.00  0.00    +0.000 C 
ENDBRANCH  10  13
BRANCH   7  15
ATOM     15  O   UNL     1       5.614   3.889  18.929  0.00  0.00    +0.000 OA
BRANCH  15  16
ATOM     16  C   UNL     1       5.703   4.250  17.601  0.00  0.00    +0.000 A 
ATOM     17  C   UNL     1       4.869   3.740  16.595  0.00  0.00    +0.000 A 
ATOM     18  C   UNL     1       5.202   3.923  15.250  0.00  0.00    +0.000 A 
ATOM     19  C   UNL     1       6.310   4.691  14.915  0.00  0.00    +0.000 A 
ATOM     20  F   UNL     1       6.655   4.826  13.628  0.00  0.00    +0.000 F 
ATOM     21  C   UNL     1       7.061   5.323  15.896  0.00  0.00    +0.000 A 
ATOM     22  C   UNL     1       6.742   5.131  17.246  0.00  0.00    +0.000 A 
BRANCH  22  23
ATOM     23  C   UNL     1       7.559   5.867  18.250  0.00  0.00    +0.000 C 
ATOM     24  C   UNL     1       7.802   7.347  18.084  0.00  0.00    +0.000 C 
ATOM     25  O   UNL     1       8.078   5.237  19.171  0.00  0.00    +0.000 OA
ENDBRANCH  22  23
ENDBRANCH  15  16
ENDBRANCH   7  15
TORSDOF 5
ENDMDL
MODEL 4
REMARK VINA RESULT:      -7.1      3.535      6.846
REMARK  Name = 
REMARK  8 active torsions:
REMARK  status: ('A' for Active; 'I' for Inactive)
REMARK    1  A    between atoms: C_1  and  O_2
REMARK    2  A    between atoms: O_2  and  C_3
REMARK    3  A    between atoms: C_9  and  O_10
REMARK    4  A    between atoms: O_10  and  C_11
REMARK    5  A    between atoms: C_17  and  C_18
REMARK    6  A    between atoms: C_18  and  C_19
REMARK    7  A    between atoms: C_23  and  O_24
REMARK    8  A    between atoms: O_24  and  C_25
REMARK                            x       y       z     vdW  Elec       q    Type
REMARK                         _______ _______ _______ _____ _____    ______ ____
ROOT
ATOM      1  C   UNL     1       6.931   4.759  14.027  0.00  0.00    +0.000 A 
ATOM      2  C   UNL     1       7.268   5.496  15.176  0.00  0.00    +0.000 A 
ATOM      3  C   UNL     1       6.661   5.285  16.407  0.00  0.00    +0.000 A 
ATOM      4  N   UNL     1       7.146   5.937  17.478  0.00  0.00    +0.000 NA
ATOM      5  C   UNL     1       6.631   5.651  18.690  0.00  0.00    +0.000 A 
ATOM      6  C   UNL     1       5.663   4.694  18.897  0.00  0.00    +0.000 A 
ATOM      7  C   UNL     1       5.169   4.009  17.791  0.00  0.00    +0.000 A 
ATOM      8  C   UNL     1       5.611   4.363  16.491  0.00  0.00    +0.000 A 
ATOM      9  C   UNL     1       5.113   3.821  15.281  0.00  0.00    +0.000 A 
ATOM     10  C   UNL     1       5.803   3.940  14.071  0.00  0.00    +0.000 A 
ENDROOT
BRANCH   1  12
ATOM     11  C   UNL     1       8.587   5.933  12.802  0.00  0.00    +0.000 C 
ATOM     12  O   UNL     1       7.660   4.847  12.874  0.00  0.00    +0.000 OA
ENDBRANCH   1  12
BRANCH  10  13
ATOM     13  O   UNL     1       5.254   3.147  13.105  0.00  0.00    +0.000 OA
ATOM     14  C   UNL     1       4.765   3.723  11.907  0.00  0.00    +0.000 C 
ENDBRANCH  10  13
BRANCH   7  15
ATOM     15  O   UNL     1       4.252   3.029  18.118  0.00  0.00    +0.000 OA
BRANCH  15  16
ATOM     16  C   UNL     1       3.498   3.081  19.272  0.00  0.00    +0.000 A 
ATOM     17  C   UNL     1       3.873   2.469  20.478  0.00  0.00    +0.000 A 
ATOM     18  C   UNL     1       2.938   2.317  21.505  0.00  0.00    +0.000 A 
ATOM     19  C   UNL     1       1.665   2.856  21.362  0.00  0.00    +0.000 A 
ATOM     20  F   UNL     1       0.756   2.667  22.326  0.00  0.00    +0.000 F 
ATOM     21  C   UNL     1       1.326   3.590  20.234  0.00  0.00    +0.000 A 
ATOM     22  C   UNL     1       2.253   3.734  19.195  0.00  0.00    +0.000 A 
BRANCH  22  23
ATOM     23  C   UNL     1       1.846   4.566  18.029  0.00  0.00    +0.000 C 
ATOM     24  C   UNL     1       2.258   6.015  17.957  0.00  0.00    +0.000 C 
ATOM     25  O   UNL     1       1.119   4.068  17.169  0.00  0.00    +0.000 OA
ENDBRANCH  22  23
ENDBRANCH  15  16
ENDBRANCH   7  15
TORSDOF 5
ENDMDL
MODEL 5
REMARK VINA RESULT:      -7.0      2.555      6.311
REMARK  Name = 
REMARK  8 active torsions:
REMARK  status: ('A' for Active; 'I' for Inactive)
REMARK    1  A    between atoms: C_1  and  O_2
REMARK    2  A    between atoms: O_2  and  C_3
REMARK    3  A    between atoms: C_9  and  O_10
REMARK    4  A    between atoms: O_10  and  C_11
REMARK    5  A    between atoms: C_17  and  C_18
REMARK    6  A    between atoms: C_18  and  C_19
REMARK    7  A    between atoms: C_23  and  O_24
REMARK    8  A    between atoms: O_24  and  C_25
REMARK                            x       y       z     vdW  Elec       q    Type
REMARK                         _______ _______ _______ _____ _____    ______ ____
ROOT
ATOM      1  C   UNL     1       6.227   4.779  16.975  0.00  0.00    +0.000 A 
ATOM      2  C   UNL     1       5.052   4.014  16.876  0.00  0.00    +0.000 A 
ATOM      3  C   UNL     1       3.891   4.329  17.571  0.00  0.00    +0.000 A 
ATOM      4  N   UNL     1       2.777   3.624  17.305  0.00  0.00    +0.000 NA
ATOM      5  C   UNL     1       1.626   3.999  17.896  0.00  0.00    +0.000 A 
ATOM      6  C   UNL     1       1.519   5.092  18.726  0.00  0.00    +0.000 A 
ATOM      7  C   UNL     1       2.669   5.830  18.993  0.00  0.00    +0.000 A 
ATOM      8  C   UNL     1       3.915   5.398  18.474  0.00  0.00    +0.000 A 
ATOM      9  C   UNL     1       5.170   5.994  18.754  0.00  0.00    +0.000 A 
ATOM     10  C   UNL     1       6.300   5.759  17.966  0.00  0.00    +0.000 A 
ENDROOT
BRANCH   1  12
ATOM     11  C   UNL     1       7.067   4.801  14.758  0.00  0.00    +0.000 C 
ATOM     12  O   UNL     1       7.297   4.569  16.150  0.00  0.00    +0.000 OA
ENDBRANCH   1  12
BRANCH  10  13
ATOM     13  O   UNL     1       7.315   6.613  18.285  0.00  0.00    +0.000 OA
ATOM     14  C   UNL     1       7.516   7.792  17.526  0.00  0.00    +0.000 C 
ENDBRANCH  10  13
BRANCH   7  15
ATOM     15  O   UNL     1       2.437   6.939  19.782  0.00  0.00    +0.000 OA
BRANCH  15  16
ATOM     16  C   UNL     1       1.996   8.137  19.259  0.00  0.00    +0.000 A 
ATOM     17  C   UNL     1       2.206   8.534  17.930  0.00  0.00    +0.000 A 
ATOM     18  C   UNL     1       1.992   9.863  17.554  0.00  0.00    +0.000 A 
ATOM     19  C   UNL     1       1.482  10.764  18.479  0.00  0.00    +0.000 A 
ATOM     20  F   UNL     1       1.323  12.047  18.131  0.00  0.00    +0.000 F 
ATOM     21  C   UNL     1       1.131  10.352  19.757  0.00  0.00    +0.000 A 
ATOM     22  C   UNL     1       1.358   9.025  20.145  0.00  0.00    +0.000 A 
BRANCH  22  23
ATOM     23  C   UNL     1       0.924   8.633  21.514  0.00  0.00    +0.000 C 
ATOM     24  C   UNL     1      -0.458   8.070  21.734  0.00  0.00    +0.000 C 
ATOM     25  O   UNL     1       1.685   8.837  22.459  0.00  0.00    +0.000 OA
ENDBRANCH  22  23
ENDBRANCH  15  16
ENDBRANCH   7  15
TORSDOF 5
ENDMDL
MODEL 6
REMARK VINA RESULT:      -6.7      3.254      7.296
REMARK  Name = 
REMARK  8 active torsions:
REMARK  status: ('A' for Active; 'I' for Inactive)
REMARK    1  A    between atoms: C_1  and  O_2
REMARK    2  A    between atoms: O_2  and  C_3
REMARK    3  A    between atoms: C_9  and  O_10
REMARK    4  A    between atoms: O_10  and  C_11
REMARK    5  A    between atoms: C_17  and  C_18
REMARK    6  A    between atoms: C_18  and  C_19
REMARK    7  A    between atoms: C_23  and  O_24
REMARK    8  A    between atoms: O_24  and  C_25
REMARK                            x       y       z     vdW  Elec       q    Type
REMARK                         _______ _______ _______ _____ _____    ______ ____
ROOT
ATOM      1  C   UNL     1       6.682   3.992  12.605  0.00  0.00    +0.000 A 
ATOM      2  C   UNL     1       7.358   4.764  13.566  0.00  0.00    +0.000 A 
ATOM      3  C   UNL     1       6.833   5.018  14.826  0.00  0.00    +0.000 A 
ATOM      4  N   UNL     1       7.611   5.647  15.726  0.00  0.00    +0.000 NA
ATOM      5  C   UNL     1       7.145   5.796  16.982  0.00  0.00    +0.000 A 
ATOM      6  C   UNL     1       5.933   5.302  17.405  0.00  0.00    +0.000 A 
ATOM      7  C   UNL     1       5.132   4.640  16.479  0.00  0.00    +0.000 A 
ATOM      8  C   UNL     1       5.544   4.562  15.125  0.00  0.00    +0.000 A 
ATOM      9  C   UNL     1       4.779   4.013  14.066  0.00  0.00    +0.000 A 
ATOM     10  C   UNL     1       5.351   3.649  12.844  0.00  0.00    +0.000 A 
ENDROOT
BRANCH   1  12
ATOM     11  C   UNL     1       7.439   2.186  11.268  0.00  0.00    +0.000 C 
ATOM     12  O   UNL     1       7.285   3.596  11.443  0.00  0.00    +0.000 OA
ENDBRANCH   1  12
BRANCH  10  13
ATOM     13  O   UNL     1       4.475   2.935  12.078  0.00  0.00    +0.000 OA
ATOM     14  C   UNL     1       3.845   3.543  10.965  0.00  0.00    +0.000 C 
ENDBRANCH  10  13
BRANCH   7  15
ATOM     15  O   UNL     1       3.970   4.130  17.024  0.00  0.00    +0.000 OA
BRANCH  15  16
ATOM     16  C   UNL     1       3.210   4.836  17.933  0.00  0.00    +0.000 A 
ATOM     17  C   UNL     1       2.811   6.168  17.750  0.00  0.00    +0.000 A 
ATOM     18  C   UNL     1       2.301   6.900  18.826  0.00  0.00    +0.000 A 
ATOM     19  C   UNL     1       2.107   6.276  20.051  0.00  0.00    +0.000 A 
ATOM     20  F   UNL     1       1.664   6.991  21.093  0.00  0.00    +0.000 F 
ATOM     21  C   UNL     1       2.361   4.921  20.208  0.00  0.00    +0.000 A 
ATOM     22  C   UNL     1       2.886   4.185  19.138  0.00  0.00    +0.000 A 
BRANCH  22  23
ATOM     23  C   UNL     1       3.100   2.727  19.355  0.00  0.00    +0.000 C 
ATOM     24  C   UNL     1       4.365   2.241  20.017  0.00  0.00    +0.000 C 
ATOM     25  O   UNL     1       2.260   1.935  18.929  0.00  0.00    +0.000 OA
ENDBRANCH  22  23
ENDBRANCH  15  16
ENDBRANCH   7  15
TORSDOF 5
ENDMDL
MODEL 7
REMARK VINA RESULT:      -6.7      3.222      5.159
REMARK  Name = 
REMARK  8 active torsions:
REMARK  status: ('A' for Active; 'I' for Inactive)
REMARK    1  A    between atoms: C_1  and  O_2
REMARK    2  A    between atoms: O_2  and  C_3
REMARK    3  A    between atoms: C_9  and  O_10
REMARK    4  A    between atoms: O_10  and  C_11
REMARK    5  A    between atoms: C_17  and  C_18
REMARK    6  A    between atoms: C_18  and  C_19
REMARK    7  A    between atoms: C_23  and  O_24
REMARK    8  A    between atoms: O_24  and  C_25
REMARK                            x       y       z     vdW  Elec       q    Type
REMARK                         _______ _______ _______ _____ _____    ______ ____
ROOT
ATOM      1  C   UNL     1      -0.364  10.118  20.041  0.00  0.00    +0.000 A 
ATOM      2  C   UNL     1       0.444  10.155  18.890  0.00  0.00    +0.000 A 
ATOM      3  C   UNL     1       1.458   9.235  18.657  0.00  0.00    +0.000 A 
ATOM      4  N   UNL     1       2.083   9.263  17.467  0.00  0.00    +0.000 NA
ATOM      5  C   UNL     1       2.990   8.303  17.197  0.00  0.00    +0.000 A 
ATOM      6  C   UNL     1       3.281   7.270  18.059  0.00  0.00    +0.000 A 
ATOM      7  C   UNL     1       2.626   7.233  19.286  0.00  0.00    +0.000 A 
ATOM      8  C   UNL     1       1.748   8.286  19.645  0.00  0.00    +0.000 A 
ATOM      9  C   UNL     1       1.103   8.425  20.899  0.00  0.00    +0.000 A 
ATOM     10  C   UNL     1       0.003   9.266  21.082  0.00  0.00    +0.000 A 
ENDROOT
BRANCH   1  12
ATOM     11  C   UNL     1      -2.042  11.390  18.950  0.00  0.00    +0.000 C 
ATOM     12  O   UNL     1      -1.472  10.909  20.170  0.00  0.00    +0.000 OA
ENDBRANCH   1  12
BRANCH  10  13
ATOM     13  O   UNL     1      -0.586   9.057  22.296  0.00  0.00    +0.000 OA
ATOM     14  C   UNL     1       0.051   9.499  23.481  0.00  0.00    +0.000 C 
ENDBRANCH  10  13
BRANCH   7  15
ATOM     15  O   UNL     1       2.944   6.122  20.044  0.00  0.00    +0.000 OA
BRANCH  15  16
ATOM     16  C   UNL     1       2.496   4.858  19.721  0.00  0.00    +0.000 A 
ATOM     17  C   UNL     1       1.169   4.434  19.884  0.00  0.00    +0.000 A 
ATOM     18  C   UNL     1       0.855   3.074  19.813  0.00  0.00    +0.000 A 
ATOM     19  C   UNL     1       1.847   2.156  19.491  0.00  0.00    +0.000 A 
ATOM     20  F   UNL     1       1.555   0.850  19.472  0.00  0.00    +0.000 F 
ATOM     21  C   UNL     1       3.133   2.576  19.186  0.00  0.00    +0.000 A 
ATOM     22  C   UNL     1       3.458   3.936  19.269  0.00  0.00    +0.000 A 
BRANCH  22  23
ATOM     23  C   UNL     1       4.843   4.329  18.889  0.00  0.00    +0.000 C 
ATOM     24  C   UNL     1       5.274   4.270  17.445  0.00  0.00    +0.000 C 
ATOM     25  O   UNL     1       5.637   4.637  19.778  0.00  0.00    +0.000 OA
ENDBRANCH  22  23
ENDBRANCH  15  16
ENDBRANCH   7  15
TORSDOF 5
ENDMDL
MODEL 8
REMARK VINA RESULT:      -6.6      1.145      1.217
REMARK  Name = 
REMARK  8 active torsions:
REMARK  status: ('A' for Active; 'I' for Inactive)
REMARK    1  A    between atoms: C_1  and  O_2
REMARK    2  A    between atoms: O_2  and  C_3
REMARK    3  A    between atoms: C_9  and  O_10
REMARK    4  A    between atoms: O_10  and  C_11
REMARK    5  A    between atoms: C_17  and  C_18
REMARK    6  A    between atoms: C_18  and  C_19
REMARK    7  A    between atoms: C_23  and  O_24
REMARK    8  A    between atoms: O_24  and  C_25
REMARK                            x       y       z     vdW  Elec       q    Type
REMARK                         _______ _______ _______ _____ _____    ______ ____
ROOT
ATOM      1  C   UNL     1       1.590   6.261  20.460  0.00  0.00    +0.000 A 
ATOM      2  C   UNL     1       1.391   4.869  20.494  0.00  0.00    +0.000 A 
ATOM      3  C   UNL     1       2.117   3.989  19.702  0.00  0.00    +0.000 A 
ATOM      4  N   UNL     1       1.958   2.669  19.904  0.00  0.00    +0.000 NA
ATOM      5  C   UNL     1       2.742   1.816  19.215  0.00  0.00    +0.000 A 
ATOM      6  C   UNL     1       3.727   2.225  18.346  0.00  0.00    +0.000 A 
ATOM      7  C   UNL     1       3.902   3.591  18.144  0.00  0.00    +0.000 A 
ATOM      8  C   UNL     1       3.023   4.510  18.770  0.00  0.00    +0.000 A 
ATOM      9  C   UNL     1       3.024   5.912  18.568  0.00  0.00    +0.000 A 
ATOM     10  C   UNL     1       2.388   6.793  19.447  0.00  0.00    +0.000 A 
ENDROOT
BRANCH   1  12
ATOM     11  C   UNL     1       0.163   8.118  20.831  0.00  0.00    +0.000 C 
ATOM     12  O   UNL     1       1.004   7.096  21.371  0.00  0.00    +0.000 OA
ENDBRANCH   1  12
BRANCH  10  13
ATOM     13  O   UNL     1       2.721   8.090  19.180  0.00  0.00    +0.000 OA
ATOM     14  C   UNL     1       2.345   8.680  17.948  0.00  0.00    +0.000 C 
ENDBRANCH  10  13
BRANCH   7  15
ATOM     15  O   UNL     1       4.957   3.891  17.305  0.00  0.00    +0.000 OA
BRANCH  15  16
ATOM     16  C   UNL     1       6.018   4.676  17.707  0.00  0.00    +0.000 A 
ATOM     17  C   UNL     1       6.414   4.828  19.044  0.00  0.00    +0.000 A 
ATOM     18  C   UNL     1       7.297   5.852  19.400  0.00  0.00    +0.000 A 
ATOM     19  C   UNL     1       7.851   6.656  18.412  0.00  0.00    +0.000 A 
ATOM     20  F   UNL     1       8.658   7.666  18.759  0.00  0.00    +0.000 F 
ATOM     21  C   UNL     1       7.581   6.424  17.071  0.00  0.00    +0.000 A 
ATOM     22  C   UNL     1       6.685   5.410  16.708  0.00  0.00    +0.000 A 
BRANCH  22  23
ATOM     23  C   UNL     1       6.467   5.182  15.253  0.00  0.00    +0.000 C 
ATOM     24  C   UNL     1       5.096   4.814  14.745  0.00  0.00    +0.000 C 
ATOM     25  O   UNL     1       7.434   5.238  14.493  0.00  0.00    +0.000 OA
ENDBRANCH  22  23
ENDBRANCH  15  16
ENDBRANCH   7  15
TORSDOF 5
ENDMDL
MODEL 9
REMARK VINA RESULT:      -6.4      2.979      6.472
REMARK  Name = 
REMARK  8 active torsions:
REMARK  status: ('A' for Active; 'I' for Inactive)
REMARK    1  A    between atoms: C_1  and  O_2
REMARK    2  A    between atoms: O_2  and  C_3
REMARK    3  A    between atoms: C_9  and  O_10
REMARK    4  A    between atoms: O_10  and  C_11
REMARK    5  A    between atoms: C_17  and  C_18
REMARK    6  A    between atoms: C_18  and  C_19
REMARK    7  A    between atoms: C_23  and  O_24
REMARK    8  A    between atoms: O_24  and  C_25
REMARK                            x       y       z     vdW  Elec       q    Type
REMARK                         _______ _______ _______ _____ _____    ______ ____
ROOT
ATOM      1  C   UNL     1       6.349   4.997  16.228  0.00  0.00    +0.000 A 
ATOM      2  C   UNL     1       5.219   4.206  16.498  0.00  0.00    +0.000 A 
ATOM      3  C   UNL     1       4.087   4.706  17.128  0.00  0.00    +0.000 A 
ATOM      4  N   UNL     1       3.003   3.914  17.217  0.00  0.00    +0.000 NA
ATOM      5  C   UNL     1       1.870   4.435  17.728  0.00  0.00    +0.000 A 
ATOM      6  C   UNL     1       1.749   5.747  18.126  0.00  0.00    +0.000 A 
ATOM      7  C   UNL     1       2.866   6.571  18.023  0.00  0.00    +0.000 A 
ATOM      8  C   UNL     1       4.102   6.027  17.592  0.00  0.00    +0.000 A 
ATOM      9  C   UNL     1       5.333   6.727  17.544  0.00  0.00    +0.000 A 
ATOM     10  C   UNL     1       6.423   6.266  16.802  0.00  0.00    +0.000 A 
ENDROOT
BRANCH   1  12
ATOM     11  C   UNL     1       7.125   4.515  14.040  0.00  0.00    +0.000 C 
ATOM     12  O   UNL     1       7.376   4.545  15.447  0.00  0.00    +0.000 OA
ENDBRANCH   1  12
BRANCH  10  13
ATOM     13  O   UNL     1       7.403   7.213  16.718  0.00  0.00    +0.000 OA
ATOM     14  C   UNL     1       7.442   8.279  17.650  0.00  0.00    +0.000 C 
ENDBRANCH  10  13
BRANCH   7  15
ATOM     15  O   UNL     1       2.617   7.880  18.388  0.00  0.00    +0.000 OA
BRANCH  15  16
ATOM     16  C   UNL     1       1.920   8.206  19.532  0.00  0.00    +0.000 A 
ATOM     17  C   UNL     1       1.977   7.463  20.721  0.00  0.00    +0.000 A 
ATOM     18  C   UNL     1       1.034   7.681  21.729  0.00  0.00    +0.000 A 
ATOM     19  C   UNL     1       0.098   8.698  21.586  0.00  0.00    +0.000 A 
ATOM     20  F   UNL     1      -0.835   8.873  22.530  0.00  0.00    +0.000 F 
ATOM     21  C   UNL     1       0.120   9.535  20.480  0.00  0.00    +0.000 A 
ATOM     22  C   UNL     1       1.053   9.313  19.460  0.00  0.00    +0.000 A 
BRANCH  22  23
ATOM     23  C   UNL     1       1.055  10.270  18.319  0.00  0.00    +0.000 C 
ATOM     24  C   UNL     1       1.936  11.493  18.362  0.00  0.00    +0.000 C 
ATOM     25  O   UNL     1       0.281  10.076  17.381  0.00  0.00    +0.000 OA
ENDBRANCH  22  23
ENDBRANCH  15  16
ENDBRANCH   7  15
TORSDOF 5
ENDMDL
