MODEL 1
REMARK VINA RESULT:      -8.4      0.000      0.000
REMARK  Name = 
REMARK  6 active torsions:
REMARK  status: ('A' for Active; 'I' for Inactive)
REMARK    1  A    between atoms: C_1  and  C_2
REMARK    2  A    between atoms: C_7  and  C_8
REMARK    3  A    between atoms: N_10  and  C_11
REMARK    4  A    between atoms: N_10  and  C_12
REMARK    5  A    between atoms: N_15  and  C_16
REMARK    6  A    between atoms: C_19  and  C_20
REMARK                            x       y       z     vdW  Elec       q    Type
REMARK                         _______ _______ _______ _____ _____    ______ ____
ROOT
ATOM      1  C   UNL     1       1.899   2.502  21.947  0.00  0.00    +0.000 C 
ATOM      2  C   UNL     1       2.510   3.436  20.972  0.00  0.00    +0.000 A 
ATOM      3  N   UNL     1       2.099   4.658  20.712  0.00  0.00    +0.000 NA
ATOM      4  C   UNL     1       2.928   5.147  19.716  0.00  0.00    +0.000 A 
ATOM      5  C   UNL     1       2.906   6.378  19.036  0.00  0.00    +0.000 A 
ATOM      6  C   UNL     1       3.865   6.614  18.007  0.00  0.00    +0.000 A 
ATOM      7  C   UNL     1       4.885   5.651  17.737  0.00  0.00    +0.000 A 
ATOM      8  C   UNL     1       4.825   4.396  18.369  0.00  0.00    +0.000 A 
ATOM      9  C   UNL     1       3.874   4.185  19.372  0.00  0.00    +0.000 A 
ATOM     10  N   UNL     1       3.600   3.117  20.193  0.00  0.00    +0.000 N 
ATOM     11  C   UNL     1       4.332   1.874  20.255  0.00  0.00    +0.000 C 
ATOM     12  C   UNL     1       3.736   7.906  17.219  0.00  0.00    +0.000 C 
ATOM     13  C   UNL     1       2.414   8.629  17.468  0.00  0.00    +0.000 C 
ATOM     14  C   UNL     1       2.147   8.618  18.965  0.00  0.00    +0.000 C 
ATOM     15  O   UNL     1       1.911   7.265  19.377  0.00  0.00    +0.000 OA
ENDROOT
BRANCH  14  16
ATOM     16  C   UNL     1       0.963   9.498  19.338  0.00  0.00    +0.000 A 
ATOM     17  C   UNL     1       0.612   9.771  20.671  0.00  0.00    +0.000 A 
ATOM     18  C   UNL     1      -0.456  10.623  20.967  0.00  0.00    +0.000 A 
ATOM     19  C   UNL     1      -1.191  11.205  19.935  0.00  0.00    +0.000 A 
ATOM     20 CL   UNL     1      -2.480  12.289  20.295  0.00  0.00    +0.000 Cl
ATOM     21  C   UNL     1      -0.884  10.921  18.609  0.00  0.00    +0.000 A 
ATOM     22  C   UNL     1       0.184  10.065  18.314  0.00  0.00    +0.000 A 
ENDBRANCH  14  16
BRANCH   7  23
ATOM     23  C   UNL     1       5.937   5.855  16.671  0.00  0.00    +0.000 C 
ATOM     24  O   UNL     1       6.694   6.818  16.805  0.00  0.00    +0.000 OA
ATOM     25  N   UNL     1       6.069   5.023  15.536  0.00  0.00    +0.000 N 
ATOM     26  C   UNL     1       5.562   3.660  15.368  0.00  0.00    +0.000 C 
ATOM     27  C   UNL     1       7.138   5.363  14.601  0.00  0.00    +0.000 C 
ENDBRANCH   7  23
TORSDOF 2
ENDMDL
MODEL 2
REMARK VINA RESULT:      -8.0      0.874      1.306
REMARK  Name = 
REMARK  6 active torsions:
REMARK  status: ('A' for Active; 'I' for Inactive)
REMARK    1  A    between atoms: C_1  and  C_2
REMARK    2  A    between atoms: C_7  and  C_8
REMARK    3  A    between atoms: N_10  and  C_11
REMARK    4  A    between atoms: N_10  and  C_12
REMARK    5  A    between atoms: N_15  and  C_16
REMARK    6  A    between atoms: C_19  and  C_20
REMARK                            x       y       z     vdW  Elec       q    Type
REMARK                         _______ _______ _______ _____ _____    ______ ____
ROOT
ATOM      1  C   UNL     1       1.559   2.550  21.886  0.00  0.00    +0.000 C 
ATOM      2  C   UNL     1       2.144   3.498  20.909  0.00  0.00    +0.000 A 
ATOM      3  N   UNL     1       1.809   4.762  20.764  0.00  0.00    +0.000 NA
ATOM      4  C   UNL     1       2.571   5.252  19.718  0.00  0.00    +0.000 A 
ATOM      5  C   UNL     1       2.581   6.524  19.116  0.00  0.00    +0.000 A 
ATOM      6  C   UNL     1       3.450   6.756  18.009  0.00  0.00    +0.000 A 
ATOM      7  C   UNL     1       4.358   5.740  17.580  0.00  0.00    +0.000 A 
ATOM      8  C   UNL     1       4.261   4.454  18.141  0.00  0.00    +0.000 A 
ATOM      9  C   UNL     1       3.399   4.249  19.223  0.00  0.00    +0.000 A 
ATOM     10  N   UNL     1       3.122   3.152  20.005  0.00  0.00    +0.000 N 
ATOM     11  C   UNL     1       3.755   1.857  19.919  0.00  0.00    +0.000 C 
ATOM     12  C   UNL     1       3.348   8.103  17.314  0.00  0.00    +0.000 C 
ATOM     13  C   UNL     1       2.119   8.904  17.740  0.00  0.00    +0.000 C 
ATOM     14  C   UNL     1       2.000   8.814  19.253  0.00  0.00    +0.000 C 
ATOM     15  O   UNL     1       1.698   7.458  19.608  0.00  0.00    +0.000 OA
ENDROOT
BRANCH  14  16
ATOM     16  C   UNL     1       0.933   9.752  19.797  0.00  0.00    +0.000 A 
ATOM     17  C   UNL     1       0.092  10.508  18.963  0.00  0.00    +0.000 A 
ATOM     18  C   UNL     1      -0.906  11.323  19.506  0.00  0.00    +0.000 A 
ATOM     19  C   UNL     1      -1.069  11.398  20.889  0.00  0.00    +0.000 A 
ATOM     20 CL   UNL     1      -2.325  12.366  21.560  0.00  0.00    +0.000 Cl
ATOM     21  C   UNL     1      -0.225  10.686  21.734  0.00  0.00    +0.000 A 
ATOM     22  C   UNL     1       0.776   9.873  21.189  0.00  0.00    +0.000 A 
ENDBRANCH  14  16
BRANCH   7  23
ATOM     23  C   UNL     1       5.313   5.935  16.425  0.00  0.00    +0.000 C 
ATOM     24  O   UNL     1       4.961   6.705  15.528  0.00  0.00    +0.000 OA
ATOM     25  N   UNL     1       6.553   5.266  16.315  0.00  0.00    +0.000 N 
ATOM     26  C   UNL     1       7.321   4.633  17.390  0.00  0.00    +0.000 C 
ATOM     27  C   UNL     1       7.354   5.568  15.132  0.00  0.00    +0.000 C 
ENDBRANCH   7  23
TORSDOF 2
ENDMDL
MODEL 3
REMARK VINA RESULT:      -8.0      4.483      9.192
REMARK  Name = 
REMARK  6 active torsions:
REMARK  status: ('A' for Active; 'I' for Inactive)
REMARK    1  A    between atoms: C_1  and  C_2
REMARK    2  A    between atoms: C_7  and  C_8
REMARK    3  A    between atoms: N_10  and  C_11
REMARK    4  A    between atoms: N_10  and  C_12
REMARK    5  A    between atoms: N_15  and  C_16
REMARK    6  A    between atoms: C_19  and  C_20
REMARK                            x       y       z     vdW  Elec       q    Type
REMARK                         _______ _______ _______ _____ _____    ______ ____
ROOT
ATOM      1  C   UNL     1      -3.823  10.021  14.801  0.00  0.00    +0.000 C 
ATOM      2  C   UNL     1      -3.175  10.357  16.092  0.00  0.00    +0.000 A 
ATOM      3  N   UNL     1      -2.066   9.827  16.559  0.00  0.00    +0.000 NA
ATOM      4  C   UNL     1      -1.852  10.398  17.802  0.00  0.00    +0.000 A 
ATOM      5  C   UNL     1      -0.843  10.160  18.753  0.00  0.00    +0.000 A 
ATOM      6  C   UNL     1      -0.881  10.867  19.990  0.00  0.00    +0.000 A 
ATOM      7  C   UNL     1      -1.877  11.866  20.220  0.00  0.00    +0.000 A 
ATOM      8  C   UNL     1      -2.922  12.016  19.291  0.00  0.00    +0.000 A 
ATOM      9  C   UNL     1      -2.866  11.309  18.085  0.00  0.00    +0.000 A 
ATOM     10  N   UNL     1      -3.682  11.277  16.980  0.00  0.00    +0.000 N 
ATOM     11  C   UNL     1      -4.862  12.081  16.762  0.00  0.00    +0.000 C 
ATOM     12  C   UNL     1       0.158  10.498  21.035  0.00  0.00    +0.000 C 
ATOM     13  C   UNL     1       0.916   9.216  20.698  0.00  0.00    +0.000 C 
ATOM     14  C   UNL     1       1.297   9.267  19.228  0.00  0.00    +0.000 C 
ATOM     15  O   UNL     1       0.099   9.205  18.443  0.00  0.00    +0.000 OA
ENDROOT
BRANCH  14  16
ATOM     16  C   UNL     1       2.239   8.135  18.844  0.00  0.00    +0.000 A 
ATOM     17  C   UNL     1       3.035   8.171  17.687  0.00  0.00    +0.000 A 
ATOM     18  C   UNL     1       3.920   7.128  17.397  0.00  0.00    +0.000 A 
ATOM     19  C   UNL     1       4.014   6.034  18.257  0.00  0.00    +0.000 A 
ATOM     20 CL   UNL     1       5.135   4.769  17.927  0.00  0.00    +0.000 Cl
ATOM     21  C   UNL     1       3.210   5.961  19.389  0.00  0.00    +0.000 A 
ATOM     22  C   UNL     1       2.322   7.005  19.676  0.00  0.00    +0.000 A 
ENDBRANCH  14  16
BRANCH   7  23
ATOM     23  C   UNL     1      -1.955  12.658  21.505  0.00  0.00    +0.000 C 
ATOM     24  O   UNL     1      -2.724  12.244  22.375  0.00  0.00    +0.000 OA
ATOM     25  N   UNL     1      -1.223  13.845  21.736  0.00  0.00    +0.000 N 
ATOM     26  C   UNL     1      -0.016  14.295  21.039  0.00  0.00    +0.000 C 
ATOM     27  C   UNL     1      -1.418  14.488  23.032  0.00  0.00    +0.000 C 
ENDBRANCH   7  23
TORSDOF 2
ENDMDL
MODEL 4
REMARK VINA RESULT:      -7.4      4.416      9.150
REMARK  Name = 
REMARK  6 active torsions:
REMARK  status: ('A' for Active; 'I' for Inactive)
REMARK    1  A    between atoms: C_1  and  C_2
REMARK    2  A    between atoms: C_7  and  C_8
REMARK    3  A    between atoms: N_10  and  C_11
REMARK    4  A    between atoms: N_10  and  C_12
REMARK    5  A    between atoms: N_15  and  C_16
REMARK    6  A    between atoms: C_19  and  C_20
REMARK                            x       y       z     vdW  Elec       q    Type
REMARK                         _______ _______ _______ _____ _____    ______ ____
ROOT
ATOM      1  C   UNL     1      -4.075   9.821  15.265  0.00  0.00    +0.000 C 
ATOM      2  C   UNL     1      -3.274  10.280  16.424  0.00  0.00    +0.000 A 
ATOM      3  N   UNL     1      -2.150   9.743  16.847  0.00  0.00    +0.000 NA
ATOM      4  C   UNL     1      -1.773  10.458  17.971  0.00  0.00    +0.000 A 
ATOM      5  C   UNL     1      -0.680  10.280  18.840  0.00  0.00    +0.000 A 
ATOM      6  C   UNL     1      -0.546  11.147  19.964  0.00  0.00    +0.000 A 
ATOM      7  C   UNL     1      -1.455  12.233  20.150  0.00  0.00    +0.000 A 
ATOM      8  C   UNL     1      -2.585  12.330  19.319  0.00  0.00    +0.000 A 
ATOM      9  C   UNL     1      -2.698  11.466  18.224  0.00  0.00    +0.000 A 
ATOM     10  N   UNL     1      -3.631  11.344  17.221  0.00  0.00    +0.000 N 
ATOM     11  C   UNL     1      -4.782  12.190  17.013  0.00  0.00    +0.000 C 
ATOM     12  C   UNL     1       0.579  10.850  20.941  0.00  0.00    +0.000 C 
ATOM     13  C   UNL     1       1.225   9.485  20.712  0.00  0.00    +0.000 C 
ATOM     14  C   UNL     1       1.446   9.314  19.218  0.00  0.00    +0.000 C 
ATOM     15  O   UNL     1       0.169   9.230  18.573  0.00  0.00    +0.000 OA
ENDROOT
BRANCH  14  16
ATOM     16  C   UNL     1       2.278   8.079  18.904  0.00  0.00    +0.000 A 
ATOM     17  C   UNL     1       3.094   7.984  17.764  0.00  0.00    +0.000 A 
ATOM     18  C   UNL     1       3.876   6.848  17.539  0.00  0.00    +0.000 A 
ATOM     19  C   UNL     1       3.847   5.790  18.446  0.00  0.00    +0.000 A 
ATOM     20 CL   UNL     1       4.843   4.407  18.196  0.00  0.00    +0.000 Cl
ATOM     21  C   UNL     1       3.020   5.847  19.563  0.00  0.00    +0.000 A 
ATOM     22  C   UNL     1       2.235   6.984  19.785  0.00  0.00    +0.000 A 
ENDBRANCH  14  16
BRANCH   7  23
ATOM     23  C   UNL     1      -1.350  13.193  21.313  0.00  0.00    +0.000 C 
ATOM     24  O   UNL     1      -0.942  14.330  21.068  0.00  0.00    +0.000 OA
ATOM     25  N   UNL     1      -1.666  12.843  22.646  0.00  0.00    +0.000 N 
ATOM     26  C   UNL     1      -2.498  11.726  23.098  0.00  0.00    +0.000 C 
ATOM     27  C   UNL     1      -1.506  13.891  23.649  0.00  0.00    +0.000 C 
ENDBRANCH   7  23
TORSDOF 2
ENDMDL
MODEL 5
REMARK VINA RESULT:      -7.4      4.534      9.352
REMARK  Name = 
REMARK  6 active torsions:
REMARK  status: ('A' for Active; 'I' for Inactive)
REMARK    1  A    between atoms: C_1  and  C_2
REMARK    2  A    between atoms: C_7  and  C_8
REMARK    3  A    between atoms: N_10  and  C_11
REMARK    4  A    between atoms: N_10  and  C_12
REMARK    5  A    between atoms: N_15  and  C_16
REMARK    6  A    between atoms: C_19  and  C_20
REMARK                            x       y       z     vdW  Elec       q    Type
REMARK                         _______ _______ _______ _____ _____    ______ ____
ROOT
ATOM      1  C   UNL     1      -3.959   9.982  14.882  0.00  0.00    +0.000 C 
ATOM      2  C   UNL     1      -3.300  10.381  16.148  0.00  0.00    +0.000 A 
ATOM      3  N   UNL     1      -2.195   9.863  16.639  0.00  0.00    +0.000 NA
ATOM      4  C   UNL     1      -1.967  10.500  17.847  0.00  0.00    +0.000 A 
ATOM      5  C   UNL     1      -0.955  10.301  18.805  0.00  0.00    +0.000 A 
ATOM      6  C   UNL     1      -0.977  11.077  20.000  0.00  0.00    +0.000 A 
ATOM      7  C   UNL     1      -1.958  12.100  20.179  0.00  0.00    +0.000 A 
ATOM      8  C   UNL     1      -3.006  12.213  19.249  0.00  0.00    +0.000 A 
ATOM      9  C   UNL     1      -2.966  11.439  18.084  0.00  0.00    +0.000 A 
ATOM     10  N   UNL     1      -3.790  11.357  16.986  0.00  0.00    +0.000 N 
ATOM     11  C   UNL     1      -4.960  12.164  16.729  0.00  0.00    +0.000 C 
ATOM     12  C   UNL     1       0.063  10.753  21.059  0.00  0.00    +0.000 C 
ATOM     13  C   UNL     1       0.801   9.443  20.791  0.00  0.00    +0.000 C 
ATOM     14  C   UNL     1       1.174   9.406  19.318  0.00  0.00    +0.000 C 
ATOM     15  O   UNL     1      -0.029   9.317  18.544  0.00  0.00    +0.000 OA
ENDROOT
BRANCH  14  16
ATOM     16  C   UNL     1       2.098   8.242  18.994  0.00  0.00    +0.000 A 
ATOM     17  C   UNL     1       2.229   7.122  19.832  0.00  0.00    +0.000 A 
ATOM     18  C   UNL     1       3.056   6.054  19.471  0.00  0.00    +0.000 A 
ATOM     19  C   UNL     1       3.768   6.096  18.273  0.00  0.00    +0.000 A 
ATOM     20 CL   UNL     1       4.753   4.764  17.804  0.00  0.00    +0.000 Cl
ATOM     21  C   UNL     1       3.681   7.210  17.445  0.00  0.00    +0.000 A 
ATOM     22  C   UNL     1       2.855   8.280  17.809  0.00  0.00    +0.000 A 
ENDBRANCH  14  16
BRANCH   7  23
ATOM     23  C   UNL     1      -2.018  12.965  21.418  0.00  0.00    +0.000 C 
ATOM     24  O   UNL     1      -1.026  13.651  21.673  0.00  0.00    +0.000 OA
ATOM     25  N   UNL     1      -3.127  12.998  22.293  0.00  0.00    +0.000 N 
ATOM     26  C   UNL     1      -4.502  12.586  22.003  0.00  0.00    +0.000 C 
ATOM     27  C   UNL     1      -3.020  13.887  23.446  0.00  0.00    +0.000 C 
ENDBRANCH   7  23
TORSDOF 2
ENDMDL
MODEL 6
REMARK VINA RESULT:      -7.3      4.990      9.667
REMARK  Name = 
REMARK  6 active torsions:
REMARK  status: ('A' for Active; 'I' for Inactive)
REMARK    1  A    between atoms: C_1  and  C_2
REMARK    2  A    between atoms: C_7  and  C_8
REMARK    3  A    between atoms: N_10  and  C_11
REMARK    4  A    between atoms: N_10  and  C_12
REMARK    5  A    between atoms: N_15  and  C_16
REMARK    6  A    between atoms: C_19  and  C_20
REMARK                            x       y       z     vdW  Elec       q    Type
REMARK                         _______ _______ _______ _____ _____    ______ ____
ROOT
ATOM      1  C   UNL     1       3.361  14.995  17.571  0.00  0.00    +0.000 C 
ATOM      2  C   UNL     1       2.516  14.352  18.606  0.00  0.00    +0.000 A 
ATOM      3  N   UNL     1       2.409  13.059  18.821  0.00  0.00    +0.000 NA
ATOM      4  C   UNL     1       1.490  12.907  19.845  0.00  0.00    +0.000 A 
ATOM      5  C   UNL     1       0.970  11.741  20.437  0.00  0.00    +0.000 A 
ATOM      6  C   UNL     1      -0.011  11.868  21.463  0.00  0.00    +0.000 A 
ATOM      7  C   UNL     1      -0.391  13.159  21.942  0.00  0.00    +0.000 A 
ATOM      8  C   UNL     1       0.077  14.303  21.272  0.00  0.00    +0.000 A 
ATOM      9  C   UNL     1       1.037  14.154  20.265  0.00  0.00    +0.000 A 
ATOM     10  N   UNL     1       1.715  15.055  19.477  0.00  0.00    +0.000 N 
ATOM     11  C   UNL     1       1.627  16.494  19.550  0.00  0.00    +0.000 C 
ATOM     12  C   UNL     1      -0.632  10.588  21.995  0.00  0.00    +0.000 C 
ATOM     13  C   UNL     1      -0.306   9.365  21.140  0.00  0.00    +0.000 C 
ATOM     14  C   UNL     1       1.174   9.411  20.798  0.00  0.00    +0.000 C 
ATOM     15  O   UNL     1       1.410  10.535  19.940  0.00  0.00    +0.000 OA
ENDROOT
BRANCH  14  16
ATOM     16  C   UNL     1       1.644   8.128  20.128  0.00  0.00    +0.000 A 
ATOM     17  C   UNL     1       1.623   6.883  20.777  0.00  0.00    +0.000 A 
ATOM     18  C   UNL     1       2.022   5.722  20.108  0.00  0.00    +0.000 A 
ATOM     19  C   UNL     1       2.453   5.794  18.784  0.00  0.00    +0.000 A 
ATOM     20 CL   UNL     1       2.903   4.361  17.941  0.00  0.00    +0.000 Cl
ATOM     21  C   UNL     1       2.516   7.021  18.133  0.00  0.00    +0.000 A 
ATOM     22  C   UNL     1       2.119   8.183  18.806  0.00  0.00    +0.000 A 
ENDBRANCH  14  16
BRANCH   7  23
ATOM     23  C   UNL     1      -1.413  13.354  23.039  0.00  0.00    +0.000 C 
ATOM     24  O   UNL     1      -1.011  13.826  24.105  0.00  0.00    +0.000 OA
ATOM     25  N   UNL     1      -2.774  12.999  22.910  0.00  0.00    +0.000 N 
ATOM     26  C   UNL     1      -3.526  12.793  21.669  0.00  0.00    +0.000 C 
ATOM     27  C   UNL     1      -3.626  13.252  24.068  0.00  0.00    +0.000 C 
ENDBRANCH   7  23
TORSDOF 2
ENDMDL
MODEL 7
REMARK VINA RESULT:      -7.3      3.601      7.699
REMARK  Name = 
REMARK  6 active torsions:
REMARK  status: ('A' for Active; 'I' for Inactive)
REMARK    1  A    between atoms: C_1  and  C_2
REMARK    2  A    between atoms: C_7  and  C_8
REMARK    3  A    between atoms: N_10  and  C_11
REMARK    4  A    between atoms: N_10  and  C_12
REMARK    5  A    between atoms: N_15  and  C_16
REMARK    6  A    between atoms: C_19  and  C_20
REMARK                            x       y       z     vdW  Elec       q    Type
REMARK                         _______ _______ _______ _____ _____    ______ ____
ROOT
ATOM      1  C   UNL     1       1.880  10.623  17.879  0.00  0.00    +0.000 C 
ATOM      2  C   UNL     1       2.153   9.231  18.309  0.00  0.00    +0.000 A 
ATOM      3  N   UNL     1       2.875   8.349  17.653  0.00  0.00    +0.000 NA
ATOM      4  C   UNL     1       2.830   7.179  18.392  0.00  0.00    +0.000 A 
ATOM      5  C   UNL     1       3.387   5.913  18.130  0.00  0.00    +0.000 A 
ATOM      6  C   UNL     1       3.150   4.852  19.053  0.00  0.00    +0.000 A 
ATOM      7  C   UNL     1       2.437   5.097  20.266  0.00  0.00    +0.000 A 
ATOM      8  C   UNL     1       1.817   6.344  20.456  0.00  0.00    +0.000 A 
ATOM      9  C   UNL     1       2.060   7.370  19.536  0.00  0.00    +0.000 A 
ATOM     10  N   UNL     1       1.656   8.683  19.469  0.00  0.00    +0.000 N 
ATOM     11  C   UNL     1       0.864   9.387  20.450  0.00  0.00    +0.000 C 
ATOM     12  C   UNL     1       3.669   3.475  18.677  0.00  0.00    +0.000 C 
ATOM     13  C   UNL     1       4.124   3.384  17.222  0.00  0.00    +0.000 C 
ATOM     14  C   UNL     1       4.948   4.622  16.908  0.00  0.00    +0.000 C 
ATOM     15  O   UNL     1       4.088   5.768  16.955  0.00  0.00    +0.000 OA
ENDROOT
BRANCH  14  16
ATOM     16  C   UNL     1       5.626   4.526  15.549  0.00  0.00    +0.000 A 
ATOM     17  C   UNL     1       5.094   3.775  14.488  0.00  0.00    +0.000 A 
ATOM     18  C   UNL     1       5.727   3.752  13.242  0.00  0.00    +0.000 A 
ATOM     19  C   UNL     1       6.904   4.473  13.044  0.00  0.00    +0.000 A 
ATOM     20 CL   UNL     1       7.663   4.483  11.498  0.00  0.00    +0.000 Cl
ATOM     21  C   UNL     1       7.467   5.195  14.090  0.00  0.00    +0.000 A 
ATOM     22  C   UNL     1       6.834   5.215  15.339  0.00  0.00    +0.000 A 
ENDBRANCH  14  16
BRANCH   7  23
ATOM     23  C   UNL     1       2.171   4.014  21.288  0.00  0.00    +0.000 C 
ATOM     24  O   UNL     1       2.699   4.144  22.394  0.00  0.00    +0.000 OA
ATOM     25  N   UNL     1       1.384   2.870  21.026  0.00  0.00    +0.000 N 
ATOM     26  C   UNL     1       0.388   2.699  19.967  0.00  0.00    +0.000 C 
ATOM     27  C   UNL     1       1.231   1.921  22.124  0.00  0.00    +0.000 C 
ENDBRANCH   7  23
TORSDOF 2
ENDMDL
MODEL 8
REMARK VINA RESULT:      -7.3      5.206      9.918
REMARK  Name = 
REMARK  6 active torsions:
REMARK  status: ('A' for Active; 'I' for Inactive)
REMARK    1  A    between atoms: C_1  and  C_2
REMARK    2  A    between atoms: C_7  and  C_8
REMARK    3  A    between atoms: N_10  and  C_11
REMARK    4  A    between atoms: N_10  and  C_12
REMARK    5  A    between atoms: N_15  and  C_16
REMARK    6  A    between atoms: C_19  and  C_20
REMARK                            x       y       z     vdW  Elec       q    Type
REMARK                         _______ _______ _______ _____ _____    ______ ____
ROOT
ATOM      1  C   UNL     1       3.335  15.483  17.542  0.00  0.00    +0.000 C 
ATOM      2  C   UNL     1       2.504  14.822  18.576  0.00  0.00    +0.000 A 
ATOM      3  N   UNL     1       2.385  13.524  18.757  0.00  0.00    +0.000 NA
ATOM      4  C   UNL     1       1.486  13.354  19.795  0.00  0.00    +0.000 A 
ATOM      5  C   UNL     1       0.963  12.178  20.364  0.00  0.00    +0.000 A 
ATOM      6  C   UNL     1       0.004  12.288  21.414  0.00  0.00    +0.000 A 
ATOM      7  C   UNL     1      -0.350  13.569  21.936  0.00  0.00    +0.000 A 
ATOM      8  C   UNL     1       0.118  14.726  21.288  0.00  0.00    +0.000 A 
ATOM      9  C   UNL     1       1.056  14.594  20.258  0.00  0.00    +0.000 A 
ATOM     10  N   UNL     1       1.728  15.509  19.482  0.00  0.00    +0.000 N 
ATOM     11  C   UNL     1       1.659  16.946  19.597  0.00  0.00    +0.000 C 
ATOM     12  C   UNL     1      -0.621  11.000  21.922  0.00  0.00    +0.000 C 
ATOM     13  C   UNL     1      -0.328   9.798  21.027  0.00  0.00    +0.000 C 
ATOM     14  C   UNL     1       1.146   9.837  20.656  0.00  0.00    +0.000 C 
ATOM     15  O   UNL     1       1.379  10.982  19.826  0.00  0.00    +0.000 OA
ENDROOT
BRANCH  14  16
ATOM     16  C   UNL     1       1.587   8.568  19.942  0.00  0.00    +0.000 A 
ATOM     17  C   UNL     1       1.917   8.542  18.577  0.00  0.00    +0.000 A 
ATOM     18  C   UNL     1       2.361   7.362  17.972  0.00  0.00    +0.000 A 
ATOM     19  C   UNL     1       2.473   6.193  18.724  0.00  0.00    +0.000 A 
ATOM     20 CL   UNL     1       3.062   4.748  17.993  0.00  0.00    +0.000 Cl
ATOM     21  C   UNL     1       2.118   6.187  20.068  0.00  0.00    +0.000 A 
ATOM     22  C   UNL     1       1.670   7.368  20.671  0.00  0.00    +0.000 A 
ENDBRANCH  14  16
BRANCH   7  23
ATOM     23  C   UNL     1      -1.348  13.745  23.059  0.00  0.00    +0.000 C 
ATOM     24  O   UNL     1      -0.907  14.111  24.150  0.00  0.00    +0.000 OA
ATOM     25  N   UNL     1      -2.730  13.485  22.922  0.00  0.00    +0.000 N 
ATOM     26  C   UNL     1      -3.504  13.418  21.681  0.00  0.00    +0.000 C 
ATOM     27  C   UNL     1      -3.553  13.703  24.108  0.00  0.00    +0.000 C 
ENDBRANCH   7  23
TORSDOF 2
ENDMDL
MODEL 9
REMARK VINA RESULT:      -7.3      5.400     10.167
REMARK  Name = 
REMARK  6 active torsions:
REMARK  status: ('A' for Active; 'I' for Inactive)
REMARK    1  A    between atoms: C_1  and  C_2
REMARK    2  A    between atoms: C_7  and  C_8
REMARK    3  A    between atoms: N_10  and  C_11
REMARK    4  A    between atoms: N_10  and  C_12
REMARK    5  A    between atoms: N_15  and  C_16
REMARK    6  A    between atoms: C_19  and  C_20
REMARK                            x       y       z     vdW  Elec       q    Type
REMARK                         _______ _______ _______ _____ _____    ______ ____
ROOT
ATOM      1  C   UNL     1       3.599  16.018  17.451  0.00  0.00    +0.000 C 
ATOM      2  C   UNL     1       2.521  15.322  18.193  0.00  0.00    +0.000 A 
ATOM      3  N   UNL     1       2.414  14.021  18.358  0.00  0.00    +0.000 NA
ATOM      4  C   UNL     1       1.246  13.812  19.072  0.00  0.00    +0.000 A 
ATOM      5  C   UNL     1       0.630  12.615  19.480  0.00  0.00    +0.000 A 
ATOM      6  C   UNL     1      -0.610  12.682  20.180  0.00  0.00    +0.000 A 
ATOM      7  C   UNL     1      -1.168  13.948  20.539  0.00  0.00    +0.000 A 
ATOM      8  C   UNL     1      -0.578  15.122  20.040  0.00  0.00    +0.000 A 
ATOM      9  C   UNL     1       0.637  15.032  19.353  0.00  0.00    +0.000 A 
ATOM     10  N   UNL     1       1.472  15.974  18.800  0.00  0.00    +0.000 N 
ATOM     11  C   UNL     1       1.304  17.407  18.856  0.00  0.00    +0.000 C 
ATOM     12  C   UNL     1      -1.301  11.368  20.501  0.00  0.00    +0.000 C 
ATOM     13  C   UNL     1      -0.689  10.177  19.767  0.00  0.00    +0.000 C 
ATOM     14  C   UNL     1       0.823  10.289  19.867  0.00  0.00    +0.000 C 
ATOM     15  O   UNL     1       1.247  11.438  19.123  0.00  0.00    +0.000 OA
ENDROOT
BRANCH  14  16
ATOM     16  C   UNL     1       1.522   9.039  19.352  0.00  0.00    +0.000 A 
ATOM     17  C   UNL     1       2.033   8.939  18.048  0.00  0.00    +0.000 A 
ATOM     18  C   UNL     1       2.708   7.788  17.632  0.00  0.00    +0.000 A 
ATOM     19  C   UNL     1       2.875   6.720  18.513  0.00  0.00    +0.000 A 
ATOM     20 CL   UNL     1       3.745   5.318  18.019  0.00  0.00    +0.000 Cl
ATOM     21  C   UNL     1       2.347   6.783  19.798  0.00  0.00    +0.000 A 
ATOM     22  C   UNL     1       1.668   7.936  20.212  0.00  0.00    +0.000 A 
ENDBRANCH  14  16
BRANCH   7  23
ATOM     23  C   UNL     1      -2.471  14.079  21.296  0.00  0.00    +0.000 C 
ATOM     24  O   UNL     1      -3.512  14.003  20.640  0.00  0.00    +0.000 OA
ATOM     25  N   UNL     1      -2.545  14.311  22.688  0.00  0.00    +0.000 N 
ATOM     26  C   UNL     1      -1.503  14.063  23.687  0.00  0.00    +0.000 C 
ATOM     27  C   UNL     1      -3.884  14.415  23.260  0.00  0.00    +0.000 C 
ENDBRANCH   7  23
TORSDOF 2
ENDMDL
