MODEL 1
REMARK VINA RESULT:      -6.2      0.000      0.000
REMARK  Name = 
REMARK  3 active torsions:
REMARK  status: ('A' for Active; 'I' for Inactive)
REMARK    1  A    between atoms: C_2  and  O_3
REMARK    2  A    between atoms: C_2  and  C_9
REMARK    3  A    between atoms: O_3  and  C_4
REMARK                            x       y       z     vdW  Elec       q    Type
REMARK                         _______ _______ _______ _____ _____    ______ ____
ROOT
ATOM      1  O   UNL     1       5.234   5.212  19.743  0.00  0.00    +0.000 OA
ATOM      2  C   UNL     1       5.061   4.343  18.899  0.00  0.00    +0.000 C 
ENDROOT
BRANCH   2   3
ATOM      3  C   UNL     1       5.734   4.429  17.582  0.00  0.00    +0.000 A 
ATOM      4  C   UNL     1       4.949   4.384  16.423  0.00  0.00    +0.000 A 
ATOM      5  C   UNL     1       5.548   4.483  15.171  0.00  0.00    +0.000 A 
ATOM      6  C   UNL     1       6.925   4.624  15.117  0.00  0.00    +0.000 A 
ATOM      7  N   UNL     1       7.717   4.663  16.212  0.00  0.00    +0.000 NA
ATOM      8  C   UNL     1       7.106   4.565  17.423  0.00  0.00    +0.000 A 
ENDBRANCH   2   3
BRANCH   2   9
ATOM      9  O   UNL     1       4.310   3.231  18.993  0.00  0.00    +0.000 OA
BRANCH   9  10
ATOM     10  C   UNL     1       3.216   3.285  19.736  0.00  0.00    +0.000 A 
ATOM     11  C   UNL     1       2.792   2.820  20.966  0.00  0.00    +0.000 A 
ATOM     12  C   UNL     1       1.444   3.229  21.121  0.00  0.00    +0.000 A 
ATOM     13  C   UNL     1       1.130   3.927  19.981  0.00  0.00    +0.000 A 
ATOM     14  O   UNL     1       2.195   3.969  19.138  0.00  0.00    +0.000 OA
ENDBRANCH   9  10
ENDBRANCH   2   9
TORSDOF 3
ENDMDL
MODEL 2
REMARK VINA RESULT:      -6.2      0.908      1.012
REMARK  Name = 
REMARK  3 active torsions:
REMARK  status: ('A' for Active; 'I' for Inactive)
REMARK    1  A    between atoms: C_2  and  O_3
REMARK    2  A    between atoms: C_2  and  C_9
REMARK    3  A    between atoms: O_3  and  C_4
REMARK                            x       y       z     vdW  Elec       q    Type
REMARK                         _______ _______ _______ _____ _____    ______ ____
ROOT
ATOM      1  O   UNL     1       5.529   3.854  19.467  0.00  0.00    +0.000 OA
ATOM      2  C   UNL     1       4.937   4.190  18.450  0.00  0.00    +0.000 C 
ENDROOT
BRANCH   2   3
ATOM      3  C   UNL     1       5.666   4.340  17.170  0.00  0.00    +0.000 A 
ATOM      4  C   UNL     1       4.939   4.289  15.973  0.00  0.00    +0.000 A 
ATOM      5  C   UNL     1       5.591   4.447  14.754  0.00  0.00    +0.000 A 
ATOM      6  C   UNL     1       6.960   4.652  14.769  0.00  0.00    +0.000 A 
ATOM      7  N   UNL     1       7.698   4.700  15.902  0.00  0.00    +0.000 NA
ATOM      8  C   UNL     1       7.036   4.543  17.079  0.00  0.00    +0.000 A 
ENDBRANCH   2   3
BRANCH   2   9
ATOM      9  O   UNL     1       3.625   4.450  18.300  0.00  0.00    +0.000 OA
BRANCH   9  10
ATOM     10  C   UNL     1       2.806   4.068  19.266  0.00  0.00    +0.000 A 
ATOM     11  C   UNL     1       2.247   4.610  20.407  0.00  0.00    +0.000 A 
ATOM     12  C   UNL     1       1.467   3.593  21.010  0.00  0.00    +0.000 A 
ATOM     13  C   UNL     1       1.587   2.494  20.196  0.00  0.00    +0.000 A 
ATOM     14  O   UNL     1       2.392   2.772  19.136  0.00  0.00    +0.000 OA
ENDBRANCH   9  10
ENDBRANCH   2   9
TORSDOF 3
ENDMDL
MODEL 3
REMARK VINA RESULT:      -6.1      1.221      1.417
REMARK  Name = 
REMARK  3 active torsions:
REMARK  status: ('A' for Active; 'I' for Inactive)
REMARK    1  A    between atoms: C_2  and  O_3
REMARK    2  A    between atoms: C_2  and  C_9
REMARK    3  A    between atoms: O_3  and  C_4
REMARK                            x       y       z     vdW  Elec       q    Type
REMARK                         _______ _______ _______ _____ _____    ______ ____
ROOT
ATOM      1  O   UNL     1       5.707   4.135  19.284  0.00  0.00    +0.000 OA
ATOM      2  C   UNL     1       5.157   4.737  18.372  0.00  0.00    +0.000 C 
ENDROOT
BRANCH   2   3
ATOM      3  C   UNL     1       5.768   4.780  17.023  0.00  0.00    +0.000 A 
ATOM      4  C   UNL     1       5.092   4.167  15.961  0.00  0.00    +0.000 A 
ATOM      5  C   UNL     1       5.629   4.207  14.677  0.00  0.00    +0.000 A 
ATOM      6  C   UNL     1       6.834   4.863  14.496  0.00  0.00    +0.000 A 
ATOM      7  N   UNL     1       7.521   5.460  15.497  0.00  0.00    +0.000 NA
ATOM      8  C   UNL     1       6.974   5.406  16.740  0.00  0.00    +0.000 A 
ENDBRANCH   2   3
BRANCH   2   9
ATOM      9  O   UNL     1       3.988   5.404  18.402  0.00  0.00    +0.000 OA
BRANCH   9  10
ATOM     10  C   UNL     1       2.951   4.807  18.964  0.00  0.00    +0.000 A 
ATOM     11  C   UNL     1       1.956   3.922  18.595  0.00  0.00    +0.000 A 
ATOM     12  C   UNL     1       1.127   3.734  19.728  0.00  0.00    +0.000 A 
ATOM     13  C   UNL     1       1.671   4.506  20.724  0.00  0.00    +0.000 A 
ATOM     14  O   UNL     1       2.776   5.157  20.274  0.00  0.00    +0.000 OA
ENDBRANCH   9  10
ENDBRANCH   2   9
TORSDOF 3
ENDMDL
MODEL 4
REMARK VINA RESULT:      -6.0      1.853      2.408
REMARK  Name = 
REMARK  3 active torsions:
REMARK  status: ('A' for Active; 'I' for Inactive)
REMARK    1  A    between atoms: C_2  and  O_3
REMARK    2  A    between atoms: C_2  and  C_9
REMARK    3  A    between atoms: O_3  and  C_4
REMARK                            x       y       z     vdW  Elec       q    Type
REMARK                         _______ _______ _______ _____ _____    ______ ____
ROOT
ATOM      1  O   UNL     1       5.256   3.444  19.412  0.00  0.00    +0.000 OA
ATOM      2  C   UNL     1       4.875   4.377  18.718  0.00  0.00    +0.000 C 
ENDROOT
BRANCH   2   3
ATOM      3  C   UNL     1       5.817   5.444  18.310  0.00  0.00    +0.000 A 
ATOM      4  C   UNL     1       6.995   5.618  19.048  0.00  0.00    +0.000 A 
ATOM      5  C   UNL     1       7.912   6.598  18.677  0.00  0.00    +0.000 A 
ATOM      6  C   UNL     1       7.619   7.380  17.573  0.00  0.00    +0.000 A 
ATOM      7  N   UNL     1       6.489   7.249  16.841  0.00  0.00    +0.000 NA
ATOM      8  C   UNL     1       5.611   6.284  17.224  0.00  0.00    +0.000 A 
ENDBRANCH   2   3
BRANCH   2   9
ATOM      9  O   UNL     1       3.644   4.593  18.219  0.00  0.00    +0.000 OA
BRANCH   9  10
ATOM     10  C   UNL     1       2.607   4.241  18.960  0.00  0.00    +0.000 A 
ATOM     11  C   UNL     1       1.988   4.664  20.120  0.00  0.00    +0.000 A 
ATOM     12  C   UNL     1       0.914   3.772  20.367  0.00  0.00    +0.000 A 
ATOM     13  C   UNL     1       0.936   2.865  19.336  0.00  0.00    +0.000 A 
ATOM     14  O   UNL     1       1.953   3.141  18.478  0.00  0.00    +0.000 OA
ENDBRANCH   9  10
ENDBRANCH   2   9
TORSDOF 3
ENDMDL
MODEL 5
REMARK VINA RESULT:      -6.0      0.871      1.227
REMARK  Name = 
REMARK  3 active torsions:
REMARK  status: ('A' for Active; 'I' for Inactive)
REMARK    1  A    between atoms: C_2  and  O_3
REMARK    2  A    between atoms: C_2  and  C_9
REMARK    3  A    between atoms: O_3  and  C_4
REMARK                            x       y       z     vdW  Elec       q    Type
REMARK                         _______ _______ _______ _____ _____    ______ ____
ROOT
ATOM      1  O   UNL     1       4.827   5.522  19.459  0.00  0.00    +0.000 OA
ATOM      2  C   UNL     1       4.575   4.814  18.492  0.00  0.00    +0.000 C 
ENDROOT
BRANCH   2   3
ATOM      3  C   UNL     1       5.444   4.842  17.293  0.00  0.00    +0.000 A 
ATOM      4  C   UNL     1       5.200   3.919  16.267  0.00  0.00    +0.000 A 
ATOM      5  C   UNL     1       5.985   3.932  15.118  0.00  0.00    +0.000 A 
ATOM      6  C   UNL     1       6.998   4.873  15.031  0.00  0.00    +0.000 A 
ATOM      7  N   UNL     1       7.269   5.773  16.003  0.00  0.00    +0.000 NA
ATOM      8  C   UNL     1       6.487   5.739  17.114  0.00  0.00    +0.000 A 
ENDBRANCH   2   3
BRANCH   2   9
ATOM      9  O   UNL     1       3.564   3.939  18.345  0.00  0.00    +0.000 OA
BRANCH   9  10
ATOM     10  C   UNL     1       2.801   3.693  19.398  0.00  0.00    +0.000 A 
ATOM     11  C   UNL     1       1.553   4.058  19.864  0.00  0.00    +0.000 A 
ATOM     12  C   UNL     1       1.382   3.431  21.123  0.00  0.00    +0.000 A 
ATOM     13  C   UNL     1       2.531   2.713  21.345  0.00  0.00    +0.000 A 
ATOM     14  O   UNL     1       3.395   2.862  20.307  0.00  0.00    +0.000 OA
ENDBRANCH   9  10
ENDBRANCH   2   9
TORSDOF 3
ENDMDL
MODEL 6
REMARK VINA RESULT:      -5.9      1.426      1.539
REMARK  Name = 
REMARK  3 active torsions:
REMARK  status: ('A' for Active; 'I' for Inactive)
REMARK    1  A    between atoms: C_2  and  O_3
REMARK    2  A    between atoms: C_2  and  C_9
REMARK    3  A    between atoms: O_3  and  C_4
REMARK                            x       y       z     vdW  Elec       q    Type
REMARK                         _______ _______ _______ _____ _____    ______ ____
ROOT
ATOM      1  O   UNL     1       3.374   6.823  17.794  0.00  0.00    +0.000 OA
ATOM      2  C   UNL     1       4.106   5.865  18.004  0.00  0.00    +0.000 C 
ENDROOT
BRANCH   2   3
ATOM      3  C   UNL     1       5.149   5.485  17.024  0.00  0.00    +0.000 A 
ATOM      4  C   UNL     1       4.934   4.359  16.219  0.00  0.00    +0.000 A 
ATOM      5  C   UNL     1       5.886   3.987  15.273  0.00  0.00    +0.000 A 
ATOM      6  C   UNL     1       7.030   4.758  15.162  0.00  0.00    +0.000 A 
ATOM      7  N   UNL     1       7.277   5.846  15.926  0.00  0.00    +0.000 NA
ATOM      8  C   UNL     1       6.332   6.188  16.842  0.00  0.00    +0.000 A 
ENDBRANCH   2   3
BRANCH   2   9
ATOM      9  O   UNL     1       4.121   5.051  19.076  0.00  0.00    +0.000 OA
BRANCH   9  10
ATOM     10  C   UNL     1       2.961   4.613  19.536  0.00  0.00    +0.000 A 
ATOM     11  C   UNL     1       2.170   4.795  20.654  0.00  0.00    +0.000 A 
ATOM     12  C   UNL     1       1.039   3.955  20.502  0.00  0.00    +0.000 A 
ATOM     13  C   UNL     1       1.202   3.320  19.296  0.00  0.00    +0.000 A 
ATOM     14  O   UNL     1       2.359   3.712  18.702  0.00  0.00    +0.000 OA
ENDBRANCH   9  10
ENDBRANCH   2   9
TORSDOF 3
ENDMDL
MODEL 7
REMARK VINA RESULT:      -5.9      2.497      5.552
REMARK  Name = 
REMARK  3 active torsions:
REMARK  status: ('A' for Active; 'I' for Inactive)
REMARK    1  A    between atoms: C_2  and  O_3
REMARK    2  A    between atoms: C_2  and  C_9
REMARK    3  A    between atoms: O_3  and  C_4
REMARK                            x       y       z     vdW  Elec       q    Type
REMARK                         _______ _______ _______ _____ _____    ______ ____
ROOT
ATOM      1  O   UNL     1       2.104   3.002  16.856  0.00  0.00    +0.000 OA
ATOM      2  C   UNL     1       2.995   3.102  17.690  0.00  0.00    +0.000 C 
ENDROOT
BRANCH   2   3
ATOM      3  C   UNL     1       2.681   3.046  19.136  0.00  0.00    +0.000 A 
ATOM      4  C   UNL     1       1.433   3.509  19.570  0.00  0.00    +0.000 A 
ATOM      5  C   UNL     1       1.099   3.451  20.920  0.00  0.00    +0.000 A 
ATOM      6  C   UNL     1       2.032   2.930  21.800  0.00  0.00    +0.000 A 
ATOM      7  N   UNL     1       3.251   2.481  21.421  0.00  0.00    +0.000 NA
ATOM      8  C   UNL     1       3.551   2.549  20.097  0.00  0.00    +0.000 A 
ENDBRANCH   2   3
BRANCH   2   9
ATOM      9  O   UNL     1       4.316   3.250  17.480  0.00  0.00    +0.000 OA
BRANCH   9  10
ATOM     10  C   UNL     1       4.720   4.322  16.820  0.00  0.00    +0.000 A 
ATOM     11  C   UNL     1       4.577   5.693  16.912  0.00  0.00    +0.000 A 
ATOM     12  C   UNL     1       5.270   6.257  15.812  0.00  0.00    +0.000 A 
ATOM     13  C   UNL     1       5.804   5.197  15.122  0.00  0.00    +0.000 A 
ATOM     14  O   UNL     1       5.480   4.023  15.724  0.00  0.00    +0.000 OA
ENDBRANCH   9  10
ENDBRANCH   2   9
TORSDOF 3
ENDMDL
MODEL 8
REMARK VINA RESULT:      -5.9      1.260      1.332
REMARK  Name = 
REMARK  3 active torsions:
REMARK  status: ('A' for Active; 'I' for Inactive)
REMARK    1  A    between atoms: C_2  and  O_3
REMARK    2  A    between atoms: C_2  and  C_9
REMARK    3  A    between atoms: O_3  and  C_4
REMARK                            x       y       z     vdW  Elec       q    Type
REMARK                         _______ _______ _______ _____ _____    ______ ____
ROOT
ATOM      1  O   UNL     1       5.894   4.044  19.402  0.00  0.00    +0.000 OA
ATOM      2  C   UNL     1       5.254   4.447  18.440  0.00  0.00    +0.000 C 
ENDROOT
BRANCH   2   3
ATOM      3  C   UNL     1       5.900   4.597  17.115  0.00  0.00    +0.000 A 
ATOM      4  C   UNL     1       5.415   3.837  16.043  0.00  0.00    +0.000 A 
ATOM      5  C   UNL     1       5.986   3.969  14.781  0.00  0.00    +0.000 A 
ATOM      6  C   UNL     1       7.034   4.862  14.630  0.00  0.00    +0.000 A 
ATOM      7  N   UNL     1       7.535   5.606  15.641  0.00  0.00    +0.000 NA
ATOM      8  C   UNL     1       6.959   5.458  16.864  0.00  0.00    +0.000 A 
ENDBRANCH   2   3
BRANCH   2   9
ATOM      9  O   UNL     1       3.953   4.787  18.391  0.00  0.00    +0.000 OA
BRANCH   9  10
ATOM     10  C   UNL     1       3.058   3.838  18.609  0.00  0.00    +0.000 A 
ATOM     11  C   UNL     1       2.979   2.463  18.499  0.00  0.00    +0.000 A 
ATOM     12  C   UNL     1       1.665   2.092  18.878  0.00  0.00    +0.000 A 
ATOM     13  C   UNL     1       1.025   3.261  19.207  0.00  0.00    +0.000 A 
ATOM     14  O   UNL     1       1.859   4.322  19.051  0.00  0.00    +0.000 OA
ENDBRANCH   9  10
ENDBRANCH   2   9
TORSDOF 3
ENDMDL
MODEL 9
REMARK VINA RESULT:      -5.9      2.088      2.658
REMARK  Name = 
REMARK  3 active torsions:
REMARK  status: ('A' for Active; 'I' for Inactive)
REMARK    1  A    between atoms: C_2  and  O_3
REMARK    2  A    between atoms: C_2  and  C_9
REMARK    3  A    between atoms: O_3  and  C_4
REMARK                            x       y       z     vdW  Elec       q    Type
REMARK                         _______ _______ _______ _____ _____    ______ ____
ROOT
ATOM      1  O   UNL     1       4.227   3.817  16.604  0.00  0.00    +0.000 OA
ATOM      2  C   UNL     1       4.224   4.763  17.380  0.00  0.00    +0.000 C 
ENDROOT
BRANCH   2   3
ATOM      3  C   UNL     1       5.495   5.287  17.933  0.00  0.00    +0.000 A 
ATOM      4  C   UNL     1       6.235   6.196  17.167  0.00  0.00    +0.000 A 
ATOM      5  C   UNL     1       7.423   6.722  17.666  0.00  0.00    +0.000 A 
ATOM      6  C   UNL     1       7.837   6.319  18.924  0.00  0.00    +0.000 A 
ATOM      7  N   UNL     1       7.154   5.437  19.690  0.00  0.00    +0.000 NA
ATOM      8  C   UNL     1       5.997   4.939  19.179  0.00  0.00    +0.000 A 
ENDBRANCH   2   3
BRANCH   2   9
ATOM      9  O   UNL     1       3.168   5.464  17.832  0.00  0.00    +0.000 OA
BRANCH   9  10
ATOM     10  C   UNL     1       2.392   4.895  18.740  0.00  0.00    +0.000 A 
ATOM     11  C   UNL     1       1.407   3.928  18.782  0.00  0.00    +0.000 A 
ATOM     12  C   UNL     1       0.964   3.845  20.125  0.00  0.00    +0.000 A 
ATOM     13  C   UNL     1       1.713   4.759  20.824  0.00  0.00    +0.000 A 
ATOM     14  O   UNL     1       2.581   5.398  19.997  0.00  0.00    +0.000 OA
ENDBRANCH   9  10
ENDBRANCH   2   9
TORSDOF 3
ENDMDL
