MODEL 1
REMARK VINA RESULT:      -7.5      0.000      0.000
REMARK  Name = 
REMARK  12 active torsions:
REMARK  status: ('A' for Active; 'I' for Inactive)
REMARK    1  A    between atoms: C_1  and  O_2
REMARK    2  A    between atoms: O_2  and  C_3
REMARK    3  A    between atoms: C_6  and  C_7
REMARK    4  A    between atoms: C_7  and  N_8
REMARK    5  A    between atoms: N_8  and  C_9
REMARK    6  A    between atoms: N_12  and  C_13
REMARK    7  A    between atoms: C_17  and  C_18
REMARK    8  A    between atoms: C_21  and  S_22
REMARK    9  A    between atoms: S_22  and  N_25
REMARK   10  A    between atoms: N_25  and  C_26
REMARK   11  A    between atoms: C_26  and  C_27
REMARK   12  A    between atoms: C_27  and  N_28
REMARK                            x       y       z     vdW  Elec       q    Type
REMARK                         _______ _______ _______ _____ _____    ______ ____
ROOT
ATOM      1  C   UNL     1       1.786   3.690  19.383  0.00  0.00    +0.000 A 
ATOM      2  C   UNL     1       2.191   2.552  18.670  0.00  0.00    +0.000 A 
ATOM      3  C   UNL     1       3.170   2.625  17.688  0.00  0.00    +0.000 A 
ATOM      4  C   UNL     1       3.732   3.847  17.344  0.00  0.00    +0.000 A 
ATOM      5  C   UNL     1       3.290   4.997  18.014  0.00  0.00    +0.000 A 
ATOM      6  C   UNL     1       2.336   4.949  19.057  0.00  0.00    +0.000 A 
ENDROOT
BRANCH   6   7
ATOM      7  C   UNL     1       1.971   6.202  19.754  0.00  0.00    +0.000 A 
ATOM      8  C   UNL     1       1.585   6.424  21.066  0.00  0.00    +0.000 A 
ATOM      9  C   UNL     1       1.223   7.781  21.313  0.00  0.00    +0.000 A 
ATOM     10  C   UNL     1       1.358   8.571  20.189  0.00  0.00    +0.000 A 
ATOM     11  S   UNL     1       2.006   7.694  18.891  0.00  0.00    +0.000 S 
BRANCH  10  12
ATOM     12  S   UNL     1       1.050  10.301  19.909  0.00  0.00    +0.000 S 
ATOM     13  O   UNL     1       1.458  11.018  21.091  0.00  0.00    +0.000 OA
ATOM     14  O   UNL     1       1.641  10.550  18.606  0.00  0.00    +0.000 OA
BRANCH  12  15
ATOM     15  N   UNL     1      -0.635  10.424  19.714  0.00  0.00    +0.000 NA
ATOM     16  H   UNL     1      -1.107   9.978  20.501  0.00  0.00    +0.000 HD
BRANCH  15  17
ATOM     17  C   UNL     1      -1.115  11.794  19.436  0.00  0.00    +0.000 C 
BRANCH  17  18
ATOM     18  C   UNL     1      -1.664  11.898  18.001  0.00  0.00    +0.000 C 
BRANCH  18  19
ATOM     19  N   UNL     1      -2.605  10.808  17.689  0.00  0.00    +0.000 NA
ATOM     20  C   UNL     1      -2.305  10.172  16.397  0.00  0.00    +0.000 C 
ATOM     21  C   UNL     1      -3.193  10.874  15.392  0.00  0.00    +0.000 C 
ATOM     22  C   UNL     1      -4.466  11.106  16.174  0.00  0.00    +0.000 C 
ATOM     23  C   UNL     1      -4.001  11.284  17.610  0.00  0.00    +0.000 C 
ENDBRANCH  18  19
ENDBRANCH  17  18
ENDBRANCH  15  17
ENDBRANCH  12  15
ENDBRANCH  10  12
ENDBRANCH   6   7
BRANCH   1  25
ATOM     24  C   UNL     1       1.271   2.838  21.516  0.00  0.00    +0.000 C 
ATOM     25  O   UNL     1       0.845   3.596  20.382  0.00  0.00    +0.000 OA
ENDBRANCH   1  25
BRANCH   4  26
ATOM     26  C   UNL     1       4.781   3.921  16.263  0.00  0.00    +0.000 C 
BRANCH  26  27
ATOM     27  N   UNL     1       6.127   4.015  16.822  0.00  0.00    +0.000 NA
ATOM     28  H   UNL     1       6.812   3.855  16.085  0.00  0.00    +0.000 HD
BRANCH  27  29
ATOM     29  C   UNL     1       6.395   5.297  17.493  0.00  0.00    +0.000 C 
ATOM     30  C   UNL     1       6.380   6.514  16.556  0.00  0.00    +0.000 C 
ATOM     31  C   UNL     1       6.778   7.785  17.308  0.00  0.00    +0.000 C 
ATOM     32  N   UNL     1       8.104   7.646  17.917  0.00  0.00    +0.000 NA
ATOM     33  C   UNL     1       8.490   8.887  18.589  0.00  0.00    +0.000 C 
ATOM     34  C   UNL     1       8.140   6.520  18.860  0.00  0.00    +0.000 C 
ATOM     35  C   UNL     1       7.767   5.204  18.175  0.00  0.00    +0.000 C 
ENDBRANCH  27  29
ENDBRANCH  26  27
ENDBRANCH   4  26
TORSDOF 10
ENDMDL
MODEL 2
REMARK VINA RESULT:      -7.5      0.878      1.416
REMARK  Name = 
REMARK  12 active torsions:
REMARK  status: ('A' for Active; 'I' for Inactive)
REMARK    1  A    between atoms: C_1  and  O_2
REMARK    2  A    between atoms: O_2  and  C_3
REMARK    3  A    between atoms: C_6  and  C_7
REMARK    4  A    between atoms: C_7  and  N_8
REMARK    5  A    between atoms: N_8  and  C_9
REMARK    6  A    between atoms: N_12  and  C_13
REMARK    7  A    between atoms: C_17  and  C_18
REMARK    8  A    between atoms: C_21  and  S_22
REMARK    9  A    between atoms: S_22  and  N_25
REMARK   10  A    between atoms: N_25  and  C_26
REMARK   11  A    between atoms: C_26  and  C_27
REMARK   12  A    between atoms: C_27  and  N_28
REMARK                            x       y       z     vdW  Elec       q    Type
REMARK                         _______ _______ _______ _____ _____    ______ ____
ROOT
ATOM      1  C   UNL     1       1.956   4.060  19.176  0.00  0.00    +0.000 A 
ATOM      2  C   UNL     1       2.393   2.875  18.567  0.00  0.00    +0.000 A 
ATOM      3  C   UNL     1       3.397   2.883  17.607  0.00  0.00    +0.000 A 
ATOM      4  C   UNL     1       3.952   4.082  17.180  0.00  0.00    +0.000 A 
ATOM      5  C   UNL     1       3.479   5.275  17.745  0.00  0.00    +0.000 A 
ATOM      6  C   UNL     1       2.498   5.296  18.765  0.00  0.00    +0.000 A 
ENDROOT
BRANCH   6   7
ATOM      7  C   UNL     1       2.100   6.596  19.350  0.00  0.00    +0.000 A 
ATOM      8  C   UNL     1       1.846   6.952  20.664  0.00  0.00    +0.000 A 
ATOM      9  C   UNL     1       1.389   8.297  20.793  0.00  0.00    +0.000 A 
ATOM     10  C   UNL     1       1.322   8.946  19.577  0.00  0.00    +0.000 A 
ATOM     11  S   UNL     1       1.899   7.963  18.320  0.00  0.00    +0.000 S 
BRANCH  10  12
ATOM     12  S   UNL     1       0.826  10.596  19.136  0.00  0.00    +0.000 S 
ATOM     13  O   UNL     1       0.304  11.230  20.321  0.00  0.00    +0.000 OA
ATOM     14  O   UNL     1       1.972  11.120  18.416  0.00  0.00    +0.000 OA
BRANCH  12  15
ATOM     15  N   UNL     1      -0.418  10.393  17.995  0.00  0.00    +0.000 NA
ATOM     16  H   UNL     1      -0.718   9.418  17.981  0.00  0.00    +0.000 HD
BRANCH  15  17
ATOM     17  C   UNL     1      -1.535  11.351  18.139  0.00  0.00    +0.000 C 
BRANCH  17  18
ATOM     18  C   UNL     1      -2.258  11.549  16.793  0.00  0.00    +0.000 C 
BRANCH  18  19
ATOM     19  N   UNL     1      -3.508  10.772  16.718  0.00  0.00    +0.000 NA
ATOM     20  C   UNL     1      -4.640  11.590  16.257  0.00  0.00    +0.000 C 
ATOM     21  C   UNL     1      -5.324  12.073  17.518  0.00  0.00    +0.000 C 
ATOM     22  C   UNL     1      -5.200  10.883  18.443  0.00  0.00    +0.000 C 
ATOM     23  C   UNL     1      -3.898  10.217  18.030  0.00  0.00    +0.000 C 
ENDBRANCH  18  19
ENDBRANCH  17  18
ENDBRANCH  15  17
ENDBRANCH  12  15
ENDBRANCH  10  12
ENDBRANCH   6   7
BRANCH   1  25
ATOM     24  C   UNL     1       1.237   3.078  21.191  0.00  0.00    +0.000 C 
ATOM     25  O   UNL     1       0.991   4.032  20.155  0.00  0.00    +0.000 OA
ENDBRANCH   1  25
BRANCH   4  26
ATOM     26  C   UNL     1       5.028   4.085  16.123  0.00  0.00    +0.000 C 
BRANCH  26  27
ATOM     27  N   UNL     1       6.319   3.668  16.666  0.00  0.00    +0.000 NA
ATOM     28  H   UNL     1       6.791   3.067  15.993  0.00  0.00    +0.000 HD
BRANCH  27  29
ATOM     29  C   UNL     1       7.190   4.796  17.034  0.00  0.00    +0.000 C 
ATOM     30  C   UNL     1       7.152   5.163  18.525  0.00  0.00    +0.000 C 
ATOM     31  C   UNL     1       7.993   6.410  18.801  0.00  0.00    +0.000 C 
ATOM     32  N   UNL     1       7.531   7.547  18.000  0.00  0.00    +0.000 NA
ATOM     33  C   UNL     1       8.314   8.743  18.314  0.00  0.00    +0.000 C 
ATOM     34  C   UNL     1       7.604   7.249  16.563  0.00  0.00    +0.000 C 
ATOM     35  C   UNL     1       6.770   6.017  16.204  0.00  0.00    +0.000 C 
ENDBRANCH  27  29
ENDBRANCH  26  27
ENDBRANCH   4  26
TORSDOF 10
ENDMDL
MODEL 3
REMARK VINA RESULT:      -7.4      1.091      1.555
REMARK  Name = 
REMARK  12 active torsions:
REMARK  status: ('A' for Active; 'I' for Inactive)
REMARK    1  A    between atoms: C_1  and  O_2
REMARK    2  A    between atoms: O_2  and  C_3
REMARK    3  A    between atoms: C_6  and  C_7
REMARK    4  A    between atoms: C_7  and  N_8
REMARK    5  A    between atoms: N_8  and  C_9
REMARK    6  A    between atoms: N_12  and  C_13
REMARK    7  A    between atoms: C_17  and  C_18
REMARK    8  A    between atoms: C_21  and  S_22
REMARK    9  A    between atoms: S_22  and  N_25
REMARK   10  A    between atoms: N_25  and  C_26
REMARK   11  A    between atoms: C_26  and  C_27
REMARK   12  A    between atoms: C_27  and  N_28
REMARK                            x       y       z     vdW  Elec       q    Type
REMARK                         _______ _______ _______ _____ _____    ______ ____
ROOT
ATOM      1  C   UNL     1       2.224   4.565  19.287  0.00  0.00    +0.000 A 
ATOM      2  C   UNL     1       2.774   3.314  18.972  0.00  0.00    +0.000 A 
ATOM      3  C   UNL     1       3.741   3.177  17.985  0.00  0.00    +0.000 A 
ATOM      4  C   UNL     1       4.146   4.276  17.239  0.00  0.00    +0.000 A 
ATOM      5  C   UNL     1       3.559   5.520  17.512  0.00  0.00    +0.000 A 
ATOM      6  C   UNL     1       2.613   5.703  18.548  0.00  0.00    +0.000 A 
ENDROOT
BRANCH   6   7
ATOM      7  C   UNL     1       2.090   7.062  18.809  0.00  0.00    +0.000 A 
ATOM      8  C   UNL     1       1.953   8.152  17.965  0.00  0.00    +0.000 A 
ATOM      9  C   UNL     1       1.491   9.320  18.642  0.00  0.00    +0.000 A 
ATOM     10  C   UNL     1       1.266   9.091  19.984  0.00  0.00    +0.000 A 
ATOM     11  S   UNL     1       1.520   7.463  20.385  0.00  0.00    +0.000 S 
BRANCH  10  12
ATOM     12  S   UNL     1       0.703  10.157  21.293  0.00  0.00    +0.000 S 
ATOM     13  O   UNL     1       0.561   9.356  22.483  0.00  0.00    +0.000 OA
ATOM     14  O   UNL     1       1.604  11.293  21.224  0.00  0.00    +0.000 OA
BRANCH  12  15
ATOM     15  N   UNL     1      -0.823  10.711  20.786  0.00  0.00    +0.000 NA
ATOM     16  H   UNL     1      -1.477  10.689  21.568  0.00  0.00    +0.000 HD
BRANCH  15  17
ATOM     17  C   UNL     1      -0.793  12.010  20.080  0.00  0.00    +0.000 C 
BRANCH  17  18
ATOM     18  C   UNL     1      -1.106  11.824  18.584  0.00  0.00    +0.000 C 
BRANCH  18  19
ATOM     19  N   UNL     1      -2.134  10.792  18.359  0.00  0.00    +0.000 NA
ATOM     20  C   UNL     1      -1.856   9.989  17.158  0.00  0.00    +0.000 C 
ATOM     21  C   UNL     1      -2.647  10.646  16.047  0.00  0.00    +0.000 C 
ATOM     22  C   UNL     1      -3.915  11.077  16.749  0.00  0.00    +0.000 C 
ATOM     23  C   UNL     1      -3.477  11.376  18.173  0.00  0.00    +0.000 C 
ENDBRANCH  18  19
ENDBRANCH  17  18
ENDBRANCH  15  17
ENDBRANCH  12  15
ENDBRANCH  10  12
ENDBRANCH   6   7
BRANCH   1  25
ATOM     24  C   UNL     1       1.219   3.559  21.163  0.00  0.00    +0.000 C 
ATOM     25  O   UNL     1       1.298   4.693  20.295  0.00  0.00    +0.000 OA
ENDBRANCH   1  25
BRANCH   4  26
ATOM     26  C   UNL     1       5.184   4.116  16.156  0.00  0.00    +0.000 C 
BRANCH  26  27
ATOM     27  N   UNL     1       6.481   3.728  16.704  0.00  0.00    +0.000 NA
ATOM     28  H   UNL     1       6.969   3.137  16.033  0.00  0.00    +0.000 HD
BRANCH  27  29
ATOM     29  C   UNL     1       7.325   4.874  17.077  0.00  0.00    +0.000 C 
ATOM     30  C   UNL     1       7.276   5.236  18.568  0.00  0.00    +0.000 C 
ATOM     31  C   UNL     1       8.087   6.502  18.849  0.00  0.00    +0.000 C 
ATOM     32  N   UNL     1       7.601   7.630  18.050  0.00  0.00    +0.000 NA
ATOM     33  C   UNL     1       8.356   8.843  18.368  0.00  0.00    +0.000 C 
ATOM     34  C   UNL     1       7.683   7.337  16.612  0.00  0.00    +0.000 C 
ATOM     35  C   UNL     1       6.879   6.087  16.249  0.00  0.00    +0.000 C 
ENDBRANCH  27  29
ENDBRANCH  26  27
ENDBRANCH   4  26
TORSDOF 10
ENDMDL
MODEL 4
REMARK VINA RESULT:      -7.4      1.558      2.670
REMARK  Name = 
REMARK  12 active torsions:
REMARK  status: ('A' for Active; 'I' for Inactive)
REMARK    1  A    between atoms: C_1  and  O_2
REMARK    2  A    between atoms: O_2  and  C_3
REMARK    3  A    between atoms: C_6  and  C_7
REMARK    4  A    between atoms: C_7  and  N_8
REMARK    5  A    between atoms: N_8  and  C_9
REMARK    6  A    between atoms: N_12  and  C_13
REMARK    7  A    between atoms: C_17  and  C_18
REMARK    8  A    between atoms: C_21  and  S_22
REMARK    9  A    between atoms: S_22  and  N_25
REMARK   10  A    between atoms: N_25  and  C_26
REMARK   11  A    between atoms: C_26  and  C_27
REMARK   12  A    between atoms: C_27  and  N_28
REMARK                            x       y       z     vdW  Elec       q    Type
REMARK                         _______ _______ _______ _____ _____    ______ ____
ROOT
ATOM      1  C   UNL     1       2.096   4.078  19.627  0.00  0.00    +0.000 A 
ATOM      2  C   UNL     1       2.556   2.885  19.051  0.00  0.00    +0.000 A 
ATOM      3  C   UNL     1       3.449   2.893  17.987  0.00  0.00    +0.000 A 
ATOM      4  C   UNL     1       3.862   4.093  17.426  0.00  0.00    +0.000 A 
ATOM      5  C   UNL     1       3.362   5.288  17.961  0.00  0.00    +0.000 A 
ATOM      6  C   UNL     1       2.496   5.315  19.079  0.00  0.00    +0.000 A 
ENDROOT
BRANCH   6   7
ATOM      7  C   UNL     1       2.063   6.623  19.620  0.00  0.00    +0.000 A 
ATOM      8  C   UNL     1       1.573   6.963  20.870  0.00  0.00    +0.000 A 
ATOM      9  C   UNL     1       1.176   8.331  20.954  0.00  0.00    +0.000 A 
ATOM     10  C   UNL     1       1.391   9.011  19.772  0.00  0.00    +0.000 A 
ATOM     11  S   UNL     1       2.150   8.025  18.620  0.00  0.00    +0.000 S 
BRANCH  10  12
ATOM     12  S   UNL     1       1.088  10.700  19.301  0.00  0.00    +0.000 S 
ATOM     13  O   UNL     1       1.291  11.525  20.465  0.00  0.00    +0.000 OA
ATOM     14  O   UNL     1       1.865  10.864  18.086  0.00  0.00    +0.000 OA
BRANCH  12  15
ATOM     15  N   UNL     1      -0.550  10.743  18.844  0.00  0.00    +0.000 NA
ATOM     16  H   UNL     1      -1.069  10.023  19.348  0.00  0.00    +0.000 HD
BRANCH  15  17
ATOM     17  C   UNL     1      -1.168  12.083  18.928  0.00  0.00    +0.000 C 
BRANCH  17  18
ATOM     18  C   UNL     1      -2.223  12.126  20.049  0.00  0.00    +0.000 C 
BRANCH  18  19
ATOM     19  N   UNL     1      -1.757  12.893  21.217  0.00  0.00    +0.000 NA
ATOM     20  C   UNL     1      -1.575  12.039  22.401  0.00  0.00    +0.000 C 
ATOM     21  C   UNL     1      -2.872  12.151  23.175  0.00  0.00    +0.000 C 
ATOM     22  C   UNL     1      -3.256  13.600  22.978  0.00  0.00    +0.000 C 
ATOM     23  C   UNL     1      -2.709  13.953  21.604  0.00  0.00    +0.000 C 
ENDBRANCH  18  19
ENDBRANCH  17  18
ENDBRANCH  15  17
ENDBRANCH  12  15
ENDBRANCH  10  12
ENDBRANCH   6   7
BRANCH   1  25
ATOM     24  C   UNL     1       1.420   2.925  21.566  0.00  0.00    +0.000 C 
ATOM     25  O   UNL     1       1.244   4.054  20.707  0.00  0.00    +0.000 OA
ENDBRANCH   1  25
BRANCH   4  26
ATOM     26  C   UNL     1       4.818   4.094  16.258  0.00  0.00    +0.000 C 
BRANCH  26  27
ATOM     27  N   UNL     1       6.150   3.639  16.650  0.00  0.00    +0.000 NA
ATOM     28  H   UNL     1       6.548   3.074  15.902  0.00  0.00    +0.000 HD
BRANCH  27  29
ATOM     29  C   UNL     1       7.065   4.739  16.996  0.00  0.00    +0.000 C 
ATOM     30  C   UNL     1       7.148   5.042  18.499  0.00  0.00    +0.000 C 
ATOM     31  C   UNL     1       8.027   6.266  18.760  0.00  0.00    +0.000 C 
ATOM     32  N   UNL     1       7.523   7.442  18.045  0.00  0.00    +0.000 NA
ATOM     33  C   UNL     1       8.347   8.613  18.346  0.00  0.00    +0.000 C 
ATOM     34  C   UNL     1       7.480   7.204  16.596  0.00  0.00    +0.000 C 
ATOM     35  C   UNL     1       6.601   5.999  16.253  0.00  0.00    +0.000 C 
ENDBRANCH  27  29
ENDBRANCH  26  27
ENDBRANCH   4  26
TORSDOF 10
ENDMDL
MODEL 5
REMARK VINA RESULT:      -7.4      2.048      3.337
REMARK  Name = 
REMARK  12 active torsions:
REMARK  status: ('A' for Active; 'I' for Inactive)
REMARK    1  A    between atoms: C_1  and  O_2
REMARK    2  A    between atoms: O_2  and  C_3
REMARK    3  A    between atoms: C_6  and  C_7
REMARK    4  A    between atoms: C_7  and  N_8
REMARK    5  A    between atoms: N_8  and  C_9
REMARK    6  A    between atoms: N_12  and  C_13
REMARK    7  A    between atoms: C_17  and  C_18
REMARK    8  A    between atoms: C_21  and  S_22
REMARK    9  A    between atoms: S_22  and  N_25
REMARK   10  A    between atoms: N_25  and  C_26
REMARK   11  A    between atoms: C_26  and  C_27
REMARK   12  A    between atoms: C_27  and  N_28
REMARK                            x       y       z     vdW  Elec       q    Type
REMARK                         _______ _______ _______ _____ _____    ______ ____
ROOT
ATOM      1  C   UNL     1       3.105   4.991  19.019  0.00  0.00    +0.000 A 
ATOM      2  C   UNL     1       3.999   3.918  18.895  0.00  0.00    +0.000 A 
ATOM      3  C   UNL     1       5.285   4.102  18.403  0.00  0.00    +0.000 A 
ATOM      4  C   UNL     1       5.698   5.352  17.962  0.00  0.00    +0.000 A 
ATOM      5  C   UNL     1       4.789   6.417  18.031  0.00  0.00    +0.000 A 
ATOM      6  C   UNL     1       3.492   6.275  18.579  0.00  0.00    +0.000 A 
ENDROOT
BRANCH   6   7
ATOM      7  C   UNL     1       2.618   7.466  18.670  0.00  0.00    +0.000 A 
ATOM      8  C   UNL     1       2.255   8.393  17.707  0.00  0.00    +0.000 A 
ATOM      9  C   UNL     1       1.464   9.457  18.235  0.00  0.00    +0.000 A 
ATOM     10  C   UNL     1       1.224   9.309  19.586  0.00  0.00    +0.000 A 
ATOM     11  S   UNL     1       1.867   7.853  20.173  0.00  0.00    +0.000 S 
BRANCH  10  12
ATOM     12  S   UNL     1       0.324  10.310  20.750  0.00  0.00    +0.000 S 
ATOM     13  O   UNL     1      -0.970   9.705  20.943  0.00  0.00    +0.000 OA
ATOM     14  O   UNL     1       1.264  10.501  21.840  0.00  0.00    +0.000 OA
BRANCH  12  15
ATOM     15  N   UNL     1       0.146  11.820  19.987  0.00  0.00    +0.000 NA
ATOM     16  H   UNL     1       0.840  11.916  19.245  0.00  0.00    +0.000 HD
BRANCH  15  17
ATOM     17  C   UNL     1      -1.233  12.118  19.548  0.00  0.00    +0.000 C 
BRANCH  17  18
ATOM     18  C   UNL     1      -1.417  11.770  18.058  0.00  0.00    +0.000 C 
BRANCH  18  19
ATOM     19  N   UNL     1      -2.501  10.794  17.849  0.00  0.00    +0.000 NA
ATOM     20  C   UNL     1      -2.374  10.097  16.560  0.00  0.00    +0.000 C 
ATOM     21  C   UNL     1      -3.246  10.876  15.599  0.00  0.00    +0.000 C 
ATOM     22  C   UNL     1      -4.421  11.277  16.461  0.00  0.00    +0.000 C 
ATOM     23  C   UNL     1      -3.833  11.431  17.854  0.00  0.00    +0.000 C 
ENDBRANCH  18  19
ENDBRANCH  17  18
ENDBRANCH  15  17
ENDBRANCH  12  15
ENDBRANCH  10  12
ENDBRANCH   6   7
BRANCH   1  25
ATOM     24  C   UNL     1       1.378   3.455  19.468  0.00  0.00    +0.000 C 
ATOM     25  O   UNL     1       1.849   4.803  19.546  0.00  0.00    +0.000 OA
ENDBRANCH   1  25
BRANCH   4  26
ATOM     26  C   UNL     1       7.090   5.540  17.412  0.00  0.00    +0.000 C 
BRANCH  26  27
ATOM     27  N   UNL     1       7.066   5.966  16.015  0.00  0.00    +0.000 NA
ATOM     28  H   UNL     1       7.925   6.467  15.799  0.00  0.00    +0.000 HD
BRANCH  27  29
ATOM     29  C   UNL     1       6.877   4.855  15.068  0.00  0.00    +0.000 C 
ATOM     30  C   UNL     1       7.531   5.077  13.697  0.00  0.00    +0.000 C 
ATOM     31  C   UNL     1       7.193   3.933  12.740  0.00  0.00    +0.000 C 
ATOM     32  N   UNL     1       5.742   3.791  12.579  0.00  0.00    +0.000 NA
ATOM     33  C   UNL     1       5.438   2.726  11.622  0.00  0.00    +0.000 C 
ATOM     34  C   UNL     1       5.089   3.525  13.867  0.00  0.00    +0.000 C 
ATOM     35  C   UNL     1       5.369   4.640  14.877  0.00  0.00    +0.000 C 
ENDBRANCH  27  29
ENDBRANCH  26  27
ENDBRANCH   4  26
TORSDOF 10
ENDMDL
MODEL 6
REMARK VINA RESULT:      -7.4      3.164      5.077
REMARK  Name = 
REMARK  12 active torsions:
REMARK  status: ('A' for Active; 'I' for Inactive)
REMARK    1  A    between atoms: C_1  and  O_2
REMARK    2  A    between atoms: O_2  and  C_3
REMARK    3  A    between atoms: C_6  and  C_7
REMARK    4  A    between atoms: C_7  and  N_8
REMARK    5  A    between atoms: N_8  and  C_9
REMARK    6  A    between atoms: N_12  and  C_13
REMARK    7  A    between atoms: C_17  and  C_18
REMARK    8  A    between atoms: C_21  and  S_22
REMARK    9  A    between atoms: S_22  and  N_25
REMARK   10  A    between atoms: N_25  and  C_26
REMARK   11  A    between atoms: C_26  and  C_27
REMARK   12  A    between atoms: C_27  and  N_28
REMARK                            x       y       z     vdW  Elec       q    Type
REMARK                         _______ _______ _______ _____ _____    ______ ____
ROOT
ATOM      1  C   UNL     1       0.980   9.574  18.796  0.00  0.00    +0.000 A 
ATOM      2  C   UNL     1       1.673   8.890  17.787  0.00  0.00    +0.000 A 
ATOM      3  C   UNL     1       2.309   7.682  18.038  0.00  0.00    +0.000 A 
ATOM      4  C   UNL     1       2.326   7.149  19.320  0.00  0.00    +0.000 A 
ATOM      5  C   UNL     1       1.683   7.857  20.346  0.00  0.00    +0.000 A 
ATOM      6  C   UNL     1       0.978   9.061  20.111  0.00  0.00    +0.000 A 
ENDROOT
BRANCH   6   7
ATOM      7  C   UNL     1       0.275   9.712  21.239  0.00  0.00    +0.000 A 
ATOM      8  C   UNL     1      -0.162   9.194  22.447  0.00  0.00    +0.000 A 
ATOM      9  C   UNL     1      -0.891  10.143  23.223  0.00  0.00    +0.000 A 
ATOM     10  C   UNL     1      -0.978  11.372  22.600  0.00  0.00    +0.000 A 
ATOM     11  S   UNL     1      -0.106  11.390  21.146  0.00  0.00    +0.000 S 
BRANCH  10  12
ATOM     12  S   UNL     1      -1.756  12.897  23.084  0.00  0.00    +0.000 S 
ATOM     13  O   UNL     1      -2.932  12.568  23.849  0.00  0.00    +0.000 OA
ATOM     14  O   UNL     1      -0.666  13.682  23.633  0.00  0.00    +0.000 OA
BRANCH  12  15
ATOM     15  N   UNL     1      -2.209  13.643  21.624  0.00  0.00    +0.000 NA
ATOM     16  H   UNL     1      -1.885  13.084  20.835  0.00  0.00    +0.000 HD
BRANCH  15  17
ATOM     17  C   UNL     1      -3.641  14.001  21.545  0.00  0.00    +0.000 C 
BRANCH  17  18
ATOM     18  C   UNL     1      -4.399  13.014  20.637  0.00  0.00    +0.000 C 
BRANCH  18  19
ATOM     19  N   UNL     1      -5.414  12.248  21.382  0.00  0.00    +0.000 NA
ATOM     20  C   UNL     1      -6.464  11.719  20.498  0.00  0.00    +0.000 C 
ATOM     21  C   UNL     1      -7.580  12.741  20.548  0.00  0.00    +0.000 C 
ATOM     22  C   UNL     1      -7.555  13.195  21.990  0.00  0.00    +0.000 C 
ATOM     23  C   UNL     1      -6.097  13.071  22.400  0.00  0.00    +0.000 C 
ENDBRANCH  18  19
ENDBRANCH  17  18
ENDBRANCH  15  17
ENDBRANCH  12  15
ENDBRANCH  10  12
ENDBRANCH   6   7
BRANCH   1  25
ATOM     24  C   UNL     1      -0.935  10.573  17.859  0.00  0.00    +0.000 C 
ATOM     25  O   UNL     1       0.319  10.749  18.523  0.00  0.00    +0.000 OA
ENDBRANCH   1  25
BRANCH   4  26
ATOM     26  C   UNL     1       3.035   5.845  19.590  0.00  0.00    +0.000 C 
BRANCH  26  27
ATOM     27  N   UNL     1       4.485   6.018  19.633  0.00  0.00    +0.000 NA
ATOM     28  H   UNL     1       4.843   5.650  20.513  0.00  0.00    +0.000 HD
BRANCH  27  29
ATOM     29  C   UNL     1       5.183   5.389  18.500  0.00  0.00    +0.000 C 
ATOM     30  C   UNL     1       5.769   6.385  17.489  0.00  0.00    +0.000 C 
ATOM     31  C   UNL     1       6.374   5.652  16.291  0.00  0.00    +0.000 C 
ATOM     32  N   UNL     1       5.376   4.805  15.630  0.00  0.00    +0.000 NA
ATOM     33  C   UNL     1       5.959   4.151  14.457  0.00  0.00    +0.000 C 
ATOM     34  C   UNL     1       4.831   3.804  16.557  0.00  0.00    +0.000 C 
ATOM     35  C   UNL     1       4.191   4.465  17.780  0.00  0.00    +0.000 C 
ENDBRANCH  27  29
ENDBRANCH  26  27
ENDBRANCH   4  26
TORSDOF 10
ENDMDL
MODEL 7
REMARK VINA RESULT:      -7.3      3.815      5.596
REMARK  Name = 
REMARK  12 active torsions:
REMARK  status: ('A' for Active; 'I' for Inactive)
REMARK    1  A    between atoms: C_1  and  O_2
REMARK    2  A    between atoms: O_2  and  C_3
REMARK    3  A    between atoms: C_6  and  C_7
REMARK    4  A    between atoms: C_7  and  N_8
REMARK    5  A    between atoms: N_8  and  C_9
REMARK    6  A    between atoms: N_12  and  C_13
REMARK    7  A    between atoms: C_17  and  C_18
REMARK    8  A    between atoms: C_21  and  S_22
REMARK    9  A    between atoms: S_22  and  N_25
REMARK   10  A    between atoms: N_25  and  C_26
REMARK   11  A    between atoms: C_26  and  C_27
REMARK   12  A    between atoms: C_27  and  N_28
REMARK                            x       y       z     vdW  Elec       q    Type
REMARK                         _______ _______ _______ _____ _____    ______ ____
ROOT
ATOM      1  C   UNL     1       1.407   9.699  18.828  0.00  0.00    +0.000 A 
ATOM      2  C   UNL     1       2.095   9.049  17.793  0.00  0.00    +0.000 A 
ATOM      3  C   UNL     1       2.537   7.739  17.929  0.00  0.00    +0.000 A 
ATOM      4  C   UNL     1       2.359   7.058  19.126  0.00  0.00    +0.000 A 
ATOM      5  C   UNL     1       1.722   7.722  20.184  0.00  0.00    +0.000 A 
ATOM      6  C   UNL     1       1.211   9.035  20.058  0.00  0.00    +0.000 A 
ENDROOT
BRANCH   6   7
ATOM      7  C   UNL     1       0.497   9.639  21.205  0.00  0.00    +0.000 A 
ATOM      8  C   UNL     1       0.464   9.273  22.540  0.00  0.00    +0.000 A 
ATOM      9  C   UNL     1      -0.435  10.069  23.310  0.00  0.00    +0.000 A 
ATOM     10  C   UNL     1      -1.055  11.039  22.550  0.00  0.00    +0.000 A 
ATOM     11  S   UNL     1      -0.478  11.039  20.955  0.00  0.00    +0.000 S 
BRANCH  10  12
ATOM     12  S   UNL     1      -2.253  12.288  22.964  0.00  0.00    +0.000 S 
ATOM     13  O   UNL     1      -3.284  11.664  23.756  0.00  0.00    +0.000 OA
ATOM     14  O   UNL     1      -1.447  13.387  23.464  0.00  0.00    +0.000 OA
BRANCH  12  15
ATOM     15  N   UNL     1      -2.898  12.793  21.474  0.00  0.00    +0.000 NA
ATOM     16  H   UNL     1      -2.421  12.313  20.710  0.00  0.00    +0.000 HD
BRANCH  15  17
ATOM     17  C   UNL     1      -4.371  12.712  21.392  0.00  0.00    +0.000 C 
BRANCH  17  18
ATOM     18  C   UNL     1      -4.994  14.121  21.390  0.00  0.00    +0.000 C 
BRANCH  18  19
ATOM     19  N   UNL     1      -4.787  14.818  22.672  0.00  0.00    +0.000 NA
ATOM     20  C   UNL     1      -5.719  14.352  23.710  0.00  0.00    +0.000 C 
ATOM     21  C   UNL     1      -6.879  15.324  23.669  0.00  0.00    +0.000 C 
ATOM     22  C   UNL     1      -6.200  16.645  23.388  0.00  0.00    +0.000 C 
ATOM     23  C   UNL     1      -4.987  16.276  22.551  0.00  0.00    +0.000 C 
ENDBRANCH  18  19
ENDBRANCH  17  18
ENDBRANCH  15  17
ENDBRANCH  12  15
ENDBRANCH  10  12
ENDBRANCH   6   7
BRANCH   1  25
ATOM     24  C   UNL     1       1.958  11.945  18.391  0.00  0.00    +0.000 C 
ATOM     25  O   UNL     1       0.939  10.981  18.664  0.00  0.00    +0.000 OA
ENDBRANCH   1  25
BRANCH   4  26
ATOM     26  C   UNL     1       2.858   5.642  19.273  0.00  0.00    +0.000 C 
BRANCH  26  27
ATOM     27  N   UNL     1       4.270   5.602  19.645  0.00  0.00    +0.000 NA
ATOM     28  H   UNL     1       4.382   5.041  20.487  0.00  0.00    +0.000 HD
BRANCH  27  29
ATOM     29  C   UNL     1       5.142   5.090  18.576  0.00  0.00    +0.000 C 
ATOM     30  C   UNL     1       6.027   6.158  17.916  0.00  0.00    +0.000 C 
ATOM     31  C   UNL     1       6.814   5.567  16.746  0.00  0.00    +0.000 C 
ATOM     32  N   UNL     1       5.915   4.982  15.746  0.00  0.00    +0.000 NA
ATOM     33  C   UNL     1       6.682   4.467  14.611  0.00  0.00    +0.000 C 
ATOM     34  C   UNL     1       5.089   3.918  16.332  0.00  0.00    +0.000 C 
ATOM     35  C   UNL     1       4.256   4.439  17.505  0.00  0.00    +0.000 C 
ENDBRANCH  27  29
ENDBRANCH  26  27
ENDBRANCH   4  26
TORSDOF 10
ENDMDL
MODEL 8
REMARK VINA RESULT:      -7.1      4.048      8.570
REMARK  Name = 
REMARK  12 active torsions:
REMARK  status: ('A' for Active; 'I' for Inactive)
REMARK    1  A    between atoms: C_1  and  O_2
REMARK    2  A    between atoms: O_2  and  C_3
REMARK    3  A    between atoms: C_6  and  C_7
REMARK    4  A    between atoms: C_7  and  N_8
REMARK    5  A    between atoms: N_8  and  C_9
REMARK    6  A    between atoms: N_12  and  C_13
REMARK    7  A    between atoms: C_17  and  C_18
REMARK    8  A    between atoms: C_21  and  S_22
REMARK    9  A    between atoms: S_22  and  N_25
REMARK   10  A    between atoms: N_25  and  C_26
REMARK   11  A    between atoms: C_26  and  C_27
REMARK   12  A    between atoms: C_27  and  N_28
REMARK                            x       y       z     vdW  Elec       q    Type
REMARK                         _______ _______ _______ _____ _____    ______ ____
ROOT
ATOM      1  C   UNL     1      -0.234  11.843  21.938  0.00  0.00    +0.000 A 
ATOM      2  C   UNL     1      -0.794  10.855  22.761  0.00  0.00    +0.000 A 
ATOM      3  C   UNL     1      -0.431   9.520  22.637  0.00  0.00    +0.000 A 
ATOM      4  C   UNL     1       0.456   9.121  21.645  0.00  0.00    +0.000 A 
ATOM      5  C   UNL     1       0.976  10.097  20.783  0.00  0.00    +0.000 A 
ATOM      6  C   UNL     1       0.670  11.471  20.919  0.00  0.00    +0.000 A 
ENDROOT
BRANCH   6   7
ATOM      7  C   UNL     1       1.311  12.442  20.005  0.00  0.00    +0.000 A 
ATOM      8  C   UNL     1       1.029  12.760  18.687  0.00  0.00    +0.000 A 
ATOM      9  C   UNL     1       1.956  13.691  18.132  0.00  0.00    +0.000 A 
ATOM     10  C   UNL     1       2.916  14.080  19.045  0.00  0.00    +0.000 A 
ATOM     11  S   UNL     1       2.629  13.397  20.571  0.00  0.00    +0.000 S 
BRANCH  10  12
ATOM     12  S   UNL     1       4.299  15.190  18.914  0.00  0.00    +0.000 S 
ATOM     13  O   UNL     1       3.810  16.445  18.401  0.00  0.00    +0.000 OA
ATOM     14  O   UNL     1       4.954  15.080  20.205  0.00  0.00    +0.000 OA
BRANCH  12  15
ATOM     15  N   UNL     1       5.338  14.469  17.776  0.00  0.00    +0.000 NA
ATOM     16  H   UNL     1       4.988  14.639  16.833  0.00  0.00    +0.000 HD
BRANCH  15  17
ATOM     17  C   UNL     1       6.763  14.820  17.948  0.00  0.00    +0.000 C 
BRANCH  17  18
ATOM     18  C   UNL     1       7.666  13.634  17.558  0.00  0.00    +0.000 C 
BRANCH  18  19
ATOM     19  N   UNL     1       8.838  13.518  18.444  0.00  0.00    +0.000 NA
ATOM     20  C   UNL     1      10.072  13.980  17.790  0.00  0.00    +0.000 C 
ATOM     21  C   UNL     1      10.710  12.732  17.217  0.00  0.00    +0.000 C 
ATOM     22  C   UNL     1      10.410  11.688  18.268  0.00  0.00    +0.000 C 
ATOM     23  C   UNL     1       9.081  12.124  18.864  0.00  0.00    +0.000 C 
ENDBRANCH  18  19
ENDBRANCH  17  18
ENDBRANCH  15  17
ENDBRANCH  12  15
ENDBRANCH  10  12
ENDBRANCH   6   7
BRANCH   1  25
ATOM     24  C   UNL     1      -1.974  13.426  22.025  0.00  0.00    +0.000 C 
ATOM     25  O   UNL     1      -0.571  13.166  22.100  0.00  0.00    +0.000 OA
ENDBRANCH   1  25
BRANCH   4  26
ATOM     26  C   UNL     1       0.830   7.667  21.505  0.00  0.00    +0.000 C 
BRANCH  26  27
ATOM     27  N   UNL     1       2.018   7.493  20.672  0.00  0.00    +0.000 NA
ATOM     28  H   UNL     1       2.850   7.517  21.259  0.00  0.00    +0.000 HD
BRANCH  27  29
ATOM     29  C   UNL     1       1.997   6.256  19.875  0.00  0.00    +0.000 C 
ATOM     30  C   UNL     1       2.059   4.967  20.708  0.00  0.00    +0.000 C 
ATOM     31  C   UNL     1       2.148   3.737  19.803  0.00  0.00    +0.000 C 
ATOM     32  N   UNL     1       3.318   3.813  18.922  0.00  0.00    +0.000 NA
ATOM     33  C   UNL     1       3.416   2.606  18.100  0.00  0.00    +0.000 C 
ATOM     34  C   UNL     1       3.266   5.010  18.072  0.00  0.00    +0.000 C 
ATOM     35  C   UNL     1       3.191   6.288  18.910  0.00  0.00    +0.000 C 
ENDBRANCH  27  29
ENDBRANCH  26  27
ENDBRANCH   4  26
TORSDOF 10
ENDMDL
MODEL 9
REMARK VINA RESULT:      -7.1      1.974      3.199
REMARK  Name = 
REMARK  12 active torsions:
REMARK  status: ('A' for Active; 'I' for Inactive)
REMARK    1  A    between atoms: C_1  and  O_2
REMARK    2  A    between atoms: O_2  and  C_3
REMARK    3  A    between atoms: C_6  and  C_7
REMARK    4  A    between atoms: C_7  and  N_8
REMARK    5  A    between atoms: N_8  and  C_9
REMARK    6  A    between atoms: N_12  and  C_13
REMARK    7  A    between atoms: C_17  and  C_18
REMARK    8  A    between atoms: C_21  and  S_22
REMARK    9  A    between atoms: S_22  and  N_25
REMARK   10  A    between atoms: N_25  and  C_26
REMARK   11  A    between atoms: C_26  and  C_27
REMARK   12  A    between atoms: C_27  and  N_28
REMARK                            x       y       z     vdW  Elec       q    Type
REMARK                         _______ _______ _______ _____ _____    ______ ____
ROOT
ATOM      1  C   UNL     1       2.779   5.063  19.587  0.00  0.00    +0.000 A 
ATOM      2  C   UNL     1       3.579   3.913  19.541  0.00  0.00    +0.000 A 
ATOM      3  C   UNL     1       4.796   3.905  18.871  0.00  0.00    +0.000 A 
ATOM      4  C   UNL     1       5.222   5.027  18.174  0.00  0.00    +0.000 A 
ATOM      5  C   UNL     1       4.400   6.163  18.170  0.00  0.00    +0.000 A 
ATOM      6  C   UNL     1       3.183   6.221  18.889  0.00  0.00    +0.000 A 
ENDROOT
BRANCH   6   7
ATOM      7  C   UNL     1       2.405   7.480  18.881  0.00  0.00    +0.000 A 
ATOM      8  C   UNL     1       2.000   8.282  17.826  0.00  0.00    +0.000 A 
ATOM      9  C   UNL     1       1.345   9.473  18.258  0.00  0.00    +0.000 A 
ATOM     10  C   UNL     1       1.247   9.547  19.633  0.00  0.00    +0.000 A 
ATOM     11  S   UNL     1       1.853   8.146  20.372  0.00  0.00    +0.000 S 
BRANCH  10  12
ATOM     12  S   UNL     1       0.550  10.780  20.710  0.00  0.00    +0.000 S 
ATOM     13  O   UNL     1       0.682  10.306  22.065  0.00  0.00    +0.000 OA
ATOM     14  O   UNL     1       1.158  12.017  20.257  0.00  0.00    +0.000 OA
BRANCH  12  15
ATOM     15  N   UNL     1      -1.095  10.858  20.285  0.00  0.00    +0.000 NA
ATOM     16  H   UNL     1      -1.673  10.677  21.105  0.00  0.00    +0.000 HD
BRANCH  15  17
ATOM     17  C   UNL     1      -1.474  12.087  19.557  0.00  0.00    +0.000 C 
BRANCH  17  18
ATOM     18  C   UNL     1      -1.326  11.887  18.037  0.00  0.00    +0.000 C 
BRANCH  18  19
ATOM     19  N   UNL     1      -2.631  11.744  17.368  0.00  0.00    +0.000 NA
ATOM     20  C   UNL     1      -3.569  10.931  18.158  0.00  0.00    +0.000 C 
ATOM     21  C   UNL     1      -3.432   9.524  17.615  0.00  0.00    +0.000 C 
ATOM     22  C   UNL     1      -3.235   9.754  16.134  0.00  0.00    +0.000 C 
ATOM     23  C   UNL     1      -2.513  11.088  16.050  0.00  0.00    +0.000 C 
ENDBRANCH  18  19
ENDBRANCH  17  18
ENDBRANCH  15  17
ENDBRANCH  12  15
ENDBRANCH  10  12
ENDBRANCH   6   7
BRANCH   1  25
ATOM     24  C   UNL     1       1.001   3.779  20.443  0.00  0.00    +0.000 C 
ATOM     25  O   UNL     1       1.597   5.069  20.290  0.00  0.00    +0.000 OA
ENDBRANCH   1  25
BRANCH   4  26
ATOM     26  C   UNL     1       6.536   5.005  17.434  0.00  0.00    +0.000 C 
BRANCH  26  27
ATOM     27  N   UNL     1       6.582   6.021  16.385  0.00  0.00    +0.000 NA
ATOM     28  H   UNL     1       7.514   6.432  16.352  0.00  0.00    +0.000 HD
BRANCH  27  29
ATOM     29  C   UNL     1       6.209   5.508  15.057  0.00  0.00    +0.000 C 
ATOM     30  C   UNL     1       5.303   4.269  15.090  0.00  0.00    +0.000 C 
ATOM     31  C   UNL     1       5.057   3.735  13.678  0.00  0.00    +0.000 C 
ATOM     32  N   UNL     1       6.320   3.406  13.011  0.00  0.00    +0.000 NA
ATOM     33  C   UNL     1       6.064   2.850  11.681  0.00  0.00    +0.000 C 
ATOM     34  C   UNL     1       7.193   4.584  12.915  0.00  0.00    +0.000 C 
ATOM     35  C   UNL     1       7.498   5.168  14.296  0.00  0.00    +0.000 C 
ENDBRANCH  27  29
ENDBRANCH  26  27
ENDBRANCH   4  26
TORSDOF 10
ENDMDL
