MODEL 1
REMARK VINA RESULT:      -8.6      0.000      0.000
REMARK  Name = 
REMARK  9 active torsions:
REMARK  status: ('A' for Active; 'I' for Inactive)
REMARK    1  A    between atoms: C_1  and  C_2
REMARK    2  A    between atoms: C_7  and  C_8
REMARK    3  A    between atoms: C_12  and  C_13
REMARK    4  A    between atoms: C_14  and  O_15
REMARK    5  A    between atoms: O_15  and  C_16
REMARK    6  A    between atoms: C_21  and  O_22
REMARK    7  A    between atoms: O_22  and  C_23
REMARK    8  A    between atoms: C_23  and  C_24
REMARK    9  A    between atoms: C_24  and  N_25
REMARK                            x       y       z     vdW  Elec       q    Type
REMARK                         _______ _______ _______ _____ _____    ______ ____
ROOT
ATOM      1  C   UNL     1       2.428   5.397  19.844  0.00  0.00    +0.000 A 
ATOM      2  C   UNL     1       1.257   4.987  20.521  0.00  0.00    +0.000 A 
ATOM      3  C   UNL     1       0.639   3.765  20.229  0.00  0.00    +0.000 A 
ATOM      4  C   UNL     1       1.233   2.882  19.338  0.00  0.00    +0.000 A 
ATOM      5  C   UNL     1       2.412   3.250  18.691  0.00  0.00    +0.000 A 
ATOM      6  C   UNL     1       3.018   4.498  18.929  0.00  0.00    +0.000 A 
ENDROOT
BRANCH   1   7
ATOM      7  O   UNL     1       2.928   6.690  20.004  0.00  0.00    +0.000 OA
BRANCH   7  19
ATOM      8  C   UNL     1       2.979   7.496  17.129  0.00  0.00    +0.000 C 
ATOM      9  C   UNL     1       2.227   8.192  18.244  0.00  0.00    +0.000 A 
ATOM     10  C   UNL     1       1.525   9.340  17.840  0.00  0.00    +0.000 A 
ATOM     11  C   UNL     1       0.703  10.046  18.713  0.00  0.00    +0.000 A 
ATOM     12  C   UNL     1      -0.012  11.148  18.225  0.00  0.00    +0.000 A 
ATOM     13  C   UNL     1      -0.897  11.840  19.044  0.00  0.00    +0.000 A 
ATOM     14  C   UNL     1      -1.035  11.446  20.370  0.00  0.00    +0.000 A 
ATOM     15  C   UNL     1      -0.305  10.370  20.863  0.00  0.00    +0.000 A 
ATOM     16  C   UNL     1       0.567   9.614  20.052  0.00  0.00    +0.000 A 
ATOM     17  C   UNL     1       1.261   8.449  20.498  0.00  0.00    +0.000 A 
ATOM     18  C   UNL     1       0.969   7.883  21.878  0.00  0.00    +0.000 C 
ATOM     19  C   UNL     1       2.158   7.783  19.599  0.00  0.00    +0.000 A 
BRANCH  14  20
ATOM     20  C   UNL     1      -1.968  12.119  21.226  0.00  0.00    +0.000 C 
ATOM     21  N   UNL     1      -2.727  12.633  21.922  0.00  0.00    +0.000 NA
ENDBRANCH  14  20
ENDBRANCH   7  19
ENDBRANCH   1   7
BRANCH   6  22
ATOM     22  O   UNL     1       4.118   4.695  18.131  0.00  0.00    +0.000 OA
BRANCH  22  23
ATOM     23  C   UNL     1       4.147   3.978  16.903  0.00  0.00    +0.000 C 
BRANCH  23  24
ATOM     24  C   UNL     1       5.597   3.850  16.422  0.00  0.00    +0.000 C 
BRANCH  24  25
ATOM     25  N   UNL     1       6.422   4.963  16.901  0.00  0.00    +0.000 N 
ATOM     26  C   UNL     1       7.117   4.830  18.088  0.00  0.00    +0.000 A 
ATOM     27  C   UNL     1       7.791   5.847  18.626  0.00  0.00    +0.000 A 
ATOM     28  C   UNL     1       7.786   7.146  17.934  0.00  0.00    +0.000 A 
ATOM     29  O   UNL     1       8.299   8.135  18.444  0.00  0.00    +0.000 OA
ATOM     30  N   UNL     1       7.162   7.170  16.722  0.00  0.00    +0.000 N 
ATOM     31  C   UNL     1       6.393   6.163  16.200  0.00  0.00    +0.000 A 
ATOM     32  O   UNL     1       5.718   6.355  15.192  0.00  0.00    +0.000 OA
ATOM     33  H   UNL     1       7.125   8.056  16.243  0.00  0.00    +0.000 HD
ENDBRANCH  24  25
ENDBRANCH  23  24
ENDBRANCH  22  23
ENDBRANCH   6  22
TORSDOF 7
ENDMDL
MODEL 2
REMARK VINA RESULT:      -8.5      1.125      1.583
REMARK  Name = 
REMARK  9 active torsions:
REMARK  status: ('A' for Active; 'I' for Inactive)
REMARK    1  A    between atoms: C_1  and  C_2
REMARK    2  A    between atoms: C_7  and  C_8
REMARK    3  A    between atoms: C_12  and  C_13
REMARK    4  A    between atoms: C_14  and  O_15
REMARK    5  A    between atoms: O_15  and  C_16
REMARK    6  A    between atoms: C_21  and  O_22
REMARK    7  A    between atoms: O_22  and  C_23
REMARK    8  A    between atoms: C_23  and  C_24
REMARK    9  A    between atoms: C_24  and  N_25
REMARK                            x       y       z     vdW  Elec       q    Type
REMARK                         _______ _______ _______ _____ _____    ______ ____
ROOT
ATOM      1  C   UNL     1       2.711   5.055  19.635  0.00  0.00    +0.000 A 
ATOM      2  C   UNL     1       1.364   4.635  19.721  0.00  0.00    +0.000 A 
ATOM      3  C   UNL     1       0.939   3.436  19.136  0.00  0.00    +0.000 A 
ATOM      4  C   UNL     1       1.864   2.584  18.548  0.00  0.00    +0.000 A 
ATOM      5  C   UNL     1       3.204   2.962  18.491  0.00  0.00    +0.000 A 
ATOM      6  C   UNL     1       3.643   4.189  19.023  0.00  0.00    +0.000 A 
ENDROOT
BRANCH   1   7
ATOM      7  O   UNL     1       3.087   6.333  20.054  0.00  0.00    +0.000 OA
BRANCH   7  19
ATOM      8  C   UNL     1       3.450   7.128  17.199  0.00  0.00    +0.000 C 
ATOM      9  C   UNL     1       2.612   7.850  18.233  0.00  0.00    +0.000 A 
ATOM     10  C   UNL     1       1.991   9.018  17.761  0.00  0.00    +0.000 A 
ATOM     11  C   UNL     1       1.108   9.752  18.547  0.00  0.00    +0.000 A 
ATOM     12  C   UNL     1       0.481  10.875  17.991  0.00  0.00    +0.000 A 
ATOM     13  C   UNL     1      -0.459  11.597  18.716  0.00  0.00    +0.000 A 
ATOM     14  C   UNL     1      -0.742  11.212  20.022  0.00  0.00    +0.000 A 
ATOM     15  C   UNL     1      -0.099  10.115  20.586  0.00  0.00    +0.000 A 
ATOM     16  C   UNL     1       0.826   9.330  19.866  0.00  0.00    +0.000 A 
ATOM     17  C   UNL     1       1.435   8.144  20.379  0.00  0.00    +0.000 A 
ATOM     18  C   UNL     1       0.989   7.593  21.723  0.00  0.00    +0.000 C 
ATOM     19  C   UNL     1       2.396   7.448  19.575  0.00  0.00    +0.000 A 
BRANCH  14  20
ATOM     20  C   UNL     1      -1.734  11.916  20.780  0.00  0.00    +0.000 C 
ATOM     21  N   UNL     1      -2.510  12.497  21.401  0.00  0.00    +0.000 NA
ENDBRANCH  14  20
ENDBRANCH   7  19
ENDBRANCH   1   7
BRANCH   6  22
ATOM     22  O   UNL     1       4.978   4.404  18.788  0.00  0.00    +0.000 OA
BRANCH  22  23
ATOM     23  C   UNL     1       5.430   4.185  17.456  0.00  0.00    +0.000 C 
BRANCH  23  24
ATOM     24  C   UNL     1       6.950   4.376  17.397  0.00  0.00    +0.000 C 
BRANCH  24  25
ATOM     25  N   UNL     1       7.335   5.741  17.769  0.00  0.00    +0.000 N 
ATOM     26  C   UNL     1       7.079   6.779  16.895  0.00  0.00    +0.000 A 
ATOM     27  C   UNL     1       7.509   8.020  17.132  0.00  0.00    +0.000 A 
ATOM     28  C   UNL     1       8.281   8.281  18.357  0.00  0.00    +0.000 A 
ATOM     29  O   UNL     1       8.787   9.378  18.562  0.00  0.00    +0.000 OA
ATOM     30  N   UNL     1       8.406   7.228  19.214  0.00  0.00    +0.000 N 
ATOM     31  C   UNL     1       8.050   5.933  18.945  0.00  0.00    +0.000 A 
ATOM     32  O   UNL     1       8.380   5.027  19.707  0.00  0.00    +0.000 OA
ATOM     33  H   UNL     1       8.952   7.379  20.048  0.00  0.00    +0.000 HD
ENDBRANCH  24  25
ENDBRANCH  23  24
ENDBRANCH  22  23
ENDBRANCH   6  22
TORSDOF 7
ENDMDL
MODEL 3
REMARK VINA RESULT:      -8.5      1.379      1.983
REMARK  Name = 
REMARK  9 active torsions:
REMARK  status: ('A' for Active; 'I' for Inactive)
REMARK    1  A    between atoms: C_1  and  C_2
REMARK    2  A    between atoms: C_7  and  C_8
REMARK    3  A    between atoms: C_12  and  C_13
REMARK    4  A    between atoms: C_14  and  O_15
REMARK    5  A    between atoms: O_15  and  C_16
REMARK    6  A    between atoms: C_21  and  O_22
REMARK    7  A    between atoms: O_22  and  C_23
REMARK    8  A    between atoms: C_23  and  C_24
REMARK    9  A    between atoms: C_24  and  N_25
REMARK                            x       y       z     vdW  Elec       q    Type
REMARK                         _______ _______ _______ _____ _____    ______ ____
ROOT
ATOM      1  C   UNL     1       2.578   4.911  19.867  0.00  0.00    +0.000 A 
ATOM      2  C   UNL     1       2.073   4.477  21.113  0.00  0.00    +0.000 A 
ATOM      3  C   UNL     1       1.198   3.387  21.203  0.00  0.00    +0.000 A 
ATOM      4  C   UNL     1       0.894   2.646  20.069  0.00  0.00    +0.000 A 
ATOM      5  C   UNL     1       1.417   3.033  18.836  0.00  0.00    +0.000 A 
ATOM      6  C   UNL     1       2.253   4.159  18.717  0.00  0.00    +0.000 A 
ENDROOT
BRANCH   1   7
ATOM      7  O   UNL     1       3.294   6.105  19.765  0.00  0.00    +0.000 OA
BRANCH   7  19
ATOM      8  C   UNL     1       3.751   7.165  17.011  0.00  0.00    +0.000 C 
ATOM      9  C   UNL     1       2.896   7.800  18.087  0.00  0.00    +0.000 A 
ATOM     10  C   UNL     1       2.307   9.019  17.715  0.00  0.00    +0.000 A 
ATOM     11  C   UNL     1       1.415   9.691  18.545  0.00  0.00    +0.000 A 
ATOM     12  C   UNL     1       0.822  10.874  18.084  0.00  0.00    +0.000 A 
ATOM     13  C   UNL     1      -0.126  11.540  18.851  0.00  0.00    +0.000 A 
ATOM     14  C   UNL     1      -0.451  11.036  20.106  0.00  0.00    +0.000 A 
ATOM     15  C   UNL     1       0.157   9.877  20.577  0.00  0.00    +0.000 A 
ATOM     16  C   UNL     1       1.089   9.148  19.809  0.00  0.00    +0.000 A 
ATOM     17  C   UNL     1       1.664   7.907  20.220  0.00  0.00    +0.000 A 
ATOM     18  C   UNL     1       1.171   7.237  21.492  0.00  0.00    +0.000 C 
ATOM     19  C   UNL     1       2.635   7.274  19.378  0.00  0.00    +0.000 A 
BRANCH  14  20
ATOM     20  C   UNL     1      -1.452  11.682  20.902  0.00  0.00    +0.000 C 
ATOM     21  N   UNL     1      -2.260  12.221  21.521  0.00  0.00    +0.000 NA
ENDBRANCH  14  20
ENDBRANCH   7  19
ENDBRANCH   1   7
BRANCH   6  22
ATOM     22  O   UNL     1       2.587   4.414  17.410  0.00  0.00    +0.000 OA
BRANCH  22  23
ATOM     23  C   UNL     1       3.435   3.464  16.775  0.00  0.00    +0.000 C 
BRANCH  23  24
ATOM     24  C   UNL     1       4.875   3.663  17.259  0.00  0.00    +0.000 C 
BRANCH  24  25
ATOM     25  N   UNL     1       5.712   4.275  16.222  0.00  0.00    +0.000 N 
ATOM     26  C   UNL     1       5.462   3.990  14.894  0.00  0.00    +0.000 A 
ATOM     27  C   UNL     1       6.259   4.428  13.918  0.00  0.00    +0.000 A 
ATOM     28  C   UNL     1       7.439   5.233  14.275  0.00  0.00    +0.000 A 
ATOM     29  O   UNL     1       8.257   5.564  13.425  0.00  0.00    +0.000 OA
ATOM     30  N   UNL     1       7.561   5.553  15.594  0.00  0.00    +0.000 N 
ATOM     31  C   UNL     1       6.805   5.039  16.615  0.00  0.00    +0.000 A 
ATOM     32  O   UNL     1       7.118   5.243  17.785  0.00  0.00    +0.000 OA
ATOM     33  H   UNL     1       8.376   6.083  15.863  0.00  0.00    +0.000 HD
ENDBRANCH  24  25
ENDBRANCH  23  24
ENDBRANCH  22  23
ENDBRANCH   6  22
TORSDOF 7
ENDMDL
MODEL 4
REMARK VINA RESULT:      -8.4      1.269      2.094
REMARK  Name = 
REMARK  9 active torsions:
REMARK  status: ('A' for Active; 'I' for Inactive)
REMARK    1  A    between atoms: C_1  and  C_2
REMARK    2  A    between atoms: C_7  and  C_8
REMARK    3  A    between atoms: C_12  and  C_13
REMARK    4  A    between atoms: C_14  and  O_15
REMARK    5  A    between atoms: O_15  and  C_16
REMARK    6  A    between atoms: C_21  and  O_22
REMARK    7  A    between atoms: O_22  and  C_23
REMARK    8  A    between atoms: C_23  and  C_24
REMARK    9  A    between atoms: C_24  and  N_25
REMARK                            x       y       z     vdW  Elec       q    Type
REMARK                         _______ _______ _______ _____ _____    ______ ____
ROOT
ATOM      1  C   UNL     1       2.254   5.462  20.367  0.00  0.00    +0.000 A 
ATOM      2  C   UNL     1       0.933   4.962  20.332  0.00  0.00    +0.000 A 
ATOM      3  C   UNL     1       0.648   3.698  19.802  0.00  0.00    +0.000 A 
ATOM      4  C   UNL     1       1.683   2.867  19.396  0.00  0.00    +0.000 A 
ATOM      5  C   UNL     1       2.998   3.325  19.463  0.00  0.00    +0.000 A 
ATOM      6  C   UNL     1       3.300   4.615  19.940  0.00  0.00    +0.000 A 
ENDROOT
BRANCH   1   7
ATOM      7  O   UNL     1       2.506   6.789  20.721  0.00  0.00    +0.000 OA
BRANCH   7  19
ATOM      8  C   UNL     1       3.017   7.167  17.803  0.00  0.00    +0.000 C 
ATOM      9  C   UNL     1       2.128   8.026  18.678  0.00  0.00    +0.000 A 
ATOM     10  C   UNL     1       1.533   9.110  18.012  0.00  0.00    +0.000 A 
ATOM     11  C   UNL     1       0.612   9.944  18.638  0.00  0.00    +0.000 A 
ATOM     12  C   UNL     1       0.015  10.971  17.894  0.00  0.00    +0.000 A 
ATOM     13  C   UNL     1      -0.960  11.784  18.459  0.00  0.00    +0.000 A 
ATOM     14  C   UNL     1      -1.310  11.589  19.790  0.00  0.00    +0.000 A 
ATOM     15  C   UNL     1      -0.699  10.588  20.538  0.00  0.00    +0.000 A 
ATOM     16  C   UNL     1       0.261   9.714  19.988  0.00  0.00    +0.000 A 
ATOM     17  C   UNL     1       0.841   8.618  20.696  0.00  0.00    +0.000 A 
ATOM     18  C   UNL     1       0.325   8.263  22.081  0.00  0.00    +0.000 C 
ATOM     19  C   UNL     1       1.841   7.819  20.051  0.00  0.00    +0.000 A 
BRANCH  14  20
ATOM     20  C   UNL     1      -2.339  12.389  20.387  0.00  0.00    +0.000 C 
ATOM     21  N   UNL     1      -3.149  13.033  20.891  0.00  0.00    +0.000 NA
ENDBRANCH  14  20
ENDBRANCH   7  19
ENDBRANCH   1   7
BRANCH   6  22
ATOM     22  O   UNL     1       4.639   4.897  19.843  0.00  0.00    +0.000 OA
BRANCH  22  23
ATOM     23  C   UNL     1       5.373   4.165  18.869  0.00  0.00    +0.000 C 
BRANCH  23  24
ATOM     24  C   UNL     1       6.393   5.091  18.196  0.00  0.00    +0.000 C 
BRANCH  24  25
ATOM     25  N   UNL     1       6.404   4.912  16.741  0.00  0.00    +0.000 N 
ATOM     26  C   UNL     1       5.758   3.824  16.187  0.00  0.00    +0.000 A 
ATOM     27  C   UNL     1       5.831   3.552  14.884  0.00  0.00    +0.000 A 
ATOM     28  C   UNL     1       6.629   4.435  14.018  0.00  0.00    +0.000 A 
ATOM     29  O   UNL     1       6.814   4.163  12.838  0.00  0.00    +0.000 OA
ATOM     30  N   UNL     1       7.154   5.540  14.622  0.00  0.00    +0.000 N 
ATOM     31  C   UNL     1       7.162   5.785  15.970  0.00  0.00    +0.000 A 
ATOM     32  O   UNL     1       7.827   6.711  16.429  0.00  0.00    +0.000 OA
ATOM     33  H   UNL     1       7.725   6.145  14.052  0.00  0.00    +0.000 HD
ENDBRANCH  24  25
ENDBRANCH  23  24
ENDBRANCH  22  23
ENDBRANCH   6  22
TORSDOF 7
ENDMDL
MODEL 5
REMARK VINA RESULT:      -8.4      2.288      4.536
REMARK  Name = 
REMARK  9 active torsions:
REMARK  status: ('A' for Active; 'I' for Inactive)
REMARK    1  A    between atoms: C_1  and  C_2
REMARK    2  A    between atoms: C_7  and  C_8
REMARK    3  A    between atoms: C_12  and  C_13
REMARK    4  A    between atoms: C_14  and  O_15
REMARK    5  A    between atoms: O_15  and  C_16
REMARK    6  A    between atoms: C_21  and  O_22
REMARK    7  A    between atoms: O_22  and  C_23
REMARK    8  A    between atoms: C_23  and  C_24
REMARK    9  A    between atoms: C_24  and  N_25
REMARK                            x       y       z     vdW  Elec       q    Type
REMARK                         _______ _______ _______ _____ _____    ______ ____
ROOT
ATOM      1  C   UNL     1       5.036   5.306  18.352  0.00  0.00    +0.000 A 
ATOM      2  C   UNL     1       5.984   5.933  19.191  0.00  0.00    +0.000 A 
ATOM      3  C   UNL     1       7.357   5.724  19.021  0.00  0.00    +0.000 A 
ATOM      4  C   UNL     1       7.816   4.972  17.948  0.00  0.00    +0.000 A 
ATOM      5  C   UNL     1       6.898   4.379  17.083  0.00  0.00    +0.000 A 
ATOM      6  C   UNL     1       5.511   4.532  17.271  0.00  0.00    +0.000 A 
ENDROOT
BRANCH   1   7
ATOM      7  O   UNL     1       3.672   5.369  18.644  0.00  0.00    +0.000 OA
BRANCH   7  19
ATOM      8  C   UNL     1       3.849   7.272  16.350  0.00  0.00    +0.000 C 
ATOM      9  C   UNL     1       3.179   7.532  17.682  0.00  0.00    +0.000 A 
ATOM     10  C   UNL     1       2.629   8.817  17.814  0.00  0.00    +0.000 A 
ATOM     11  C   UNL     1       1.894   9.194  18.933  0.00  0.00    +0.000 A 
ATOM     12  C   UNL     1       1.326  10.475  18.970  0.00  0.00    +0.000 A 
ATOM     13  C   UNL     1       0.527  10.868  20.036  0.00  0.00    +0.000 A 
ATOM     14  C   UNL     1       0.329   9.984  21.091  0.00  0.00    +0.000 A 
ATOM     15  C   UNL     1       0.915   8.722  21.069  0.00  0.00    +0.000 A 
ATOM     16  C   UNL     1       1.693   8.270  19.984  0.00  0.00    +0.000 A 
ATOM     17  C   UNL     1       2.232   6.952  19.884  0.00  0.00    +0.000 A 
ATOM     18  C   UNL     1       1.860   5.908  20.924  0.00  0.00    +0.000 C 
ATOM     19  C   UNL     1       3.047   6.613  18.754  0.00  0.00    +0.000 A 
BRANCH  14  20
ATOM     20  C   UNL     1      -0.520  10.350  22.186  0.00  0.00    +0.000 C 
ATOM     21  N   UNL     1      -1.193  10.621  23.080  0.00  0.00    +0.000 NA
ENDBRANCH  14  20
ENDBRANCH   7  19
ENDBRANCH   1   7
BRANCH   6  22
ATOM     22  O   UNL     1       4.786   3.800  16.363  0.00  0.00    +0.000 OA
BRANCH  22  23
ATOM     23  C   UNL     1       3.523   3.315  16.804  0.00  0.00    +0.000 C 
BRANCH  23  24
ATOM     24  C   UNL     1       3.727   2.035  17.622  0.00  0.00    +0.000 C 
BRANCH  24  25
ATOM     25  N   UNL     1       3.054   2.114  18.922  0.00  0.00    +0.000 N 
ATOM     26  C   UNL     1       1.675   2.192  18.968  0.00  0.00    +0.000 A 
ATOM     27  C   UNL     1       1.019   2.379  20.114  0.00  0.00    +0.000 A 
ATOM     28  C   UNL     1       1.792   2.512  21.360  0.00  0.00    +0.000 A 
ATOM     29  O   UNL     1       1.241   2.793  22.417  0.00  0.00    +0.000 OA
ATOM     30  N   UNL     1       3.138   2.326  21.245  0.00  0.00    +0.000 N 
ATOM     31  C   UNL     1       3.833   2.222  20.068  0.00  0.00    +0.000 A 
ATOM     32  O   UNL     1       5.061   2.250  20.066  0.00  0.00    +0.000 OA
ATOM     33  H   UNL     1       3.688   2.438  22.082  0.00  0.00    +0.000 HD
ENDBRANCH  24  25
ENDBRANCH  23  24
ENDBRANCH  22  23
ENDBRANCH   6  22
TORSDOF 7
ENDMDL
MODEL 6
REMARK VINA RESULT:      -8.4      1.283      2.201
REMARK  Name = 
REMARK  9 active torsions:
REMARK  status: ('A' for Active; 'I' for Inactive)
REMARK    1  A    between atoms: C_1  and  C_2
REMARK    2  A    between atoms: C_7  and  C_8
REMARK    3  A    between atoms: C_12  and  C_13
REMARK    4  A    between atoms: C_14  and  O_15
REMARK    5  A    between atoms: O_15  and  C_16
REMARK    6  A    between atoms: C_21  and  O_22
REMARK    7  A    between atoms: O_22  and  C_23
REMARK    8  A    between atoms: C_23  and  C_24
REMARK    9  A    between atoms: C_24  and  N_25
REMARK                            x       y       z     vdW  Elec       q    Type
REMARK                         _______ _______ _______ _____ _____    ______ ____
ROOT
ATOM      1  C   UNL     1       2.858   4.821  19.439  0.00  0.00    +0.000 A 
ATOM      2  C   UNL     1       1.538   4.552  19.013  0.00  0.00    +0.000 A 
ATOM      3  C   UNL     1       1.228   3.386  18.302  0.00  0.00    +0.000 A 
ATOM      4  C   UNL     1       2.202   2.419  18.096  0.00  0.00    +0.000 A 
ATOM      5  C   UNL     1       3.501   2.648  18.546  0.00  0.00    +0.000 A 
ATOM      6  C   UNL     1       3.846   3.839  19.213  0.00  0.00    +0.000 A 
ENDROOT
BRANCH   1   7
ATOM      7  O   UNL     1       3.193   6.065  19.978  0.00  0.00    +0.000 OA
BRANCH   7  19
ATOM      8  C   UNL     1       3.741   6.944  17.177  0.00  0.00    +0.000 C 
ATOM      9  C   UNL     1       2.867   7.657  18.187  0.00  0.00    +0.000 A 
ATOM     10  C   UNL     1       2.308   8.859  17.723  0.00  0.00    +0.000 A 
ATOM     11  C   UNL     1       1.404   9.593  18.484  0.00  0.00    +0.000 A 
ATOM     12  C   UNL     1       0.842  10.753  17.934  0.00  0.00    +0.000 A 
ATOM     13  C   UNL     1      -0.117  11.478  18.630  0.00  0.00    +0.000 A 
ATOM     14  C   UNL     1      -0.484  11.059  19.904  0.00  0.00    +0.000 A 
ATOM     15  C   UNL     1       0.093   9.924  20.464  0.00  0.00    +0.000 A 
ATOM     16  C   UNL     1       1.034   9.135  19.770  0.00  0.00    +0.000 A 
ATOM     17  C   UNL     1       1.578   7.915  20.273  0.00  0.00    +0.000 A 
ATOM     18  C   UNL     1       1.040   7.332  21.569  0.00  0.00    +0.000 C 
ATOM     19  C   UNL     1       2.563   7.216  19.500  0.00  0.00    +0.000 A 
BRANCH  14  20
ATOM     20  C   UNL     1      -1.497  11.767  20.630  0.00  0.00    +0.000 C 
ATOM     21  N   UNL     1      -2.329  12.332  21.191  0.00  0.00    +0.000 NA
ENDBRANCH  14  20
ENDBRANCH   7  19
ENDBRANCH   1   7
BRANCH   6  22
ATOM     22  O   UNL     1       5.188   3.900  19.495  0.00  0.00    +0.000 OA
BRANCH  22  23
ATOM     23  C   UNL     1       5.844   5.126  19.193  0.00  0.00    +0.000 C 
BRANCH  23  24
ATOM     24  C   UNL     1       7.081   4.843  18.332  0.00  0.00    +0.000 C 
BRANCH  24  25
ATOM     25  N   UNL     1       6.738   4.757  16.909  0.00  0.00    +0.000 N 
ATOM     26  C   UNL     1       6.126   3.617  16.427  0.00  0.00    +0.000 A 
ATOM     27  C   UNL     1       5.894   3.440  15.125  0.00  0.00    +0.000 A 
ATOM     28  C   UNL     1       6.310   4.490  14.182  0.00  0.00    +0.000 A 
ATOM     29  O   UNL     1       6.217   4.324  12.971  0.00  0.00    +0.000 OA
ATOM     30  N   UNL     1       6.816   5.625  14.744  0.00  0.00    +0.000 N 
ATOM     31  C   UNL     1       7.141   5.785  16.065  0.00  0.00    +0.000 A 
ATOM     32  O   UNL     1       7.768   6.775  16.435  0.00  0.00    +0.000 OA
ATOM     33  H   UNL     1       7.130   6.347  14.114  0.00  0.00    +0.000 HD
ENDBRANCH  24  25
ENDBRANCH  23  24
ENDBRANCH  22  23
ENDBRANCH   6  22
TORSDOF 7
ENDMDL
MODEL 7
REMARK VINA RESULT:      -8.3      3.402      7.822
REMARK  Name = 
REMARK  9 active torsions:
REMARK  status: ('A' for Active; 'I' for Inactive)
REMARK    1  A    between atoms: C_1  and  C_2
REMARK    2  A    between atoms: C_7  and  C_8
REMARK    3  A    between atoms: C_12  and  C_13
REMARK    4  A    between atoms: C_14  and  O_15
REMARK    5  A    between atoms: O_15  and  C_16
REMARK    6  A    between atoms: C_21  and  O_22
REMARK    7  A    between atoms: O_22  and  C_23
REMARK    8  A    between atoms: C_23  and  C_24
REMARK    9  A    between atoms: C_24  and  N_25
REMARK                            x       y       z     vdW  Elec       q    Type
REMARK                         _______ _______ _______ _____ _____    ______ ____
ROOT
ATOM      1  C   UNL     1       3.483   6.667  18.900  0.00  0.00    +0.000 A 
ATOM      2  C   UNL     1       3.556   7.673  17.910  0.00  0.00    +0.000 A 
ATOM      3  C   UNL     1       2.575   8.667  17.812  0.00  0.00    +0.000 A 
ATOM      4  C   UNL     1       1.564   8.741  18.760  0.00  0.00    +0.000 A 
ATOM      5  C   UNL     1       1.500   7.782  19.770  0.00  0.00    +0.000 A 
ATOM      6  C   UNL     1       2.444   6.742  19.853  0.00  0.00    +0.000 A 
ENDROOT
BRANCH   1   7
ATOM      7  O   UNL     1       4.356   5.577  18.875  0.00  0.00    +0.000 OA
BRANCH   7  19
ATOM      8  C   UNL     1       7.289   6.135  18.916  0.00  0.00    +0.000 C 
ATOM      9  C   UNL     1       6.486   5.635  17.733  0.00  0.00    +0.000 A 
ATOM     10  C   UNL     1       7.234   5.462  16.557  0.00  0.00    +0.000 A 
ATOM     11  C   UNL     1       6.678   4.918  15.403  0.00  0.00    +0.000 A 
ATOM     12  C   UNL     1       7.500   4.721  14.285  0.00  0.00    +0.000 A 
ATOM     13  C   UNL     1       7.003   4.119  13.136  0.00  0.00    +0.000 A 
ATOM     14  C   UNL     1       5.664   3.747  13.095  0.00  0.00    +0.000 A 
ATOM     15  C   UNL     1       4.840   3.968  14.194  0.00  0.00    +0.000 A 
ATOM     16  C   UNL     1       5.318   4.534  15.394  0.00  0.00    +0.000 A 
ATOM     17  C   UNL     1       4.527   4.690  16.573  0.00  0.00    +0.000 A 
ATOM     18  C   UNL     1       3.124   4.107  16.617  0.00  0.00    +0.000 C 
ATOM     19  C   UNL     1       5.104   5.319  17.724  0.00  0.00    +0.000 A 
BRANCH  14  20
ATOM     20  C   UNL     1       5.135   3.090  11.936  0.00  0.00    +0.000 C 
ATOM     21  N   UNL     1       4.737   2.561  10.994  0.00  0.00    +0.000 NA
ENDBRANCH  14  20
ENDBRANCH   7  19
ENDBRANCH   1   7
BRANCH   6  22
ATOM     22  O   UNL     1       2.151   5.862  20.865  0.00  0.00    +0.000 OA
BRANCH  22  23
ATOM     23  C   UNL     1       1.077   4.959  20.630  0.00  0.00    +0.000 C 
BRANCH  23  24
ATOM     24  C   UNL     1       1.405   3.602  21.262  0.00  0.00    +0.000 C 
BRANCH  24  25
ATOM     25  N   UNL     1       2.187   2.760  20.352  0.00  0.00    +0.000 N 
ATOM     26  C   UNL     1       3.558   2.693  20.501  0.00  0.00    +0.000 A 
ATOM     27  C   UNL     1       4.329   2.034  19.634  0.00  0.00    +0.000 A 
ATOM     28  C   UNL     1       3.694   1.366  18.486  0.00  0.00    +0.000 A 
ATOM     29  O   UNL     1       4.369   0.843  17.608  0.00  0.00    +0.000 OA
ATOM     30  N   UNL     1       2.331   1.395  18.464  0.00  0.00    +0.000 N 
ATOM     31  C   UNL     1       1.534   2.139  19.293  0.00  0.00    +0.000 A 
ATOM     32  O   UNL     1       0.331   2.245  19.069  0.00  0.00    +0.000 OA
ATOM     33  H   UNL     1       1.877   0.965  17.673  0.00  0.00    +0.000 HD
ENDBRANCH  24  25
ENDBRANCH  23  24
ENDBRANCH  22  23
ENDBRANCH   6  22
TORSDOF 7
ENDMDL
MODEL 8
REMARK VINA RESULT:      -8.2      1.038      1.377
REMARK  Name = 
REMARK  9 active torsions:
REMARK  status: ('A' for Active; 'I' for Inactive)
REMARK    1  A    between atoms: C_1  and  C_2
REMARK    2  A    between atoms: C_7  and  C_8
REMARK    3  A    between atoms: C_12  and  C_13
REMARK    4  A    between atoms: C_14  and  O_15
REMARK    5  A    between atoms: O_15  and  C_16
REMARK    6  A    between atoms: C_21  and  O_22
REMARK    7  A    between atoms: O_22  and  C_23
REMARK    8  A    between atoms: C_23  and  C_24
REMARK    9  A    between atoms: C_24  and  N_25
REMARK                            x       y       z     vdW  Elec       q    Type
REMARK                         _______ _______ _______ _____ _____    ______ ____
ROOT
ATOM      1  C   UNL     1       2.353   5.172  19.633  0.00  0.00    +0.000 A 
ATOM      2  C   UNL     1       1.528   4.634  20.646  0.00  0.00    +0.000 A 
ATOM      3  C   UNL     1       0.726   3.511  20.409  0.00  0.00    +0.000 A 
ATOM      4  C   UNL     1       0.809   2.842  19.195  0.00  0.00    +0.000 A 
ATOM      5  C   UNL     1       1.650   3.334  18.197  0.00  0.00    +0.000 A 
ATOM      6  C   UNL     1       2.423   4.494  18.397  0.00  0.00    +0.000 A 
ENDROOT
BRANCH   1   7
ATOM      7  O   UNL     1       3.003   6.395  19.817  0.00  0.00    +0.000 OA
BRANCH   7  19
ATOM      8  C   UNL     1       3.449   7.561  17.105  0.00  0.00    +0.000 C 
ATOM      9  C   UNL     1       2.604   8.157  18.211  0.00  0.00    +0.000 A 
ATOM     10  C   UNL     1       2.020   9.394  17.891  0.00  0.00    +0.000 A 
ATOM     11  C   UNL     1       1.136  10.036  18.753  0.00  0.00    +0.000 A 
ATOM     12  C   UNL     1       0.546  11.240  18.343  0.00  0.00    +0.000 A 
ATOM     13  C   UNL     1      -0.394  11.879  19.142  0.00  0.00    +0.000 A 
ATOM     14  C   UNL     1      -0.714  11.328  20.377  0.00  0.00    +0.000 A 
ATOM     15  C   UNL     1      -0.109  10.148  20.798  0.00  0.00    +0.000 A 
ATOM     16  C   UNL     1       0.814   9.445  19.996  0.00  0.00    +0.000 A 
ATOM     17  C   UNL     1       1.385   8.186  20.354  0.00  0.00    +0.000 A 
ATOM     18  C   UNL     1       0.896   7.468  21.601  0.00  0.00    +0.000 C 
ATOM     19  C   UNL     1       2.348   7.581  19.481  0.00  0.00    +0.000 A 
BRANCH  14  20
ATOM     20  C   UNL     1      -1.707  11.947  21.205  0.00  0.00    +0.000 C 
ATOM     21  N   UNL     1      -2.523  12.445  21.847  0.00  0.00    +0.000 NA
ENDBRANCH  14  20
ENDBRANCH   7  19
ENDBRANCH   1   7
BRANCH   6  22
ATOM     22  O   UNL     1       3.112   4.852  17.266  0.00  0.00    +0.000 OA
BRANCH  22  23
ATOM     23  C   UNL     1       3.641   3.789  16.481  0.00  0.00    +0.000 C 
BRANCH  23  24
ATOM     24  C   UNL     1       4.992   3.354  17.058  0.00  0.00    +0.000 C 
BRANCH  24  25
ATOM     25  N   UNL     1       5.794   4.507  17.478  0.00  0.00    +0.000 N 
ATOM     26  C   UNL     1       6.354   5.328  16.518  0.00  0.00    +0.000 A 
ATOM     27  C   UNL     1       7.183   6.322  16.840  0.00  0.00    +0.000 A 
ATOM     28  C   UNL     1       7.511   6.541  18.258  0.00  0.00    +0.000 A 
ATOM     29  O   UNL     1       8.351   7.369  18.591  0.00  0.00    +0.000 OA
ATOM     30  N   UNL     1       6.844   5.753  19.149  0.00  0.00    +0.000 N 
ATOM     31  C   UNL     1       6.061   4.674  18.832  0.00  0.00    +0.000 A 
ATOM     32  O   UNL     1       5.661   3.916  19.712  0.00  0.00    +0.000 OA
ATOM     33  H   UNL     1       7.073   5.870  20.124  0.00  0.00    +0.000 HD
ENDBRANCH  24  25
ENDBRANCH  23  24
ENDBRANCH  22  23
ENDBRANCH   6  22
TORSDOF 7
ENDMDL
MODEL 9
REMARK VINA RESULT:      -8.2      4.179     10.164
REMARK  Name = 
REMARK  9 active torsions:
REMARK  status: ('A' for Active; 'I' for Inactive)
REMARK    1  A    between atoms: C_1  and  C_2
REMARK    2  A    between atoms: C_7  and  C_8
REMARK    3  A    between atoms: C_12  and  C_13
REMARK    4  A    between atoms: C_14  and  O_15
REMARK    5  A    between atoms: O_15  and  C_16
REMARK    6  A    between atoms: C_21  and  O_22
REMARK    7  A    between atoms: O_22  and  C_23
REMARK    8  A    between atoms: C_23  and  C_24
REMARK    9  A    between atoms: C_24  and  N_25
REMARK                            x       y       z     vdW  Elec       q    Type
REMARK                         _______ _______ _______ _____ _____    ______ ____
ROOT
ATOM      1  C   UNL     1      -0.817  11.147  19.435  0.00  0.00    +0.000 A 
ATOM      2  C   UNL     1      -1.335  10.333  18.403  0.00  0.00    +0.000 A 
ATOM      3  C   UNL     1      -2.660  10.464  17.969  0.00  0.00    +0.000 A 
ATOM      4  C   UNL     1      -3.459  11.478  18.479  0.00  0.00    +0.000 A 
ATOM      5  C   UNL     1      -2.953  12.319  19.469  0.00  0.00    +0.000 A 
ATOM      6  C   UNL     1      -1.641  12.167  19.958  0.00  0.00    +0.000 A 
ENDROOT
BRANCH   1   7
ATOM      7  O   UNL     1       0.438  10.885  19.988  0.00  0.00    +0.000 OA
BRANCH   7  19
ATOM      8  C   UNL     1       2.256  10.794  17.621  0.00  0.00    +0.000 C 
ATOM      9  C   UNL     1       1.909   9.636  18.531  0.00  0.00    +0.000 A 
ATOM     10  C   UNL     1       2.501   8.415  18.167  0.00  0.00    +0.000 A 
ATOM     11  C   UNL     1       2.369   7.270  18.946  0.00  0.00    +0.000 A 
ATOM     12  C   UNL     1       3.035   6.102  18.550  0.00  0.00    +0.000 A 
ATOM     13  C   UNL     1       2.987   4.956  19.334  0.00  0.00    +0.000 A 
ATOM     14  C   UNL     1       2.233   4.970  20.502  0.00  0.00    +0.000 A 
ATOM     15  C   UNL     1       1.548   6.120  20.882  0.00  0.00    +0.000 A 
ATOM     16  C   UNL     1       1.610   7.316  20.138  0.00  0.00    +0.000 A 
ATOM     17  C   UNL     1       0.997   8.541  20.543  0.00  0.00    +0.000 A 
ATOM     18  C   UNL     1       0.342   8.634  21.912  0.00  0.00    +0.000 C 
ATOM     19  C   UNL     1       1.088   9.686  19.686  0.00  0.00    +0.000 A 
BRANCH  14  20
ATOM     20  C   UNL     1       2.195   3.814  21.347  0.00  0.00    +0.000 C 
ATOM     21  N   UNL     1       2.143   2.896  22.041  0.00  0.00    +0.000 NA
ENDBRANCH  14  20
ENDBRANCH   7  19
ENDBRANCH   1   7
BRANCH   6  22
ATOM     22  O   UNL     1      -1.372  13.038  20.984  0.00  0.00    +0.000 OA
BRANCH  22  23
ATOM     23  C   UNL     1      -1.804  12.644  22.281  0.00  0.00    +0.000 C 
BRANCH  23  24
ATOM     24  C   UNL     1      -2.470  13.835  22.979  0.00  0.00    +0.000 C 
BRANCH  24  25
ATOM     25  N   UNL     1      -3.855  13.533  23.354  0.00  0.00    +0.000 N 
ATOM     26  C   UNL     1      -4.099  12.686  24.418  0.00  0.00    +0.000 A 
ATOM     27  C   UNL     1      -5.333  12.288  24.731  0.00  0.00    +0.000 A 
ATOM     28  C   UNL     1      -6.460  12.765  23.914  0.00  0.00    +0.000 A 
ATOM     29  O   UNL     1      -7.595  12.341  24.097  0.00  0.00    +0.000 OA
ATOM     30  N   UNL     1      -6.149  13.673  22.946  0.00  0.00    +0.000 N 
ATOM     31  C   UNL     1      -4.882  14.022  22.556  0.00  0.00    +0.000 A 
ATOM     32  O   UNL     1      -4.708  14.702  21.548  0.00  0.00    +0.000 OA
ATOM     33  H   UNL     1      -6.903  13.994  22.360  0.00  0.00    +0.000 HD
ENDBRANCH  24  25
ENDBRANCH  23  24
ENDBRANCH  22  23
ENDBRANCH   6  22
TORSDOF 7
ENDMDL
