MODEL 1
REMARK VINA RESULT:      -8.7      0.000      0.000
REMARK  Name = 
REMARK  6 active torsions:
REMARK  status: ('A' for Active; 'I' for Inactive)
REMARK    1  A    between atoms: C_1  and  C_2
REMARK    2  A    between atoms: C_2  and  C_3
REMARK    3  A    between atoms: C_3  and  C_4
REMARK    4  A    between atoms: C_7  and  C_9
REMARK    5  A    between atoms: C_18  and  C_20
REMARK    6  A    between atoms: C_20  and  C_22
REMARK                            x       y       z     vdW  Elec       q    Type
REMARK                         _______ _______ _______ _____ _____    ______ ____
ROOT
ATOM      1  C   UNL     1       0.257   9.466  19.240  0.00  0.00    +0.000 C 
ATOM      2  C   UNL     1       0.431  10.599  20.292  0.00  0.00    +0.000 C 
ATOM      3  N   UNL     1       0.369  10.006  21.629  0.00  0.00    +0.000 N 
ATOM      4  C   UNL     1      -0.258  10.561  22.773  0.00  0.00    +0.000 C 
ATOM      5  O   UNL     1      -0.049  10.085  23.893  0.00  0.00    +0.000 OA
ATOM      6  C   UNL     1       1.389   8.937  21.806  0.00  0.00    +0.000 C 
ATOM      7  C   UNL     1       1.499   7.886  20.625  0.00  0.00    +0.000 C 
ATOM      8  N   UNL     1       1.422   8.494  19.279  0.00  0.00    +0.000 N 
ATOM      9  C   UNL     1       2.347   8.274  18.187  0.00  0.00    +0.000 C 
ATOM     10  O   UNL     1       2.321   9.064  17.238  0.00  0.00    +0.000 OA
ENDROOT
BRANCH   4  11
ATOM     11  C   UNL     1      -1.182  11.760  22.732  0.00  0.00    +0.000 A 
ATOM     12  C   UNL     1      -2.519  11.742  23.143  0.00  0.00    +0.000 A 
ATOM     13  C   UNL     1      -3.336  12.878  23.000  0.00  0.00    +0.000 A 
ATOM     14  C   UNL     1      -2.810  14.078  22.524  0.00  0.00    +0.000 A 
ATOM     15  C   UNL     1      -1.456  14.152  22.226  0.00  0.00    +0.000 A 
ATOM     16  C   UNL     1      -0.649  13.005  22.332  0.00  0.00    +0.000 A 
ENDBRANCH   4  11
BRANCH   9  17
ATOM     17  C   UNL     1       3.436   6.987  18.080  0.00  0.00    +0.000 C 
ATOM     18  O   UNL     1       4.636   7.209  17.973  0.00  0.00    +0.000 OA
BRANCH  17  19
ATOM     19  C   UNL     1       2.918   5.533  18.190  0.00  0.00    +0.000 A 
ATOM     20  C   UNL     1       3.173   4.609  17.181  0.00  0.00    +0.000 A 
ATOM     21  N   UNL     1       2.096   3.759  17.182  0.00  0.00    +0.000 N 
ATOM     22  C   UNL     1       1.870   3.451  18.507  0.00  0.00    +0.000 A 
ATOM     23  C   UNL     1       1.271   2.290  19.041  0.00  0.00    +0.000 A 
ATOM     24  C   UNL     1       1.145   2.209  20.419  0.00  0.00    +0.000 A 
ATOM     25  C   UNL     1       1.554   3.283  21.204  0.00  0.00    +0.000 A 
ATOM     26  C   UNL     1       2.106   4.474  20.628  0.00  0.00    +0.000 A 
ATOM     27  F   UNL     1       2.479   5.439  21.479  0.00  0.00    +0.000 F 
ATOM     28  C   UNL     1       2.329   4.589  19.220  0.00  0.00    +0.000 A 
ATOM     29  H   UNL     1       1.299   3.877  16.564  0.00  0.00    +0.000 HD
ENDBRANCH  17  19
ENDBRANCH   9  17
BRANCH   1  30
ATOM     30  C   UNL     1      -0.310  10.053  17.941  0.00  0.00    +0.000 C 
BRANCH  30  32
ATOM     31  C   UNL     1      -2.397  10.048  16.543  0.00  0.00    +0.000 C 
ATOM     32  C   UNL     1      -1.830  10.178  17.947  0.00  0.00    +0.000 C 
ENDBRANCH  30  32
ENDBRANCH   1  30
TORSDOF 5
ENDMDL
MODEL 2
REMARK VINA RESULT:      -8.6      1.312      1.521
REMARK  Name = 
REMARK  6 active torsions:
REMARK  status: ('A' for Active; 'I' for Inactive)
REMARK    1  A    between atoms: C_1  and  C_2
REMARK    2  A    between atoms: C_2  and  C_3
REMARK    3  A    between atoms: C_3  and  C_4
REMARK    4  A    between atoms: C_7  and  C_9
REMARK    5  A    between atoms: C_18  and  C_20
REMARK    6  A    between atoms: C_20  and  C_22
REMARK                            x       y       z     vdW  Elec       q    Type
REMARK                         _______ _______ _______ _____ _____    ______ ____
ROOT
ATOM      1  C   UNL     1       0.454   9.333  19.113  0.00  0.00    +0.000 C 
ATOM      2  C   UNL     1       0.598  10.421  20.217  0.00  0.00    +0.000 C 
ATOM      3  N   UNL     1       0.613   9.760  21.523  0.00  0.00    +0.000 N 
ATOM      4  C   UNL     1      -0.007  10.220  22.711  0.00  0.00    +0.000 C 
ATOM      5  O   UNL     1       0.265   9.701  23.799  0.00  0.00    +0.000 OA
ATOM      6  C   UNL     1       1.697   8.744  21.614  0.00  0.00    +0.000 C 
ATOM      7  C   UNL     1       1.827   7.761  20.377  0.00  0.00    +0.000 C 
ATOM      8  N   UNL     1       1.672   8.429  19.068  0.00  0.00    +0.000 N 
ATOM      9  C   UNL     1       2.572   8.318  17.939  0.00  0.00    +0.000 C 
ATOM     10  O   UNL     1       2.472   9.152  17.033  0.00  0.00    +0.000 OA
ENDROOT
BRANCH   4  11
ATOM     11  C   UNL     1      -0.997  11.364  22.759  0.00  0.00    +0.000 A 
ATOM     12  C   UNL     1      -2.249  11.300  23.379  0.00  0.00    +0.000 A 
ATOM     13  C   UNL     1      -3.147  12.381  23.313  0.00  0.00    +0.000 A 
ATOM     14  C   UNL     1      -2.777  13.577  22.701  0.00  0.00    +0.000 A 
ATOM     15  C   UNL     1      -1.494  13.705  22.187  0.00  0.00    +0.000 A 
ATOM     16  C   UNL     1      -0.611  12.610  22.218  0.00  0.00    +0.000 A 
ENDBRANCH   4  11
BRANCH   9  17
ATOM     17  C   UNL     1       3.728   7.103  17.733  0.00  0.00    +0.000 C 
ATOM     18  O   UNL     1       4.710   7.306  17.029  0.00  0.00    +0.000 OA
BRANCH  17  19
ATOM     19  C   UNL     1       3.577   5.765  18.495  0.00  0.00    +0.000 A 
ATOM     20  C   UNL     1       4.275   5.536  19.677  0.00  0.00    +0.000 A 
ATOM     21  N   UNL     1       4.515   4.186  19.705  0.00  0.00    +0.000 N 
ATOM     22  C   UNL     1       3.320   3.591  19.357  0.00  0.00    +0.000 A 
ATOM     23  C   UNL     1       2.852   2.307  19.708  0.00  0.00    +0.000 A 
ATOM     24  C   UNL     1       1.609   1.924  19.227  0.00  0.00    +0.000 A 
ATOM     25  C   UNL     1       0.911   2.783  18.385  0.00  0.00    +0.000 A 
ATOM     26  C   UNL     1       1.439   4.059  18.000  0.00  0.00    +0.000 A 
ATOM     27  F   UNL     1       0.676   4.811  17.195  0.00  0.00    +0.000 F 
ATOM     28  C   UNL     1       2.681   4.541  18.519  0.00  0.00    +0.000 A 
ATOM     29  H   UNL     1       5.382   3.771  19.377  0.00  0.00    +0.000 HD
ENDBRANCH  17  19
ENDBRANCH   9  17
BRANCH   1  30
ATOM     30  C   UNL     1      -0.187   9.952  17.863  0.00  0.00    +0.000 C 
BRANCH  30  32
ATOM     31  C   UNL     1      -2.333  10.344  16.619  0.00  0.00    +0.000 C 
ATOM     32  C   UNL     1      -1.697  10.124  17.981  0.00  0.00    +0.000 C 
ENDBRANCH  30  32
ENDBRANCH   1  30
TORSDOF 5
ENDMDL
MODEL 3
REMARK VINA RESULT:      -8.5      2.115      3.297
REMARK  Name = 
REMARK  6 active torsions:
REMARK  status: ('A' for Active; 'I' for Inactive)
REMARK    1  A    between atoms: C_1  and  C_2
REMARK    2  A    between atoms: C_2  and  C_3
REMARK    3  A    between atoms: C_3  and  C_4
REMARK    4  A    between atoms: C_7  and  C_9
REMARK    5  A    between atoms: C_18  and  C_20
REMARK    6  A    between atoms: C_20  and  C_22
REMARK                            x       y       z     vdW  Elec       q    Type
REMARK                         _______ _______ _______ _____ _____    ______ ____
ROOT
ATOM      1  C   UNL     1       0.399  10.110  20.088  0.00  0.00    +0.000 C 
ATOM      2  C   UNL     1      -1.150  10.038  19.961  0.00  0.00    +0.000 C 
ATOM      3  N   UNL     1      -1.540  10.638  18.683  0.00  0.00    +0.000 N 
ATOM      4  C   UNL     1      -2.670  11.459  18.444  0.00  0.00    +0.000 C 
ATOM      5  O   UNL     1      -3.023  11.716  17.289  0.00  0.00    +0.000 OA
ATOM      6  C   UNL     1      -0.868   9.974  17.534  0.00  0.00    +0.000 C 
ATOM      7  C   UNL     1       0.689   9.724  17.696  0.00  0.00    +0.000 C 
ATOM      8  N   UNL     1       1.078   9.248  19.040  0.00  0.00    +0.000 N 
ATOM      9  C   UNL     1       1.906   8.096  19.332  0.00  0.00    +0.000 C 
ATOM     10  O   UNL     1       1.900   7.656  20.487  0.00  0.00    +0.000 OA
ENDROOT
BRANCH   4  11
ATOM     11  C   UNL     1      -3.533  12.050  19.540  0.00  0.00    +0.000 A 
ATOM     12  C   UNL     1      -3.041  12.784  20.624  0.00  0.00    +0.000 A 
ATOM     13  C   UNL     1      -3.900  13.233  21.644  0.00  0.00    +0.000 A 
ATOM     14  C   UNL     1      -5.275  13.031  21.557  0.00  0.00    +0.000 A 
ATOM     15  C   UNL     1      -5.798  12.411  20.430  0.00  0.00    +0.000 A 
ATOM     16  C   UNL     1      -4.936  11.928  19.430  0.00  0.00    +0.000 A 
ENDBRANCH   4  11
BRANCH   9  17
ATOM     17  C   UNL     1       2.924   7.324  18.227  0.00  0.00    +0.000 C 
ATOM     18  O   UNL     1       3.667   7.989  17.514  0.00  0.00    +0.000 OA
BRANCH  17  19
ATOM     19  C   UNL     1       2.966   5.779  18.171  0.00  0.00    +0.000 A 
ATOM     20  C   UNL     1       4.043   5.117  17.588  0.00  0.00    +0.000 A 
ATOM     21  N   UNL     1       3.521   3.961  17.064  0.00  0.00    +0.000 N 
ATOM     22  C   UNL     1       2.706   3.444  18.049  0.00  0.00    +0.000 A 
ATOM     23  C   UNL     1       2.347   2.096  18.263  0.00  0.00    +0.000 A 
ATOM     24  C   UNL     1       1.499   1.819  19.324  0.00  0.00    +0.000 A 
ATOM     25  C   UNL     1       0.998   2.869  20.087  0.00  0.00    +0.000 A 
ATOM     26  C   UNL     1       1.335   4.234  19.808  0.00  0.00    +0.000 A 
ATOM     27  F   UNL     1       0.806   5.164  20.615  0.00  0.00    +0.000 F 
ATOM     28  C   UNL     1       2.260   4.579  18.774  0.00  0.00    +0.000 A 
ATOM     29  H   UNL     1       3.233   3.876  16.095  0.00  0.00    +0.000 HD
ENDBRANCH  17  19
ENDBRANCH   9  17
BRANCH   1  30
ATOM     30  C   UNL     1       0.793  10.105  21.571  0.00  0.00    +0.000 C 
BRANCH  30  32
ATOM     31  C   UNL     1      -0.994  10.850  23.171  0.00  0.00    +0.000 C 
ATOM     32  C   UNL     1      -0.335   9.660  22.495  0.00  0.00    +0.000 C 
ENDBRANCH  30  32
ENDBRANCH   1  30
TORSDOF 5
ENDMDL
MODEL 4
REMARK VINA RESULT:      -8.4      1.287      1.609
REMARK  Name = 
REMARK  6 active torsions:
REMARK  status: ('A' for Active; 'I' for Inactive)
REMARK    1  A    between atoms: C_1  and  C_2
REMARK    2  A    between atoms: C_2  and  C_3
REMARK    3  A    between atoms: C_3  and  C_4
REMARK    4  A    between atoms: C_7  and  C_9
REMARK    5  A    between atoms: C_18  and  C_20
REMARK    6  A    between atoms: C_20  and  C_22
REMARK                            x       y       z     vdW  Elec       q    Type
REMARK                         _______ _______ _______ _____ _____    ______ ____
ROOT
ATOM      1  C   UNL     1       0.213   9.608  19.252  0.00  0.00    +0.000 C 
ATOM      2  C   UNL     1       0.427  10.673  20.365  0.00  0.00    +0.000 C 
ATOM      3  N   UNL     1       0.390  10.001  21.666  0.00  0.00    +0.000 N 
ATOM      4  C   UNL     1      -0.203  10.493  22.855  0.00  0.00    +0.000 C 
ATOM      5  O   UNL     1       0.027   9.947  23.939  0.00  0.00    +0.000 OA
ATOM      6  C   UNL     1       1.399   8.911  21.752  0.00  0.00    +0.000 C 
ATOM      7  C   UNL     1       1.467   7.932  20.508  0.00  0.00    +0.000 C 
ATOM      8  N   UNL     1       1.365   8.621  19.204  0.00  0.00    +0.000 N 
ATOM      9  C   UNL     1       2.261   8.457  18.078  0.00  0.00    +0.000 C 
ATOM     10  O   UNL     1       2.223   9.304  17.179  0.00  0.00    +0.000 OA
ENDROOT
BRANCH   4  11
ATOM     11  C   UNL     1      -1.111  11.703  22.910  0.00  0.00    +0.000 A 
ATOM     12  C   UNL     1      -0.728  12.996  22.539  0.00  0.00    +0.000 A 
ATOM     13  C   UNL     1      -1.606  14.084  22.693  0.00  0.00    +0.000 A 
ATOM     14  C   UNL     1      -2.911  13.888  23.138  0.00  0.00    +0.000 A 
ATOM     15  C   UNL     1      -3.352  12.597  23.394  0.00  0.00    +0.000 A 
ATOM     16  C   UNL     1      -2.461  11.514  23.279  0.00  0.00    +0.000 A 
ENDBRANCH   4  11
BRANCH   9  17
ATOM     17  C   UNL     1       3.330   7.166  17.866  0.00  0.00    +0.000 C 
ATOM     18  O   UNL     1       4.468   7.374  17.464  0.00  0.00    +0.000 OA
BRANCH  17  19
ATOM     19  C   UNL     1       2.888   5.734  18.251  0.00  0.00    +0.000 A 
ATOM     20  C   UNL     1       1.702   5.199  17.759  0.00  0.00    +0.000 A 
ATOM     21  N   UNL     1       1.250   4.349  18.736  0.00  0.00    +0.000 N 
ATOM     22  C   UNL     1       2.352   3.618  19.128  0.00  0.00    +0.000 A 
ATOM     23  C   UNL     1       2.383   2.322  19.686  0.00  0.00    +0.000 A 
ATOM     24  C   UNL     1       3.623   1.793  20.010  0.00  0.00    +0.000 A 
ATOM     25  C   UNL     1       4.762   2.571  19.830  0.00  0.00    +0.000 A 
ATOM     26  C   UNL     1       4.693   3.907  19.315  0.00  0.00    +0.000 A 
ATOM     27  F   UNL     1       5.854   4.560  19.171  0.00  0.00    +0.000 F 
ATOM     28  C   UNL     1       3.453   4.482  18.895  0.00  0.00    +0.000 A 
ATOM     29  H   UNL     1       0.571   4.626  19.438  0.00  0.00    +0.000 HD
ENDBRANCH  17  19
ENDBRANCH   9  17
BRANCH   1  30
ATOM     30  C   UNL     1      -0.377  10.280  18.005  0.00  0.00    +0.000 C 
BRANCH  30  32
ATOM     31  C   UNL     1      -2.332  10.387  16.432  0.00  0.00    +0.000 C 
ATOM     32  C   UNL     1      -1.872  10.035  17.836  0.00  0.00    +0.000 C 
ENDBRANCH  30  32
ENDBRANCH   1  30
TORSDOF 5
ENDMDL
MODEL 5
REMARK VINA RESULT:      -8.4      3.780      9.285
REMARK  Name = 
REMARK  6 active torsions:
REMARK  status: ('A' for Active; 'I' for Inactive)
REMARK    1  A    between atoms: C_1  and  C_2
REMARK    2  A    between atoms: C_2  and  C_3
REMARK    3  A    between atoms: C_3  and  C_4
REMARK    4  A    between atoms: C_7  and  C_9
REMARK    5  A    between atoms: C_18  and  C_20
REMARK    6  A    between atoms: C_20  and  C_22
REMARK                            x       y       z     vdW  Elec       q    Type
REMARK                         _______ _______ _______ _____ _____    ______ ____
ROOT
ATOM      1  C   UNL     1       0.712   9.163  19.865  0.00  0.00    +0.000 C 
ATOM      2  C   UNL     1       1.730   8.015  20.127  0.00  0.00    +0.000 C 
ATOM      3  N   UNL     1       2.208   7.514  18.836  0.00  0.00    +0.000 N 
ATOM      4  C   UNL     1       2.463   6.163  18.495  0.00  0.00    +0.000 C 
ATOM      5  O   UNL     1       3.078   5.885  17.461  0.00  0.00    +0.000 OA
ATOM      6  C   UNL     1       2.808   8.598  18.013  0.00  0.00    +0.000 C 
ATOM      7  C   UNL     1       1.975   9.944  17.928  0.00  0.00    +0.000 C 
ATOM      8  N   UNL     1       1.386  10.360  19.219  0.00  0.00    +0.000 N 
ATOM      9  C   UNL     1       1.493  11.670  19.825  0.00  0.00    +0.000 C 
ATOM     10  O   UNL     1       1.205  11.780  21.021  0.00  0.00    +0.000 OA
ENDROOT
BRANCH   4  11
ATOM     11  C   UNL     1       2.048   4.983  19.349  0.00  0.00    +0.000 A 
ATOM     12  C   UNL     1       1.287   3.903  18.888  0.00  0.00    +0.000 A 
ATOM     13  C   UNL     1       0.875   2.882  19.764  0.00  0.00    +0.000 A 
ATOM     14  C   UNL     1       1.286   2.876  21.095  0.00  0.00    +0.000 A 
ATOM     15  C   UNL     1       2.142   3.873  21.543  0.00  0.00    +0.000 A 
ATOM     16  C   UNL     1       2.522   4.915  20.677  0.00  0.00    +0.000 A 
ENDBRANCH   4  11
BRANCH   9  17
ATOM     17  C   UNL     1       1.938  13.084  19.013  0.00  0.00    +0.000 C 
ATOM     18  O   UNL     1       2.982  13.118  18.373  0.00  0.00    +0.000 OA
BRANCH  17  19
ATOM     19  C   UNL     1       0.988  14.305  19.023  0.00  0.00    +0.000 A 
ATOM     20  C   UNL     1      -0.134  14.327  19.846  0.00  0.00    +0.000 A 
ATOM     21  N   UNL     1      -1.067  15.074  19.174  0.00  0.00    +0.000 N 
ATOM     22  C   UNL     1      -0.390  16.187  18.718  0.00  0.00    +0.000 A 
ATOM     23  C   UNL     1      -0.911  17.468  18.438  0.00  0.00    +0.000 A 
ATOM     24  C   UNL     1      -0.027  18.433  17.979  0.00  0.00    +0.000 A 
ATOM     25  C   UNL     1       1.303  18.089  17.761  0.00  0.00    +0.000 A 
ATOM     26  C   UNL     1       1.789  16.762  18.000  0.00  0.00    +0.000 A 
ATOM     27  F   UNL     1       3.092  16.545  17.769  0.00  0.00    +0.000 F 
ATOM     28  C   UNL     1       0.946  15.742  18.542  0.00  0.00    +0.000 A 
ATOM     29  H   UNL     1      -1.785  14.663  18.585  0.00  0.00    +0.000 HD
ENDBRANCH  17  19
ENDBRANCH   9  17
BRANCH   1  30
ATOM     30  C   UNL     1      -0.251   9.276  21.054  0.00  0.00    +0.000 C 
BRANCH  30  32
ATOM     31  C   UNL     1      -0.231   9.612  23.543  0.00  0.00    +0.000 C 
ATOM     32  C   UNL     1       0.370   8.844  22.378  0.00  0.00    +0.000 C 
ENDBRANCH  30  32
ENDBRANCH   1  30
TORSDOF 5
ENDMDL
MODEL 6
REMARK VINA RESULT:      -8.3      3.794      5.074
REMARK  Name = 
REMARK  6 active torsions:
REMARK  status: ('A' for Active; 'I' for Inactive)
REMARK    1  A    between atoms: C_1  and  C_2
REMARK    2  A    between atoms: C_2  and  C_3
REMARK    3  A    between atoms: C_3  and  C_4
REMARK    4  A    between atoms: C_7  and  C_9
REMARK    5  A    between atoms: C_18  and  C_20
REMARK    6  A    between atoms: C_20  and  C_22
REMARK                            x       y       z     vdW  Elec       q    Type
REMARK                         _______ _______ _______ _____ _____    ______ ____
ROOT
ATOM      1  C   UNL     1      -0.334  12.442  19.161  0.00  0.00    +0.000 C 
ATOM      2  C   UNL     1       0.655  13.492  18.577  0.00  0.00    +0.000 C 
ATOM      3  N   UNL     1       1.222  14.264  19.685  0.00  0.00    +0.000 N 
ATOM      4  C   UNL     1       1.493  15.655  19.696  0.00  0.00    +0.000 C 
ATOM      5  O   UNL     1       2.179  16.151  20.595  0.00  0.00    +0.000 OA
ATOM      6  C   UNL     1       1.886  13.386  20.686  0.00  0.00    +0.000 C 
ATOM      7  C   UNL     1       1.069  12.102  21.129  0.00  0.00    +0.000 C 
ATOM      8  N   UNL     1       0.391  11.414  20.010  0.00  0.00    +0.000 N 
ATOM      9  C   UNL     1       0.462  10.000  19.706  0.00  0.00    +0.000 C 
ATOM     10  O   UNL     1       0.090   9.628  18.589  0.00  0.00    +0.000 OA
ENDROOT
BRANCH   4  11
ATOM     11  C   UNL     1       1.010  16.618  18.631  0.00  0.00    +0.000 A 
ATOM     12  C   UNL     1      -0.308  17.069  18.513  0.00  0.00    +0.000 A 
ATOM     13  C   UNL     1      -0.696  17.903  17.448  0.00  0.00    +0.000 A 
ATOM     14  C   UNL     1       0.244  18.371  16.532  0.00  0.00    +0.000 A 
ATOM     15  C   UNL     1       1.580  18.035  16.702  0.00  0.00    +0.000 A 
ATOM     16  C   UNL     1       1.960  17.169  17.744  0.00  0.00    +0.000 A 
ENDBRANCH   4  11
BRANCH   9  17
ATOM     17  C   UNL     1       0.973   8.799  20.780  0.00  0.00    +0.000 C 
ATOM     18  O   UNL     1       0.668   8.870  21.965  0.00  0.00    +0.000 OA
BRANCH  17  19
ATOM     19  C   UNL     1       1.761   7.579  20.248  0.00  0.00    +0.000 A 
ATOM     20  C   UNL     1       1.512   6.301  20.741  0.00  0.00    +0.000 A 
ATOM     21  N   UNL     1       2.711   5.640  20.666  0.00  0.00    +0.000 N 
ATOM     22  C   UNL     1       3.213   5.928  19.414  0.00  0.00    +0.000 A 
ATOM     23  C   UNL     1       4.099   5.155  18.632  0.00  0.00    +0.000 A 
ATOM     24  C   UNL     1       4.472   5.660  17.396  0.00  0.00    +0.000 A 
ATOM     25  C   UNL     1       4.012   6.914  17.008  0.00  0.00    +0.000 A 
ATOM     26  C   UNL     1       3.160   7.702  17.849  0.00  0.00    +0.000 A 
ATOM     27  F   UNL     1       2.766   8.889  17.369  0.00  0.00    +0.000 F 
ATOM     28  C   UNL     1       2.682   7.206  19.102  0.00  0.00    +0.000 A 
ATOM     29  H   UNL     1       3.355   5.572  21.448  0.00  0.00    +0.000 HD
ENDBRANCH  17  19
ENDBRANCH   9  17
BRANCH   1  30
ATOM     30  C   UNL     1      -1.380  12.076  18.099  0.00  0.00    +0.000 C 
BRANCH  30  32
ATOM     31  C   UNL     1      -3.028  12.527  19.940  0.00  0.00    +0.000 C 
ATOM     32  C   UNL     1      -2.738  11.715  18.689  0.00  0.00    +0.000 C 
ENDBRANCH  30  32
ENDBRANCH   1  30
TORSDOF 5
ENDMDL
MODEL 7
REMARK VINA RESULT:      -8.3      3.673      4.959
REMARK  Name = 
REMARK  6 active torsions:
REMARK  status: ('A' for Active; 'I' for Inactive)
REMARK    1  A    between atoms: C_1  and  C_2
REMARK    2  A    between atoms: C_2  and  C_3
REMARK    3  A    between atoms: C_3  and  C_4
REMARK    4  A    between atoms: C_7  and  C_9
REMARK    5  A    between atoms: C_18  and  C_20
REMARK    6  A    between atoms: C_20  and  C_22
REMARK                            x       y       z     vdW  Elec       q    Type
REMARK                         _______ _______ _______ _____ _____    ______ ____
ROOT
ATOM      1  C   UNL     1      -0.197  12.345  19.033  0.00  0.00    +0.000 C 
ATOM      2  C   UNL     1       0.789  13.459  18.576  0.00  0.00    +0.000 C 
ATOM      3  N   UNL     1       1.190  14.236  19.750  0.00  0.00    +0.000 N 
ATOM      4  C   UNL     1       1.381  15.639  19.812  0.00  0.00    +0.000 C 
ATOM      5  O   UNL     1       1.938  16.151  20.788  0.00  0.00    +0.000 OA
ATOM      6  C   UNL     1       1.792  13.373  20.803  0.00  0.00    +0.000 C 
ATOM      7  C   UNL     1       1.005  12.038  21.135  0.00  0.00    +0.000 C 
ATOM      8  N   UNL     1       0.490  11.339  19.938  0.00  0.00    +0.000 N 
ATOM      9  C   UNL     1       0.672   9.937  19.621  0.00  0.00    +0.000 C 
ATOM     10  O   UNL     1       0.443   9.570  18.465  0.00  0.00    +0.000 OA
ENDROOT
BRANCH   4  11
ATOM     11  C   UNL     1       0.962  16.597  18.717  0.00  0.00    +0.000 A 
ATOM     12  C   UNL     1       1.830  17.133  17.761  0.00  0.00    +0.000 A 
ATOM     13  C   UNL     1       1.380  18.080  16.824  0.00  0.00    +0.000 A 
ATOM     14  C   UNL     1       0.036  18.444  16.768  0.00  0.00    +0.000 A 
ATOM     15  C   UNL     1      -0.866  17.833  17.628  0.00  0.00    +0.000 A 
ATOM     16  C   UNL     1      -0.408  16.916  18.591  0.00  0.00    +0.000 A 
ENDBRANCH   4  11
BRANCH   9  17
ATOM     17  C   UNL     1       1.131   8.743  20.725  0.00  0.00    +0.000 C 
ATOM     18  O   UNL     1       0.841   8.862  21.910  0.00  0.00    +0.000 OA
BRANCH  17  19
ATOM     19  C   UNL     1       1.851   7.470  20.222  0.00  0.00    +0.000 A 
ATOM     20  C   UNL     1       1.512   6.216  20.721  0.00  0.00    +0.000 A 
ATOM     21  N   UNL     1       2.669   5.479  20.678  0.00  0.00    +0.000 N 
ATOM     22  C   UNL     1       3.214   5.722  19.435  0.00  0.00    +0.000 A 
ATOM     23  C   UNL     1       4.066   4.887  18.680  0.00  0.00    +0.000 A 
ATOM     24  C   UNL     1       4.496   5.354  17.448  0.00  0.00    +0.000 A 
ATOM     25  C   UNL     1       4.124   6.630  17.038  0.00  0.00    +0.000 A 
ATOM     26  C   UNL     1       3.305   7.479  17.853  0.00  0.00    +0.000 A 
ATOM     27  F   UNL     1       2.998   8.683  17.353  0.00  0.00    +0.000 F 
ATOM     28  C   UNL     1       2.771   7.027  19.100  0.00  0.00    +0.000 A 
ATOM     29  H   UNL     1       3.290   5.380  21.475  0.00  0.00    +0.000 HD
ENDBRANCH  17  19
ENDBRANCH   9  17
BRANCH   1  30
ATOM     30  C   UNL     1      -1.101  11.946  17.859  0.00  0.00    +0.000 C 
BRANCH  30  32
ATOM     31  C   UNL     1      -2.857  10.153  17.789  0.00  0.00    +0.000 C 
ATOM     32  C   UNL     1      -2.507  11.544  18.289  0.00  0.00    +0.000 C 
ENDBRANCH  30  32
ENDBRANCH   1  30
TORSDOF 5
ENDMDL
MODEL 8
REMARK VINA RESULT:      -8.3      2.142      3.262
REMARK  Name = 
REMARK  6 active torsions:
REMARK  status: ('A' for Active; 'I' for Inactive)
REMARK    1  A    between atoms: C_1  and  C_2
REMARK    2  A    between atoms: C_2  and  C_3
REMARK    3  A    between atoms: C_3  and  C_4
REMARK    4  A    between atoms: C_7  and  C_9
REMARK    5  A    between atoms: C_18  and  C_20
REMARK    6  A    between atoms: C_20  and  C_22
REMARK                            x       y       z     vdW  Elec       q    Type
REMARK                         _______ _______ _______ _____ _____    ______ ____
ROOT
ATOM      1  C   UNL     1       0.191  10.542  19.935  0.00  0.00    +0.000 C 
ATOM      2  C   UNL     1      -1.359  10.413  19.995  0.00  0.00    +0.000 C 
ATOM      3  N   UNL     1      -1.912  10.848  18.712  0.00  0.00    +0.000 N 
ATOM      4  C   UNL     1      -3.094  11.605  18.513  0.00  0.00    +0.000 C 
ATOM      5  O   UNL     1      -3.583  11.715  17.384  0.00  0.00    +0.000 OA
ATOM      6  C   UNL     1      -1.344  10.074  17.575  0.00  0.00    +0.000 C 
ATOM      7  C   UNL     1       0.230   9.888  17.584  0.00  0.00    +0.000 C 
ATOM      8  N   UNL     1       0.785   9.582  18.920  0.00  0.00    +0.000 N 
ATOM      9  C   UNL     1       1.686   8.496  19.243  0.00  0.00    +0.000 C 
ATOM     10  O   UNL     1       1.826   8.194  20.433  0.00  0.00    +0.000 OA
ENDROOT
BRANCH   4  11
ATOM     11  C   UNL     1      -3.853  12.294  19.626  0.00  0.00    +0.000 A 
ATOM     12  C   UNL     1      -5.216  12.112  19.885  0.00  0.00    +0.000 A 
ATOM     13  C   UNL     1      -5.868  12.850  20.889  0.00  0.00    +0.000 A 
ATOM     14  C   UNL     1      -5.153  13.719  21.711  0.00  0.00    +0.000 A 
ATOM     15  C   UNL     1      -3.778  13.823  21.552  0.00  0.00    +0.000 A 
ATOM     16  C   UNL     1      -3.134  13.115  20.522  0.00  0.00    +0.000 A 
ENDBRANCH   4  11
BRANCH   9  17
ATOM     17  C   UNL     1       2.606   7.629  18.122  0.00  0.00    +0.000 C 
ATOM     18  O   UNL     1       3.220   8.225  17.245  0.00  0.00    +0.000 OA
BRANCH  17  19
ATOM     19  C   UNL     1       2.727   6.093  18.253  0.00  0.00    +0.000 A 
ATOM     20  C   UNL     1       3.773   5.406  17.643  0.00  0.00    +0.000 A 
ATOM     21  N   UNL     1       3.265   4.173  17.324  0.00  0.00    +0.000 N 
ATOM     22  C   UNL     1       2.584   3.753  18.448  0.00  0.00    +0.000 A 
ATOM     23  C   UNL     1       2.323   2.430  18.864  0.00  0.00    +0.000 A 
ATOM     24  C   UNL     1       1.605   2.255  20.037  0.00  0.00    +0.000 A 
ATOM     25  C   UNL     1       1.128   3.373  20.714  0.00  0.00    +0.000 A 
ATOM     26  C   UNL     1       1.359   4.704  20.235  0.00  0.00    +0.000 A 
ATOM     27  F   UNL     1       0.865   5.706  20.974  0.00  0.00    +0.000 F 
ATOM     28  C   UNL     1       2.153   4.952  19.072  0.00  0.00    +0.000 A 
ATOM     29  H   UNL     1       2.883   3.952  16.410  0.00  0.00    +0.000 HD
ENDBRANCH  17  19
ENDBRANCH   9  17
BRANCH   1  30
ATOM     30  C   UNL     1       0.747  10.721  21.354  0.00  0.00    +0.000 C 
BRANCH  30  32
ATOM     31  C   UNL     1      -0.096   9.450  23.350  0.00  0.00    +0.000 C 
ATOM     32  C   UNL     1      -0.324  10.642  22.437  0.00  0.00    +0.000 C 
ENDBRANCH  30  32
ENDBRANCH   1  30
TORSDOF 5
ENDMDL
MODEL 9
REMARK VINA RESULT:      -8.2      2.714      8.433
REMARK  Name = 
REMARK  6 active torsions:
REMARK  status: ('A' for Active; 'I' for Inactive)
REMARK    1  A    between atoms: C_1  and  C_2
REMARK    2  A    between atoms: C_2  and  C_3
REMARK    3  A    between atoms: C_3  and  C_4
REMARK    4  A    between atoms: C_7  and  C_9
REMARK    5  A    between atoms: C_18  and  C_20
REMARK    6  A    between atoms: C_20  and  C_22
REMARK                            x       y       z     vdW  Elec       q    Type
REMARK                         _______ _______ _______ _____ _____    ______ ____
ROOT
ATOM      1  C   UNL     1       2.825   7.460  18.810  0.00  0.00    +0.000 C 
ATOM      2  C   UNL     1       2.149   6.059  18.776  0.00  0.00    +0.000 C 
ATOM      3  N   UNL     1       1.959   5.600  20.154  0.00  0.00    +0.000 N 
ATOM      4  C   UNL     1       2.127   4.279  20.636  0.00  0.00    +0.000 C 
ATOM      5  O   UNL     1       1.719   3.967  21.759  0.00  0.00    +0.000 OA
ATOM      6  C   UNL     1       1.163   6.571  20.953  0.00  0.00    +0.000 C 
ATOM      7  C   UNL     1       1.590   8.091  20.819  0.00  0.00    +0.000 C 
ATOM      8  N   UNL     1       1.910   8.498  19.434  0.00  0.00    +0.000 N 
ATOM      9  C   UNL     1       1.381   9.653  18.738  0.00  0.00    +0.000 C 
ATOM     10  O   UNL     1       1.508   9.698  17.511  0.00  0.00    +0.000 OA
ENDROOT
BRANCH   4  11
ATOM     11  C   UNL     1       2.771   3.164  19.839  0.00  0.00    +0.000 A 
ATOM     12  C   UNL     1       3.924   2.476  20.230  0.00  0.00    +0.000 A 
ATOM     13  C   UNL     1       4.507   1.505  19.396  0.00  0.00    +0.000 A 
ATOM     14  C   UNL     1       3.900   1.141  18.195  0.00  0.00    +0.000 A 
ATOM     15  C   UNL     1       2.689   1.723  17.846  0.00  0.00    +0.000 A 
ATOM     16  C   UNL     1       2.128   2.723  18.661  0.00  0.00    +0.000 A 
ENDBRANCH   4  11
BRANCH   9  17
ATOM     17  C   UNL     1       0.640  10.979  19.479  0.00  0.00    +0.000 C 
ATOM     18  O   UNL     1       1.246  11.623  20.327  0.00  0.00    +0.000 OA
BRANCH  17  19
ATOM     19  C   UNL     1      -0.774  11.417  19.029  0.00  0.00    +0.000 A 
ATOM     20  C   UNL     1      -1.253  12.690  19.326  0.00  0.00    +0.000 A 
ATOM     21  N   UNL     1      -2.610  12.547  19.467  0.00  0.00    +0.000 N 
ATOM     22  C   UNL     1      -3.012  11.772  18.399  0.00  0.00    +0.000 A 
ATOM     23  C   UNL     1      -4.277  11.742  17.774  0.00  0.00    +0.000 A 
ATOM     24  C   UNL     1      -4.447  10.867  16.712  0.00  0.00    +0.000 A 
ATOM     25  C   UNL     1      -3.401  10.026  16.350  0.00  0.00    +0.000 A 
ATOM     26  C   UNL     1      -2.146  10.039  17.043  0.00  0.00    +0.000 A 
ATOM     27  F   UNL     1      -1.203   9.195  16.601  0.00  0.00    +0.000 F 
ATOM     28  C   UNL     1      -1.884  10.968  18.098  0.00  0.00    +0.000 A 
ATOM     29  H   UNL     1      -3.060  12.413  20.367  0.00  0.00    +0.000 HD
ENDBRANCH  17  19
ENDBRANCH   9  17
BRANCH   1  30
ATOM     30  C   UNL     1       3.597   7.690  17.504  0.00  0.00    +0.000 C 
BRANCH  30  32
ATOM     31  C   UNL     1       5.066   6.585  15.793  0.00  0.00    +0.000 C 
ATOM     32  C   UNL     1       4.698   6.663  17.265  0.00  0.00    +0.000 C 
ENDBRANCH  30  32
ENDBRANCH   1  30
TORSDOF 5
ENDMDL
