MODEL 1
REMARK VINA RESULT:      -7.6      0.000      0.000
REMARK  Name = 
REMARK  6 active torsions:
REMARK  status: ('A' for Active; 'I' for Inactive)
REMARK    1  A    between atoms: C_1  and  C_2
REMARK    2  A    between atoms: C_6  and  C_7
REMARK    3  A    between atoms: C_7  and  C_9
REMARK    4  A    between atoms: C_9  and  S_10
REMARK    5  A    between atoms: S_10  and  C_11
REMARK    6  A    between atoms: C_18  and  C_19
REMARK                            x       y       z     vdW  Elec       q    Type
REMARK                         _______ _______ _______ _____ _____    ______ ____
ROOT
ATOM      1  C   UNL     1       6.396   3.523  12.245  0.00  0.00    +0.000 C 
ATOM      2  C   UNL     1       6.343   4.007  13.664  0.00  0.00    +0.000 A 
ATOM      3  C   UNL     1       5.376   3.393  14.563  0.00  0.00    +0.000 A 
ATOM      4  C   UNL     1       5.301   3.801  15.841  0.00  0.00    +0.000 A 
ATOM      5  N   UNL     1       6.148   4.811  16.313  0.00  0.00    +0.000 N 
ATOM      6  C   UNL     1       6.285   5.414  17.567  0.00  0.00    +0.000 A 
ATOM      7  C   UNL     1       7.307   6.355  17.379  0.00  0.00    +0.000 A 
ATOM      8  C   UNL     1       7.928   7.326  18.319  0.00  0.00    +0.000 C 
ATOM      9  N   UNL     1       7.783   6.330  16.089  0.00  0.00    +0.000 NA
ATOM     10  C   UNL     1       7.084   5.413  15.471  0.00  0.00    +0.000 A 
ATOM     11  C   UNL     1       7.157   4.980  14.114  0.00  0.00    +0.000 A 
ENDROOT
BRANCH   6  12
ATOM     12  C   UNL     1       5.574   5.178  18.827  0.00  0.00    +0.000 C 
ATOM     13  O   UNL     1       5.818   4.175  19.494  0.00  0.00    +0.000 OA
BRANCH  12  14
ATOM     14  C   UNL     1       4.523   6.177  19.319  0.00  0.00    +0.000 C 
BRANCH  14  15
ATOM     15  S   UNL     1       3.061   6.222  18.191  0.00  0.00    +0.000 S 
BRANCH  15  16
ATOM     16  C   UNL     1       2.256   4.676  18.595  0.00  0.00    +0.000 A 
ATOM     17  C   UNL     1       2.388   3.602  17.700  0.00  0.00    +0.000 A 
ATOM     18  C   UNL     1       1.746   2.383  17.947  0.00  0.00    +0.000 A 
ATOM     19  C   UNL     1       0.986   2.214  19.101  0.00  0.00    +0.000 A 
ATOM     20  C   UNL     1       0.892   3.255  20.024  0.00  0.00    +0.000 A 
ATOM     21  C   UNL     1       1.528   4.477  19.780  0.00  0.00    +0.000 A 
ATOM     22 CL   UNL     1       1.342   5.712  20.977  0.00  0.00    +0.000 Cl
ENDBRANCH  15  16
ENDBRANCH  14  15
ENDBRANCH  12  14
ENDBRANCH   6  12
TORSDOF 4
ENDMDL
MODEL 2
REMARK VINA RESULT:      -7.2      3.246      6.452
REMARK  Name = 
REMARK  6 active torsions:
REMARK  status: ('A' for Active; 'I' for Inactive)
REMARK    1  A    between atoms: C_1  and  C_2
REMARK    2  A    between atoms: C_6  and  C_7
REMARK    3  A    between atoms: C_7  and  C_9
REMARK    4  A    between atoms: C_9  and  S_10
REMARK    5  A    between atoms: S_10  and  C_11
REMARK    6  A    between atoms: C_18  and  C_19
REMARK                            x       y       z     vdW  Elec       q    Type
REMARK                         _______ _______ _______ _____ _____    ______ ____
ROOT
ATOM      1  C   UNL     1       1.691   9.990  18.838  0.00  0.00    +0.000 C 
ATOM      2  C   UNL     1       1.902   8.509  18.952  0.00  0.00    +0.000 A 
ATOM      3  C   UNL     1       2.339   7.784  17.766  0.00  0.00    +0.000 A 
ATOM      4  C   UNL     1       2.539   6.458  17.831  0.00  0.00    +0.000 A 
ATOM      5  N   UNL     1       2.331   5.767  19.032  0.00  0.00    +0.000 N 
ATOM      6  C   UNL     1       2.463   4.419  19.377  0.00  0.00    +0.000 A 
ATOM      7  C   UNL     1       2.103   4.381  20.731  0.00  0.00    +0.000 A 
ATOM      8  C   UNL     1       2.027   3.248  21.692  0.00  0.00    +0.000 C 
ATOM      9  N   UNL     1       1.777   5.631  21.202  0.00  0.00    +0.000 NA
ATOM     10  C   UNL     1       1.915   6.440  20.182  0.00  0.00    +0.000 A 
ATOM     11  C   UNL     1       1.700   7.848  20.107  0.00  0.00    +0.000 A 
ENDROOT
BRANCH   6  12
ATOM     12  C   UNL     1       2.874   3.261  18.578  0.00  0.00    +0.000 C 
ATOM     13  O   UNL     1       2.029   2.478  18.148  0.00  0.00    +0.000 OA
BRANCH  12  14
ATOM     14  C   UNL     1       4.355   3.018  18.274  0.00  0.00    +0.000 C 
BRANCH  14  15
ATOM     15  S   UNL     1       4.854   3.826  16.688  0.00  0.00    +0.000 S 
BRANCH  15  16
ATOM     16  C   UNL     1       6.006   5.064  17.272  0.00  0.00    +0.000 A 
ATOM     17  C   UNL     1       6.877   4.722  18.320  0.00  0.00    +0.000 A 
ATOM     18  C   UNL     1       7.770   5.665  18.843  0.00  0.00    +0.000 A 
ATOM     19  C   UNL     1       7.820   6.950  18.310  0.00  0.00    +0.000 A 
ATOM     20  C   UNL     1       6.999   7.285  17.235  0.00  0.00    +0.000 A 
ATOM     21  C   UNL     1       6.101   6.348  16.711  0.00  0.00    +0.000 A 
ATOM     22 CL   UNL     1       5.114   6.861  15.386  0.00  0.00    +0.000 Cl
ENDBRANCH  15  16
ENDBRANCH  14  15
ENDBRANCH  12  14
ENDBRANCH   6  12
TORSDOF 4
ENDMDL
MODEL 3
REMARK VINA RESULT:      -7.0      3.499      5.363
REMARK  Name = 
REMARK  6 active torsions:
REMARK  status: ('A' for Active; 'I' for Inactive)
REMARK    1  A    between atoms: C_1  and  C_2
REMARK    2  A    between atoms: C_6  and  C_7
REMARK    3  A    between atoms: C_7  and  C_9
REMARK    4  A    between atoms: C_9  and  S_10
REMARK    5  A    between atoms: S_10  and  C_11
REMARK    6  A    between atoms: C_18  and  C_19
REMARK                            x       y       z     vdW  Elec       q    Type
REMARK                         _______ _______ _______ _____ _____    ______ ____
ROOT
ATOM      1  C   UNL     1       7.135   4.847  15.853  0.00  0.00    +0.000 C 
ATOM      2  C   UNL     1       5.996   4.666  16.811  0.00  0.00    +0.000 A 
ATOM      3  C   UNL     1       6.054   5.366  18.087  0.00  0.00    +0.000 A 
ATOM      4  C   UNL     1       5.051   5.228  18.970  0.00  0.00    +0.000 A 
ATOM      5  N   UNL     1       3.948   4.417  18.669  0.00  0.00    +0.000 N 
ATOM      6  C   UNL     1       2.789   4.103  19.384  0.00  0.00    +0.000 A 
ATOM      7  C   UNL     1       2.090   3.238  18.531  0.00  0.00    +0.000 A 
ATOM      8  C   UNL     1       0.787   2.542  18.696  0.00  0.00    +0.000 C 
ATOM      9  N   UNL     1       2.770   3.035  17.353  0.00  0.00    +0.000 NA
ATOM     10  C   UNL     1       3.869   3.738  17.452  0.00  0.00    +0.000 A 
ATOM     11  C   UNL     1       4.939   3.884  16.521  0.00  0.00    +0.000 A 
ENDROOT
BRANCH   6  12
ATOM     12  C   UNL     1       2.335   4.532  20.710  0.00  0.00    +0.000 C 
ATOM     13  O   UNL     1       2.619   3.867  21.704  0.00  0.00    +0.000 OA
BRANCH  12  14
ATOM     14  C   UNL     1       1.504   5.809  20.867  0.00  0.00    +0.000 C 
BRANCH  14  15
ATOM     15  S   UNL     1       2.212   7.195  19.872  0.00  0.00    +0.000 S 
BRANCH  15  16
ATOM     16  C   UNL     1       1.249   8.582  20.465  0.00  0.00    +0.000 A 
ATOM     17  C   UNL     1       1.041   8.706  21.849  0.00  0.00    +0.000 A 
ATOM     18  C   UNL     1       0.261   9.748  22.364  0.00  0.00    +0.000 A 
ATOM     19  C   UNL     1      -0.300  10.690  21.506  0.00  0.00    +0.000 A 
ATOM     20  C   UNL     1      -0.057  10.609  20.136  0.00  0.00    +0.000 A 
ATOM     21  C   UNL     1       0.719   9.567  19.616  0.00  0.00    +0.000 A 
ATOM     22 CL   UNL     1       0.954   9.543  17.901  0.00  0.00    +0.000 Cl
ENDBRANCH  15  16
ENDBRANCH  14  15
ENDBRANCH  12  14
ENDBRANCH   6  12
TORSDOF 4
ENDMDL
MODEL 4
REMARK VINA RESULT:      -6.9      1.474      1.701
REMARK  Name = 
REMARK  6 active torsions:
REMARK  status: ('A' for Active; 'I' for Inactive)
REMARK    1  A    between atoms: C_1  and  C_2
REMARK    2  A    between atoms: C_6  and  C_7
REMARK    3  A    between atoms: C_7  and  C_9
REMARK    4  A    between atoms: C_9  and  S_10
REMARK    5  A    between atoms: S_10  and  C_11
REMARK    6  A    between atoms: C_18  and  C_19
REMARK                            x       y       z     vdW  Elec       q    Type
REMARK                         _______ _______ _______ _____ _____    ______ ____
ROOT
ATOM      1  C   UNL     1       6.034   3.337  12.529  0.00  0.00    +0.000 C 
ATOM      2  C   UNL     1       6.041   3.989  13.880  0.00  0.00    +0.000 A 
ATOM      3  C   UNL     1       5.019   3.593  14.839  0.00  0.00    +0.000 A 
ATOM      4  C   UNL     1       4.995   4.156  16.058  0.00  0.00    +0.000 A 
ATOM      5  N   UNL     1       5.948   5.119  16.413  0.00  0.00    +0.000 N 
ATOM      6  C   UNL     1       6.156   5.849  17.588  0.00  0.00    +0.000 A 
ATOM      7  C   UNL     1       7.271   6.647  17.297  0.00  0.00    +0.000 A 
ATOM      8  C   UNL     1       7.997   7.651  18.118  0.00  0.00    +0.000 C 
ATOM      9  N   UNL     1       7.735   6.418  16.022  0.00  0.00    +0.000 NA
ATOM     10  C   UNL     1       6.938   5.513  15.512  0.00  0.00    +0.000 A 
ATOM     11  C   UNL     1       6.957   4.917  14.217  0.00  0.00    +0.000 A 
ENDROOT
BRANCH   6  12
ATOM     12  C   UNL     1       5.430   5.842  18.861  0.00  0.00    +0.000 C 
ATOM     13  O   UNL     1       5.974   5.415  19.878  0.00  0.00    +0.000 OA
BRANCH  12  14
ATOM     14  C   UNL     1       3.992   6.364  18.935  0.00  0.00    +0.000 C 
BRANCH  14  15
ATOM     15  S   UNL     1       2.976   5.362  20.108  0.00  0.00    +0.000 S 
BRANCH  15  16
ATOM     16  C   UNL     1       3.109   3.732  19.385  0.00  0.00    +0.000 A 
ATOM     17  C   UNL     1       3.977   2.805  19.985  0.00  0.00    +0.000 A 
ATOM     18  C   UNL     1       4.150   1.529  19.437  0.00  0.00    +0.000 A 
ATOM     19  C   UNL     1       3.442   1.155  18.298  0.00  0.00    +0.000 A 
ATOM     20  C   UNL     1       2.537   2.047  17.724  0.00  0.00    +0.000 A 
ATOM     21  C   UNL     1       2.363   3.325  18.266  0.00  0.00    +0.000 A 
ATOM     22 CL   UNL     1       1.228   4.365  17.475  0.00  0.00    +0.000 Cl
ENDBRANCH  15  16
ENDBRANCH  14  15
ENDBRANCH  12  14
ENDBRANCH   6  12
TORSDOF 4
ENDMDL
MODEL 5
REMARK VINA RESULT:      -6.8      3.245      6.461
REMARK  Name = 
REMARK  6 active torsions:
REMARK  status: ('A' for Active; 'I' for Inactive)
REMARK    1  A    between atoms: C_1  and  C_2
REMARK    2  A    between atoms: C_6  and  C_7
REMARK    3  A    between atoms: C_7  and  C_9
REMARK    4  A    between atoms: C_9  and  S_10
REMARK    5  A    between atoms: S_10  and  C_11
REMARK    6  A    between atoms: C_18  and  C_19
REMARK                            x       y       z     vdW  Elec       q    Type
REMARK                         _______ _______ _______ _____ _____    ______ ____
ROOT
ATOM      1  C   UNL     1       1.629  10.201  19.035  0.00  0.00    +0.000 C 
ATOM      2  C   UNL     1       1.809   8.712  19.066  0.00  0.00    +0.000 A 
ATOM      3  C   UNL     1       2.218   8.044  17.838  0.00  0.00    +0.000 A 
ATOM      4  C   UNL     1       2.390   6.712  17.828  0.00  0.00    +0.000 A 
ATOM      5  N   UNL     1       2.180   5.962  18.993  0.00  0.00    +0.000 N 
ATOM      6  C   UNL     1       2.286   4.595  19.262  0.00  0.00    +0.000 A 
ATOM      7  C   UNL     1       1.939   4.490  20.617  0.00  0.00    +0.000 A 
ATOM      8  C   UNL     1       1.849   3.309  21.515  0.00  0.00    +0.000 C 
ATOM      9  N   UNL     1       1.646   5.720  21.158  0.00  0.00    +0.000 NA
ATOM     10  C   UNL     1       1.790   6.580  20.182  0.00  0.00    +0.000 A 
ATOM     11  C   UNL     1       1.605   7.994  20.186  0.00  0.00    +0.000 A 
ENDROOT
BRANCH   6  12
ATOM     12  C   UNL     1       2.664   3.474  18.397  0.00  0.00    +0.000 C 
ATOM     13  O   UNL     1       1.853   3.015  17.594  0.00  0.00    +0.000 OA
BRANCH  12  14
ATOM     14  C   UNL     1       4.066   2.866  18.487  0.00  0.00    +0.000 C 
BRANCH  14  15
ATOM     15  S   UNL     1       5.340   4.165  18.808  0.00  0.00    +0.000 S 
BRANCH  15  16
ATOM     16  C   UNL     1       5.942   4.484  17.154  0.00  0.00    +0.000 A 
ATOM     17  C   UNL     1       5.374   3.767  16.088  0.00  0.00    +0.000 A 
ATOM     18  C   UNL     1       5.835   3.947  14.779  0.00  0.00    +0.000 A 
ATOM     19  C   UNL     1       6.853   4.861  14.516  0.00  0.00    +0.000 A 
ATOM     20  C   UNL     1       7.387   5.617  15.558  0.00  0.00    +0.000 A 
ATOM     21  C   UNL     1       6.933   5.439  16.869  0.00  0.00    +0.000 A 
ATOM     22 CL   UNL     1       7.667   6.414  18.095  0.00  0.00    +0.000 Cl
ENDBRANCH  15  16
ENDBRANCH  14  15
ENDBRANCH  12  14
ENDBRANCH   6  12
TORSDOF 4
ENDMDL
MODEL 6
REMARK VINA RESULT:      -6.8      1.770      2.035
REMARK  Name = 
REMARK  6 active torsions:
REMARK  status: ('A' for Active; 'I' for Inactive)
REMARK    1  A    between atoms: C_1  and  C_2
REMARK    2  A    between atoms: C_6  and  C_7
REMARK    3  A    between atoms: C_7  and  C_9
REMARK    4  A    between atoms: C_9  and  S_10
REMARK    5  A    between atoms: S_10  and  C_11
REMARK    6  A    between atoms: C_18  and  C_19
REMARK                            x       y       z     vdW  Elec       q    Type
REMARK                         _______ _______ _______ _____ _____    ______ ____
ROOT
ATOM      1  C   UNL     1       5.754   3.471  12.756  0.00  0.00    +0.000 C 
ATOM      2  C   UNL     1       6.008   4.030  14.125  0.00  0.00    +0.000 A 
ATOM      3  C   UNL     1       5.456   3.318  15.270  0.00  0.00    +0.000 A 
ATOM      4  C   UNL     1       5.664   3.788  16.511  0.00  0.00    +0.000 A 
ATOM      5  N   UNL     1       6.409   4.958  16.710  0.00  0.00    +0.000 N 
ATOM      6  C   UNL     1       6.774   5.655  17.866  0.00  0.00    +0.000 A 
ATOM      7  C   UNL     1       7.514   6.744  17.383  0.00  0.00    +0.000 A 
ATOM      8  C   UNL     1       8.181   7.866  18.095  0.00  0.00    +0.000 C 
ATOM      9  N   UNL     1       7.610   6.718  16.012  0.00  0.00    +0.000 NA
ATOM     10  C   UNL     1       6.948   5.656  15.629  0.00  0.00    +0.000 A 
ATOM     11  C   UNL     1       6.721   5.156  14.313  0.00  0.00    +0.000 A 
ENDROOT
BRANCH   6  12
ATOM     12  C   UNL     1       6.494   5.382  19.278  0.00  0.00    +0.000 C 
ATOM     13  O   UNL     1       7.414   5.344  20.093  0.00  0.00    +0.000 OA
BRANCH  12  14
ATOM     14  C   UNL     1       5.057   5.141  19.749  0.00  0.00    +0.000 C 
BRANCH  14  15
ATOM     15  S   UNL     1       4.758   3.351  20.098  0.00  0.00    +0.000 S 
BRANCH  15  16
ATOM     16  C   UNL     1       3.001   3.221  19.789  0.00  0.00    +0.000 A 
ATOM     17  C   UNL     1       2.134   4.063  20.506  0.00  0.00    +0.000 A 
ATOM     18  C   UNL     1       0.748   3.975  20.334  0.00  0.00    +0.000 A 
ATOM     19  C   UNL     1       0.213   3.064  19.428  0.00  0.00    +0.000 A 
ATOM     20  C   UNL     1       1.065   2.261  18.672  0.00  0.00    +0.000 A 
ATOM     21  C   UNL     1       2.451   2.341  18.843  0.00  0.00    +0.000 A 
ATOM     22 CL   UNL     1       3.425   1.295  17.868  0.00  0.00    +0.000 Cl
ENDBRANCH  15  16
ENDBRANCH  14  15
ENDBRANCH  12  14
ENDBRANCH   6  12
TORSDOF 4
ENDMDL
MODEL 7
REMARK VINA RESULT:      -6.8      2.120      2.961
REMARK  Name = 
REMARK  6 active torsions:
REMARK  status: ('A' for Active; 'I' for Inactive)
REMARK    1  A    between atoms: C_1  and  C_2
REMARK    2  A    between atoms: C_6  and  C_7
REMARK    3  A    between atoms: C_7  and  C_9
REMARK    4  A    between atoms: C_9  and  S_10
REMARK    5  A    between atoms: S_10  and  C_11
REMARK    6  A    between atoms: C_18  and  C_19
REMARK                            x       y       z     vdW  Elec       q    Type
REMARK                         _______ _______ _______ _____ _____    ______ ____
ROOT
ATOM      1  C   UNL     1       6.266   3.347  12.254  0.00  0.00    +0.000 C 
ATOM      2  C   UNL     1       6.238   3.823  13.677  0.00  0.00    +0.000 A 
ATOM      3  C   UNL     1       5.354   3.142  14.612  0.00  0.00    +0.000 A 
ATOM      4  C   UNL     1       5.304   3.541  15.893  0.00  0.00    +0.000 A 
ATOM      5  N   UNL     1       6.097   4.607  16.336  0.00  0.00    +0.000 N 
ATOM      6  C   UNL     1       6.244   5.215  17.586  0.00  0.00    +0.000 A 
ATOM      7  C   UNL     1       7.189   6.225  17.361  0.00  0.00    +0.000 A 
ATOM      8  C   UNL     1       7.779   7.235  18.279  0.00  0.00    +0.000 C 
ATOM      9  N   UNL     1       7.612   6.237  16.053  0.00  0.00    +0.000 NA
ATOM     10  C   UNL     1       6.954   5.274  15.459  0.00  0.00    +0.000 A 
ATOM     11  C   UNL     1       7.001   4.850  14.098  0.00  0.00    +0.000 A 
ENDROOT
BRANCH   6  12
ATOM     12  C   UNL     1       5.603   4.928  18.873  0.00  0.00    +0.000 C 
ATOM     13  O   UNL     1       6.003   3.994  19.566  0.00  0.00    +0.000 OA
BRANCH  12  14
ATOM     14  C   UNL     1       4.431   5.785  19.361  0.00  0.00    +0.000 C 
BRANCH  14  15
ATOM     15  S   UNL     1       3.157   5.993  18.039  0.00  0.00    +0.000 S 
BRANCH  15  16
ATOM     16  C   UNL     1       2.373   7.520  18.544  0.00  0.00    +0.000 A 
ATOM     17  C   UNL     1       2.422   8.616  17.667  0.00  0.00    +0.000 A 
ATOM     18  C   UNL     1       1.861   9.846  18.029  0.00  0.00    +0.000 A 
ATOM     19  C   UNL     1       1.224   9.989  19.259  0.00  0.00    +0.000 A 
ATOM     20  C   UNL     1       1.122   8.894  20.115  0.00  0.00    +0.000 A 
ATOM     21  C   UNL     1       1.684   7.663  19.760  0.00  0.00    +0.000 A 
ATOM     22 CL   UNL     1       1.517   6.367  20.894  0.00  0.00    +0.000 Cl
ENDBRANCH  15  16
ENDBRANCH  14  15
ENDBRANCH  12  14
ENDBRANCH   6  12
TORSDOF 4
ENDMDL
MODEL 8
REMARK VINA RESULT:      -6.7      1.601      1.923
REMARK  Name = 
REMARK  6 active torsions:
REMARK  status: ('A' for Active; 'I' for Inactive)
REMARK    1  A    between atoms: C_1  and  C_2
REMARK    2  A    between atoms: C_6  and  C_7
REMARK    3  A    between atoms: C_7  and  C_9
REMARK    4  A    between atoms: C_9  and  S_10
REMARK    5  A    between atoms: S_10  and  C_11
REMARK    6  A    between atoms: C_18  and  C_19
REMARK                            x       y       z     vdW  Elec       q    Type
REMARK                         _______ _______ _______ _____ _____    ______ ____
ROOT
ATOM      1  C   UNL     1       6.725   3.133  11.982  0.00  0.00    +0.000 C 
ATOM      2  C   UNL     1       6.422   3.919  13.223  0.00  0.00    +0.000 A 
ATOM      3  C   UNL     1       5.053   3.917  13.720  0.00  0.00    +0.000 A 
ATOM      4  C   UNL     1       4.745   4.609  14.829  0.00  0.00    +0.000 A 
ATOM      5  N   UNL     1       5.733   5.332  15.510  0.00  0.00    +0.000 N 
ATOM      6  C   UNL     1       5.694   6.120  16.664  0.00  0.00    +0.000 A 
ATOM      7  C   UNL     1       7.015   6.565  16.814  0.00  0.00    +0.000 A 
ATOM      8  C   UNL     1       7.642   7.442  17.838  0.00  0.00    +0.000 C 
ATOM      9  N   UNL     1       7.827   6.074  15.819  0.00  0.00    +0.000 NA
ATOM     10  C   UNL     1       7.052   5.349  15.054  0.00  0.00    +0.000 A 
ATOM     11  C   UNL     1       7.373   4.616  13.874  0.00  0.00    +0.000 A 
ENDROOT
BRANCH   6  12
ATOM     12  C   UNL     1       4.583   6.453  17.561  0.00  0.00    +0.000 C 
ATOM     13  O   UNL     1       3.740   7.279  17.217  0.00  0.00    +0.000 OA
BRANCH  12  14
ATOM     14  C   UNL     1       4.464   5.776  18.929  0.00  0.00    +0.000 C 
BRANCH  14  15
ATOM     15  S   UNL     1       2.894   6.253  19.779  0.00  0.00    +0.000 S 
BRANCH  15  16
ATOM     16  C   UNL     1       2.141   4.653  20.051  0.00  0.00    +0.000 A 
ATOM     17  C   UNL     1       2.174   4.113  21.347  0.00  0.00    +0.000 A 
ATOM     18  C   UNL     1       1.636   2.847  21.608  0.00  0.00    +0.000 A 
ATOM     19  C   UNL     1       1.039   2.117  20.583  0.00  0.00    +0.000 A 
ATOM     20  C   UNL     1       0.953   2.665  19.305  0.00  0.00    +0.000 A 
ATOM     21  C   UNL     1       1.492   3.928  19.038  0.00  0.00    +0.000 A 
ATOM     22 CL   UNL     1       1.348   4.517  17.417  0.00  0.00    +0.000 Cl
ENDBRANCH  15  16
ENDBRANCH  14  15
ENDBRANCH  12  14
ENDBRANCH   6  12
TORSDOF 4
ENDMDL
MODEL 9
REMARK VINA RESULT:      -6.6      2.950      4.759
REMARK  Name = 
REMARK  6 active torsions:
REMARK  status: ('A' for Active; 'I' for Inactive)
REMARK    1  A    between atoms: C_1  and  C_2
REMARK    2  A    between atoms: C_6  and  C_7
REMARK    3  A    between atoms: C_7  and  C_9
REMARK    4  A    between atoms: C_9  and  S_10
REMARK    5  A    between atoms: S_10  and  C_11
REMARK    6  A    between atoms: C_18  and  C_19
REMARK                            x       y       z     vdW  Elec       q    Type
REMARK                         _______ _______ _______ _____ _____    ______ ____
ROOT
ATOM      1  C   UNL     1       8.324   8.090  17.534  0.00  0.00    +0.000 C 
ATOM      2  C   UNL     1       7.174   7.147  17.727  0.00  0.00    +0.000 A 
ATOM      3  C   UNL     1       5.925   7.435  17.035  0.00  0.00    +0.000 A 
ATOM      4  C   UNL     1       4.875   6.611  17.183  0.00  0.00    +0.000 A 
ATOM      5  N   UNL     1       4.973   5.476  17.998  0.00  0.00    +0.000 N 
ATOM      6  C   UNL     1       4.060   4.469  18.323  0.00  0.00    +0.000 A 
ATOM      7  C   UNL     1       4.777   3.629  19.187  0.00  0.00    +0.000 A 
ATOM      8  C   UNL     1       4.380   2.381  19.891  0.00  0.00    +0.000 C 
ATOM      9  N   UNL     1       6.061   4.082  19.379  0.00  0.00    +0.000 NA
ATOM     10  C   UNL     1       6.160   5.178  18.670  0.00  0.00    +0.000 A 
ATOM     11  C   UNL     1       7.271   6.058  18.513  0.00  0.00    +0.000 A 
ENDROOT
BRANCH   6  12
ATOM     12  C   UNL     1       2.670   4.264  17.905  0.00  0.00    +0.000 C 
ATOM     13  O   UNL     1       2.384   3.338  17.148  0.00  0.00    +0.000 OA
BRANCH  12  14
ATOM     14  C   UNL     1       1.566   5.201  18.404  0.00  0.00    +0.000 C 
BRANCH  14  15
ATOM     15  S   UNL     1       2.103   6.123  19.913  0.00  0.00    +0.000 S 
BRANCH  15  16
ATOM     16  C   UNL     1       1.768   7.813  19.431  0.00  0.00    +0.000 A 
ATOM     17  C   UNL     1       2.108   8.214  18.129  0.00  0.00    +0.000 A 
ATOM     18  C   UNL     1       1.906   9.535  17.712  0.00  0.00    +0.000 A 
ATOM     19  C   UNL     1       1.340  10.463  18.582  0.00  0.00    +0.000 A 
ATOM     20  C   UNL     1       0.949  10.064  19.859  0.00  0.00    +0.000 A 
ATOM     21  C   UNL     1       1.152   8.746  20.282  0.00  0.00    +0.000 A 
ATOM     22 CL   UNL     1       0.646   8.349  21.888  0.00  0.00    +0.000 Cl
ENDBRANCH  15  16
ENDBRANCH  14  15
ENDBRANCH  12  14
ENDBRANCH   6  12
TORSDOF 4
ENDMDL
