MODEL 1
REMARK VINA RESULT:      -8.2      0.000      0.000
REMARK  Name = 
REMARK  5 active torsions:
REMARK  status: ('A' for Active; 'I' for Inactive)
REMARK    1  A    between atoms: C_2  and  C_22
REMARK    2  A    between atoms: N_3  and  C_4
REMARK    3  A    between atoms: N_11  and  C_12
REMARK    4  A    between atoms: C_12  and  C_13
REMARK    5  A    between atoms: C_18  and  O_19
REMARK                            x       y       z     vdW  Elec       q    Type
REMARK                         _______ _______ _______ _____ _____    ______ ____
ROOT
ATOM      1  C   UNL     1       7.482   7.723  17.897  0.00  0.00    +0.000 A 
ATOM      2  C   UNL     1       8.113   6.743  18.669  0.00  0.00    +0.000 A 
ATOM      3  C   UNL     1       7.461   5.557  18.991  0.00  0.00    +0.000 A 
ATOM      4  C   UNL     1       6.174   5.335  18.516  0.00  0.00    +0.000 A 
ATOM      5  C   UNL     1       5.501   6.318  17.768  0.00  0.00    +0.000 A 
ATOM      6  C   UNL     1       6.151   7.532  17.494  0.00  0.00    +0.000 A 
ATOM      7  C   UNL     1       4.082   6.011  17.309  0.00  0.00    +0.000 C 
ATOM      8  N   UNL     1       3.850   4.610  16.858  0.00  0.00    +0.000 NA
ATOM      9  C   UNL     1       4.914   3.680  17.295  0.00  0.00    +0.000 C 
ATOM     10  C   UNL     1       5.502   4.003  18.669  0.00  0.00    +0.000 C 
ENDROOT
BRANCH   1  13
ATOM     11  O   UNL     1       8.956   9.680  19.552  0.00  0.00    +0.000 OA
ATOM     12  C   UNL     1       8.792   9.797  18.339  0.00  0.00    +0.000 C 
ATOM     13  N   UNL     1       8.146   8.901  17.500  0.00  0.00    +0.000 N 
ATOM     14  H   UNL     1       8.262   9.082  16.507  0.00  0.00    +0.000 HD
BRANCH  12  15
ATOM     15  C   UNL     1       9.345  11.019  17.597  0.00  0.00    +0.000 C 
ATOM     16  C   UNL     1      10.615  11.506  18.283  0.00  0.00    +0.000 C 
ATOM     17  C   UNL     1      10.553  12.996  18.092  0.00  0.00    +0.000 C 
ATOM     18  C   UNL     1       9.067  13.259  18.156  0.00  0.00    +0.000 C 
ATOM     19  O   UNL     1       8.427  12.125  17.554  0.00  0.00    +0.000 OA
ENDBRANCH  12  15
ENDBRANCH   1  13
BRANCH   8  20
ATOM     20  C   UNL     1       2.503   4.156  17.277  0.00  0.00    +0.000 C 
BRANCH  20  21
ATOM     21  C   UNL     1       2.370   3.921  18.773  0.00  0.00    +0.000 A 
ATOM     22  C   UNL     1       2.277   5.015  19.650  0.00  0.00    +0.000 A 
ATOM     23  C   UNL     1       2.039   4.820  21.012  0.00  0.00    +0.000 A 
ATOM     24  C   UNL     1       1.898   3.529  21.519  0.00  0.00    +0.000 A 
ATOM     25  C   UNL     1       2.010   2.430  20.668  0.00  0.00    +0.000 A 
ATOM     26  C   UNL     1       2.245   2.630  19.307  0.00  0.00    +0.000 A 
BRANCH  26  27
ATOM     27  O   UNL     1       2.315   1.553  18.468  0.00  0.00    +0.000 OA
ATOM     28  H   UNL     1       3.136   1.067  18.653  0.00  0.00    +0.000 HD
ENDBRANCH  26  27
ENDBRANCH  20  21
ENDBRANCH   8  20
TORSDOF 5
ENDMDL
MODEL 2
REMARK VINA RESULT:      -7.9      5.313      7.489
REMARK  Name = 
REMARK  5 active torsions:
REMARK  status: ('A' for Active; 'I' for Inactive)
REMARK    1  A    between atoms: C_2  and  C_22
REMARK    2  A    between atoms: N_3  and  C_4
REMARK    3  A    between atoms: N_11  and  C_12
REMARK    4  A    between atoms: C_12  and  C_13
REMARK    5  A    between atoms: C_18  and  O_19
REMARK                            x       y       z     vdW  Elec       q    Type
REMARK                         _______ _______ _______ _____ _____    ______ ____
ROOT
ATOM      1  C   UNL     1       0.846   9.210  19.881  0.00  0.00    +0.000 A 
ATOM      2  C   UNL     1       1.321   9.664  18.647  0.00  0.00    +0.000 A 
ATOM      3  C   UNL     1       2.239   8.917  17.915  0.00  0.00    +0.000 A 
ATOM      4  C   UNL     1       2.670   7.692  18.409  0.00  0.00    +0.000 A 
ATOM      5  C   UNL     1       2.238   7.226  19.664  0.00  0.00    +0.000 A 
ATOM      6  C   UNL     1       1.351   8.014  20.416  0.00  0.00    +0.000 A 
ATOM      7  C   UNL     1       2.779   5.889  20.149  0.00  0.00    +0.000 C 
ATOM      8  N   UNL     1       2.906   4.838  19.100  0.00  0.00    +0.000 NA
ATOM      9  C   UNL     1       2.857   5.386  17.727  0.00  0.00    +0.000 C 
ATOM     10  C   UNL     1       3.505   6.763  17.579  0.00  0.00    +0.000 C 
ENDROOT
BRANCH   1  13
ATOM     11  O   UNL     1       1.136  11.647  21.529  0.00  0.00    +0.000 OA
ATOM     12  C   UNL     1       0.078  11.036  21.392  0.00  0.00    +0.000 C 
ATOM     13  N   UNL     1      -0.135   9.914  20.606  0.00  0.00    +0.000 N 
ATOM     14  H   UNL     1      -1.110   9.654  20.481  0.00  0.00    +0.000 HD
BRANCH  12  15
ATOM     15  C   UNL     1      -1.190  11.513  22.110  0.00  0.00    +0.000 C 
ATOM     16  C   UNL     1      -1.987  12.431  21.193  0.00  0.00    +0.000 C 
ATOM     17  C   UNL     1      -2.595  13.421  22.148  0.00  0.00    +0.000 C 
ATOM     18  C   UNL     1      -1.520  13.538  23.203  0.00  0.00    +0.000 C 
ATOM     19  O   UNL     1      -0.921  12.241  23.321  0.00  0.00    +0.000 OA
ENDBRANCH  12  15
ENDBRANCH   1  13
BRANCH   8  20
ATOM     20  C   UNL     1       4.123   4.027  19.335  0.00  0.00    +0.000 C 
BRANCH  20  21
ATOM     21  C   UNL     1       5.169   4.151  18.238  0.00  0.00    +0.000 A 
ATOM     22  C   UNL     1       4.893   3.666  16.948  0.00  0.00    +0.000 A 
ATOM     23  C   UNL     1       5.793   3.873  15.900  0.00  0.00    +0.000 A 
ATOM     24  C   UNL     1       6.984   4.560  16.127  0.00  0.00    +0.000 A 
ATOM     25  C   UNL     1       7.285   5.029  17.406  0.00  0.00    +0.000 A 
ATOM     26  C   UNL     1       6.382   4.823  18.449  0.00  0.00    +0.000 A 
BRANCH  26  27
ATOM     27  O   UNL     1       6.661   5.317  19.693  0.00  0.00    +0.000 OA
ATOM     28  H   UNL     1       6.179   6.153  19.810  0.00  0.00    +0.000 HD
ENDBRANCH  26  27
ENDBRANCH  20  21
ENDBRANCH   8  20
TORSDOF 5
ENDMDL
MODEL 3
REMARK VINA RESULT:      -7.9      6.140      8.129
REMARK  Name = 
REMARK  5 active torsions:
REMARK  status: ('A' for Active; 'I' for Inactive)
REMARK    1  A    between atoms: C_2  and  C_22
REMARK    2  A    between atoms: N_3  and  C_4
REMARK    3  A    between atoms: N_11  and  C_12
REMARK    4  A    between atoms: C_12  and  C_13
REMARK    5  A    between atoms: C_18  and  O_19
REMARK                            x       y       z     vdW  Elec       q    Type
REMARK                         _______ _______ _______ _____ _____    ______ ____
ROOT
ATOM      1  C   UNL     1       2.885   7.070  18.315  0.00  0.00    +0.000 A 
ATOM      2  C   UNL     1       2.657   6.418  19.531  0.00  0.00    +0.000 A 
ATOM      3  C   UNL     1       1.942   7.038  20.552  0.00  0.00    +0.000 A 
ATOM      4  C   UNL     1       1.428   8.313  20.348  0.00  0.00    +0.000 A 
ATOM      5  C   UNL     1       1.673   9.008  19.149  0.00  0.00    +0.000 A 
ATOM      6  C   UNL     1       2.439   8.391  18.147  0.00  0.00    +0.000 A 
ATOM      7  C   UNL     1       1.101  10.412  19.014  0.00  0.00    +0.000 C 
ATOM      8  N   UNL     1      -0.265  10.598  19.580  0.00  0.00    +0.000 NA
ATOM      9  C   UNL     1      -0.659   9.511  20.503  0.00  0.00    +0.000 C 
ATOM     10  C   UNL     1       0.493   8.947  21.334  0.00  0.00    +0.000 C 
ENDROOT
BRANCH   1  13
ATOM     11  O   UNL     1       5.710   7.293  17.471  0.00  0.00    +0.000 OA
ATOM     12  C   UNL     1       4.871   6.615  16.881  0.00  0.00    +0.000 C 
ATOM     13  N   UNL     1       3.544   6.437  17.243  0.00  0.00    +0.000 N 
ATOM     14  H   UNL     1       3.054   5.706  16.735  0.00  0.00    +0.000 HD
BRANCH  12  15
ATOM     15  C   UNL     1       5.255   5.837  15.617  0.00  0.00    +0.000 C 
ATOM     16  C   UNL     1       4.973   4.354  15.820  0.00  0.00    +0.000 C 
ATOM     17  C   UNL     1       6.072   3.690  15.037  0.00  0.00    +0.000 C 
ATOM     18  C   UNL     1       7.219   4.655  15.226  0.00  0.00    +0.000 C 
ATOM     19  O   UNL     1       6.644   5.967  15.265  0.00  0.00    +0.000 OA
ENDBRANCH  12  15
ENDBRANCH   1  13
BRANCH   8  20
ATOM     20  C   UNL     1      -0.379  11.934  20.209  0.00  0.00    +0.000 C 
BRANCH  20  21
ATOM     21  C   UNL     1      -1.742  12.213  20.822  0.00  0.00    +0.000 A 
ATOM     22  C   UNL     1      -1.875  12.325  22.216  0.00  0.00    +0.000 A 
ATOM     23  C   UNL     1      -3.094  12.693  22.790  0.00  0.00    +0.000 A 
ATOM     24  C   UNL     1      -4.200  12.947  21.980  0.00  0.00    +0.000 A 
ATOM     25  C   UNL     1      -4.092  12.818  20.595  0.00  0.00    +0.000 A 
ATOM     26  C   UNL     1      -2.872  12.453  20.026  0.00  0.00    +0.000 A 
BRANCH  26  27
ATOM     27  O   UNL     1      -2.759  12.366  18.666  0.00  0.00    +0.000 OA
ATOM     28  H   UNL     1      -2.347  13.182  18.335  0.00  0.00    +0.000 HD
ENDBRANCH  26  27
ENDBRANCH  20  21
ENDBRANCH   8  20
TORSDOF 5
ENDMDL
MODEL 4
REMARK VINA RESULT:      -7.9      5.128      6.903
REMARK  Name = 
REMARK  5 active torsions:
REMARK  status: ('A' for Active; 'I' for Inactive)
REMARK    1  A    between atoms: C_2  and  C_22
REMARK    2  A    between atoms: N_3  and  C_4
REMARK    3  A    between atoms: N_11  and  C_12
REMARK    4  A    between atoms: C_12  and  C_13
REMARK    5  A    between atoms: C_18  and  O_19
REMARK                            x       y       z     vdW  Elec       q    Type
REMARK                         _______ _______ _______ _____ _____    ______ ____
ROOT
ATOM      1  C   UNL     1       1.377   9.158  19.506  0.00  0.00    +0.000 A 
ATOM      2  C   UNL     1       1.051   8.484  20.687  0.00  0.00    +0.000 A 
ATOM      3  C   UNL     1       1.445   7.166  20.892  0.00  0.00    +0.000 A 
ATOM      4  C   UNL     1       2.197   6.520  19.917  0.00  0.00    +0.000 A 
ATOM      5  C   UNL     1       2.509   7.160  18.703  0.00  0.00    +0.000 A 
ATOM      6  C   UNL     1       2.060   8.472  18.489  0.00  0.00    +0.000 A 
ATOM      7  C   UNL     1       3.310   6.375  17.674  0.00  0.00    +0.000 C 
ATOM      8  N   UNL     1       4.396   5.521  18.232  0.00  0.00    +0.000 NA
ATOM      9  C   UNL     1       4.257   5.287  19.686  0.00  0.00    +0.000 C 
ATOM     10  C   UNL     1       2.809   5.174  20.165  0.00  0.00    +0.000 C 
ENDROOT
BRANCH   1  13
ATOM     11  O   UNL     1      -1.124  10.336  18.459  0.00  0.00    +0.000 OA
ATOM     12  C   UNL     1      -0.137  10.997  18.775  0.00  0.00    +0.000 C 
ATOM     13  N   UNL     1       1.049  10.513  19.306  0.00  0.00    +0.000 N 
ATOM     14  H   UNL     1       1.681  11.224  19.666  0.00  0.00    +0.000 HD
BRANCH  12  15
ATOM     15  C   UNL     1      -0.144  12.522  18.618  0.00  0.00    +0.000 C 
ATOM     16  C   UNL     1       1.287  13.036  18.524  0.00  0.00    +0.000 C 
ATOM     17  C   UNL     1       1.213  14.371  19.212  0.00  0.00    +0.000 C 
ATOM     18  C   UNL     1       0.176  14.116  20.280  0.00  0.00    +0.000 C 
ATOM     19  O   UNL     1      -0.776  13.206  19.714  0.00  0.00    +0.000 OA
ENDBRANCH  12  15
ENDBRANCH   1  13
BRANCH   8  20
ATOM     20  C   UNL     1       4.493   4.255  17.469  0.00  0.00    +0.000 C 
BRANCH  20  21
ATOM     21  C   UNL     1       5.421   4.329  16.266  0.00  0.00    +0.000 A 
ATOM     22  C   UNL     1       4.941   3.998  14.988  0.00  0.00    +0.000 A 
ATOM     23  C   UNL     1       5.743   4.169  13.858  0.00  0.00    +0.000 A 
ATOM     24  C   UNL     1       7.039   4.667  13.989  0.00  0.00    +0.000 A 
ATOM     25  C   UNL     1       7.540   4.979  15.253  0.00  0.00    +0.000 A 
ATOM     26  C   UNL     1       6.734   4.809  16.379  0.00  0.00    +0.000 A 
BRANCH  26  27
ATOM     27  O   UNL     1       7.214   5.153  17.612  0.00  0.00    +0.000 OA
ATOM     28  H   UNL     1       6.529   4.968  18.276  0.00  0.00    +0.000 HD
ENDBRANCH  26  27
ENDBRANCH  20  21
ENDBRANCH   8  20
TORSDOF 5
ENDMDL
MODEL 5
REMARK VINA RESULT:      -7.8      6.076      8.146
REMARK  Name = 
REMARK  5 active torsions:
REMARK  status: ('A' for Active; 'I' for Inactive)
REMARK    1  A    between atoms: C_2  and  C_22
REMARK    2  A    between atoms: N_3  and  C_4
REMARK    3  A    between atoms: N_11  and  C_12
REMARK    4  A    between atoms: C_12  and  C_13
REMARK    5  A    between atoms: C_18  and  O_19
REMARK                            x       y       z     vdW  Elec       q    Type
REMARK                         _______ _______ _______ _____ _____    ______ ____
ROOT
ATOM      1  C   UNL     1       2.773   6.984  18.401  0.00  0.00    +0.000 A 
ATOM      2  C   UNL     1       2.548   6.356  19.630  0.00  0.00    +0.000 A 
ATOM      3  C   UNL     1       1.882   7.015  20.659  0.00  0.00    +0.000 A 
ATOM      4  C   UNL     1       1.413   8.307  20.451  0.00  0.00    +0.000 A 
ATOM      5  C   UNL     1       1.656   8.977  19.238  0.00  0.00    +0.000 A 
ATOM      6  C   UNL     1       2.375   8.319  18.227  0.00  0.00    +0.000 A 
ATOM      7  C   UNL     1       1.137  10.401  19.098  0.00  0.00    +0.000 C 
ATOM      8  N   UNL     1      -0.207  10.647  19.693  0.00  0.00    +0.000 NA
ATOM      9  C   UNL     1      -0.622   9.588  20.638  0.00  0.00    +0.000 C 
ATOM     10  C   UNL     1       0.527   8.989  21.450  0.00  0.00    +0.000 C 
ENDROOT
BRANCH   1  13
ATOM     11  O   UNL     1       5.600   7.023  17.539  0.00  0.00    +0.000 OA
ATOM     12  C   UNL     1       4.715   6.404  16.952  0.00  0.00    +0.000 C 
ATOM     13  N   UNL     1       3.382   6.313  17.323  0.00  0.00    +0.000 N 
ATOM     14  H   UNL     1       2.840   5.618  16.815  0.00  0.00    +0.000 HD
BRANCH  12  15
ATOM     15  C   UNL     1       5.038   5.608  15.683  0.00  0.00    +0.000 C 
ATOM     16  C   UNL     1       5.144   4.125  16.018  0.00  0.00    +0.000 C 
ATOM     17  C   UNL     1       6.210   3.639  15.076  0.00  0.00    +0.000 C 
ATOM     18  C   UNL     1       7.120   4.842  14.986  0.00  0.00    +0.000 C 
ATOM     19  O   UNL     1       6.276   5.998  15.063  0.00  0.00    +0.000 OA
ENDBRANCH  12  15
ENDBRANCH   1  13
BRANCH   8  20
ATOM     20  C   UNL     1      -0.255  11.994  20.307  0.00  0.00    +0.000 C 
BRANCH  20  21
ATOM     21  C   UNL     1      -1.584  12.325  20.966  0.00  0.00    +0.000 A 
ATOM     22  C   UNL     1      -2.712  12.598  20.173  0.00  0.00    +0.000 A 
ATOM     23  C   UNL     1      -3.966  12.791  20.758  0.00  0.00    +0.000 A 
ATOM     24  C   UNL     1      -4.109  12.721  22.143  0.00  0.00    +0.000 A 
ATOM     25  C   UNL     1      -2.997  12.474  22.947  0.00  0.00    +0.000 A 
ATOM     26  C   UNL     1      -1.747  12.279  22.359  0.00  0.00    +0.000 A 
BRANCH  26  27
ATOM     27  O   UNL     1      -0.665  11.998  23.146  0.00  0.00    +0.000 OA
ATOM     28  H   UNL     1       0.139  12.059  22.604  0.00  0.00    +0.000 HD
ENDBRANCH  26  27
ENDBRANCH  20  21
ENDBRANCH   8  20
TORSDOF 5
ENDMDL
MODEL 6
REMARK VINA RESULT:      -7.7      4.951      6.976
REMARK  Name = 
REMARK  5 active torsions:
REMARK  status: ('A' for Active; 'I' for Inactive)
REMARK    1  A    between atoms: C_2  and  C_22
REMARK    2  A    between atoms: N_3  and  C_4
REMARK    3  A    between atoms: N_11  and  C_12
REMARK    4  A    between atoms: C_12  and  C_13
REMARK    5  A    between atoms: C_18  and  O_19
REMARK                            x       y       z     vdW  Elec       q    Type
REMARK                         _______ _______ _______ _____ _____    ______ ____
ROOT
ATOM      1  C   UNL     1       1.743   8.404  19.511  0.00  0.00    +0.000 A 
ATOM      2  C   UNL     1       1.450   7.615  20.628  0.00  0.00    +0.000 A 
ATOM      3  C   UNL     1       1.882   6.295  20.704  0.00  0.00    +0.000 A 
ATOM      4  C   UNL     1       2.637   5.763  19.666  0.00  0.00    +0.000 A 
ATOM      5  C   UNL     1       2.917   6.521  18.513  0.00  0.00    +0.000 A 
ATOM      6  C   UNL     1       2.430   7.835  18.427  0.00  0.00    +0.000 A 
ATOM      7  C   UNL     1       3.723   5.857  17.407  0.00  0.00    +0.000 C 
ATOM      8  N   UNL     1       4.839   4.985  17.871  0.00  0.00    +0.000 NA
ATOM      9  C   UNL     1       4.725   4.613  19.298  0.00  0.00    +0.000 C 
ATOM     10  C   UNL     1       3.288   4.417  19.781  0.00  0.00    +0.000 C 
ENDROOT
BRANCH   1  13
ATOM     11  O   UNL     1      -0.274   9.706  17.785  0.00  0.00    +0.000 OA
ATOM     12  C   UNL     1       0.442  10.314  18.579  0.00  0.00    +0.000 C 
ATOM     13  N   UNL     1       1.377   9.763  19.442  0.00  0.00    +0.000 N 
ATOM     14  H   UNL     1       1.745  10.401  20.143  0.00  0.00    +0.000 HD
BRANCH  12  15
ATOM     15  C   UNL     1       0.336  11.838  18.706  0.00  0.00    +0.000 C 
ATOM     16  C   UNL     1       0.951  12.288  20.025  0.00  0.00    +0.000 C 
ATOM     17  C   UNL     1       0.095  13.462  20.415  0.00  0.00    +0.000 C 
ATOM     18  C   UNL     1      -1.259  13.052  19.885  0.00  0.00    +0.000 C 
ATOM     19  O   UNL     1      -1.018  12.321  18.675  0.00  0.00    +0.000 OA
ENDBRANCH  12  15
ENDBRANCH   1  13
BRANCH   8  20
ATOM     20  C   UNL     1       4.959   3.799  16.992  0.00  0.00    +0.000 C 
BRANCH  20  21
ATOM     21  C   UNL     1       5.746   4.053  15.716  0.00  0.00    +0.000 A 
ATOM     22  C   UNL     1       5.207   3.680  14.473  0.00  0.00    +0.000 A 
ATOM     23  C   UNL     1       5.862   4.008  13.284  0.00  0.00    +0.000 A 
ATOM     24  C   UNL     1       7.068   4.707  13.320  0.00  0.00    +0.000 A 
ATOM     25  C   UNL     1       7.629   5.066  14.545  0.00  0.00    +0.000 A 
ATOM     26  C   UNL     1       6.970   4.738  15.731  0.00  0.00    +0.000 A 
BRANCH  26  27
ATOM     27  O   UNL     1       7.503   5.125  16.929  0.00  0.00    +0.000 OA
ATOM     28  H   UNL     1       8.462   4.968  16.909  0.00  0.00    +0.000 HD
ENDBRANCH  26  27
ENDBRANCH  20  21
ENDBRANCH   8  20
TORSDOF 5
ENDMDL
MODEL 7
REMARK VINA RESULT:      -7.7      5.033      7.263
REMARK  Name = 
REMARK  5 active torsions:
REMARK  status: ('A' for Active; 'I' for Inactive)
REMARK    1  A    between atoms: C_2  and  C_22
REMARK    2  A    between atoms: N_3  and  C_4
REMARK    3  A    between atoms: N_11  and  C_12
REMARK    4  A    between atoms: C_12  and  C_13
REMARK    5  A    between atoms: C_18  and  O_19
REMARK                            x       y       z     vdW  Elec       q    Type
REMARK                         _______ _______ _______ _____ _____    ______ ____
ROOT
ATOM      1  C   UNL     1       1.084   9.368  20.021  0.00  0.00    +0.000 A 
ATOM      2  C   UNL     1       1.293   9.645  18.667  0.00  0.00    +0.000 A 
ATOM      3  C   UNL     1       1.964   8.743  17.848  0.00  0.00    +0.000 A 
ATOM      4  C   UNL     1       2.409   7.538  18.380  0.00  0.00    +0.000 A 
ATOM      5  C   UNL     1       2.244   7.248  19.747  0.00  0.00    +0.000 A 
ATOM      6  C   UNL     1       1.611   8.190  20.573  0.00  0.00    +0.000 A 
ATOM      7  C   UNL     1       2.785   5.921  20.260  0.00  0.00    +0.000 C 
ATOM      8  N   UNL     1       2.593   4.761  19.345  0.00  0.00    +0.000 NA
ATOM      9  C   UNL     1       2.270   5.167  17.960  0.00  0.00    +0.000 C 
ATOM     10  C   UNL     1       2.963   6.453  17.506  0.00  0.00    +0.000 C 
ENDROOT
BRANCH   1  13
ATOM     11  O   UNL     1       1.395  12.281  20.421  0.00  0.00    +0.000 OA
ATOM     12  C   UNL     1       0.570  11.593  21.020  0.00  0.00    +0.000 C 
ATOM     13  N   UNL     1       0.347  10.235  20.853  0.00  0.00    +0.000 N 
ATOM     14  H   UNL     1      -0.490   9.877  21.307  0.00  0.00    +0.000 HD
BRANCH  12  15
ATOM     15  C   UNL     1      -0.360  12.229  22.059  0.00  0.00    +0.000 C 
ATOM     16  C   UNL     1      -1.059  11.137  22.860  0.00  0.00    +0.000 C 
ATOM     17  C   UNL     1      -2.411  11.735  23.140  0.00  0.00    +0.000 C 
ATOM     18  C   UNL     1      -2.657  12.549  21.892  0.00  0.00    +0.000 C 
ATOM     19  O   UNL     1      -1.382  13.058  21.479  0.00  0.00    +0.000 OA
ENDBRANCH  12  15
ENDBRANCH   1  13
BRANCH   8  20
ATOM     20  C   UNL     1       3.771   3.865  19.404  0.00  0.00    +0.000 C 
BRANCH  20  21
ATOM     21  C   UNL     1       5.014   4.435  18.739  0.00  0.00    +0.000 A 
ATOM     22  C   UNL     1       5.809   5.371  19.424  0.00  0.00    +0.000 A 
ATOM     23  C   UNL     1       7.013   5.819  18.878  0.00  0.00    +0.000 A 
ATOM     24  C   UNL     1       7.438   5.345  17.637  0.00  0.00    +0.000 A 
ATOM     25  C   UNL     1       6.652   4.433  16.934  0.00  0.00    +0.000 A 
ATOM     26  C   UNL     1       5.450   3.986  17.484  0.00  0.00    +0.000 A 
BRANCH  26  27
ATOM     27  O   UNL     1       4.700   3.062  16.810  0.00  0.00    +0.000 OA
ATOM     28  H   UNL     1       3.984   3.524  16.342  0.00  0.00    +0.000 HD
ENDBRANCH  26  27
ENDBRANCH  20  21
ENDBRANCH   8  20
TORSDOF 5
ENDMDL
MODEL 8
REMARK VINA RESULT:      -7.7      4.618      6.764
REMARK  Name = 
REMARK  5 active torsions:
REMARK  status: ('A' for Active; 'I' for Inactive)
REMARK    1  A    between atoms: C_2  and  C_22
REMARK    2  A    between atoms: N_3  and  C_4
REMARK    3  A    between atoms: N_11  and  C_12
REMARK    4  A    between atoms: C_12  and  C_13
REMARK    5  A    between atoms: C_18  and  O_19
REMARK                            x       y       z     vdW  Elec       q    Type
REMARK                         _______ _______ _______ _____ _____    ______ ____
ROOT
ATOM      1  C   UNL     1       1.588   8.240  19.658  0.00  0.00    +0.000 A 
ATOM      2  C   UNL     1       1.294   7.416  20.748  0.00  0.00    +0.000 A 
ATOM      3  C   UNL     1       1.748   6.102  20.794  0.00  0.00    +0.000 A 
ATOM      4  C   UNL     1       2.526   5.612  19.752  0.00  0.00    +0.000 A 
ATOM      5  C   UNL     1       2.808   6.406  18.625  0.00  0.00    +0.000 A 
ATOM      6  C   UNL     1       2.300   7.714  18.568  0.00  0.00    +0.000 A 
ATOM      7  C   UNL     1       3.641   5.787  17.512  0.00  0.00    +0.000 C 
ATOM      8  N   UNL     1       4.766   4.922  17.968  0.00  0.00    +0.000 NA
ATOM      9  C   UNL     1       4.639   4.509  19.382  0.00  0.00    +0.000 C 
ATOM     10  C   UNL     1       3.199   4.274  19.839  0.00  0.00    +0.000 C 
ENDROOT
BRANCH   1  13
ATOM     11  O   UNL     1       1.233  10.140  21.895  0.00  0.00    +0.000 OA
ATOM     12  C   UNL     1       1.017  10.422  20.718  0.00  0.00    +0.000 C 
ATOM     13  N   UNL     1       1.199   9.594  19.621  0.00  0.00    +0.000 N 
ATOM     14  H   UNL     1       1.135  10.057  18.718  0.00  0.00    +0.000 HD
BRANCH  12  15
ATOM     15  C   UNL     1       0.514  11.819  20.337  0.00  0.00    +0.000 C 
ATOM     16  C   UNL     1      -0.506  11.708  19.211  0.00  0.00    +0.000 C 
ATOM     17  C   UNL     1      -0.263  12.958  18.409  0.00  0.00    +0.000 C 
ATOM     18  C   UNL     1       1.229  13.144  18.565  0.00  0.00    +0.000 C 
ATOM     19  O   UNL     1       1.559  12.699  19.887  0.00  0.00    +0.000 OA
ENDBRANCH  12  15
ENDBRANCH   1  13
BRANCH   8  20
ATOM     20  C   UNL     1       4.919   3.763  17.058  0.00  0.00    +0.000 C 
BRANCH  20  21
ATOM     21  C   UNL     1       5.735   4.061  15.811  0.00  0.00    +0.000 A 
ATOM     22  C   UNL     1       5.223   3.736  14.543  0.00  0.00    +0.000 A 
ATOM     23  C   UNL     1       5.905   4.105  13.381  0.00  0.00    +0.000 A 
ATOM     24  C   UNL     1       7.113   4.797  13.470  0.00  0.00    +0.000 A 
ATOM     25  C   UNL     1       7.647   5.107  14.720  0.00  0.00    +0.000 A 
ATOM     26  C   UNL     1       6.961   4.739  15.878  0.00  0.00    +0.000 A 
BRANCH  26  27
ATOM     27  O   UNL     1       7.468   5.079  17.101  0.00  0.00    +0.000 OA
ATOM     28  H   UNL     1       8.093   5.814  16.985  0.00  0.00    +0.000 HD
ENDBRANCH  26  27
ENDBRANCH  20  21
ENDBRANCH   8  20
TORSDOF 5
ENDMDL
MODEL 9
REMARK VINA RESULT:      -7.6      4.584      6.968
REMARK  Name = 
REMARK  5 active torsions:
REMARK  status: ('A' for Active; 'I' for Inactive)
REMARK    1  A    between atoms: C_2  and  C_22
REMARK    2  A    between atoms: N_3  and  C_4
REMARK    3  A    between atoms: N_11  and  C_12
REMARK    4  A    between atoms: C_12  and  C_13
REMARK    5  A    between atoms: C_18  and  O_19
REMARK                            x       y       z     vdW  Elec       q    Type
REMARK                         _______ _______ _______ _____ _____    ______ ____
ROOT
ATOM      1  C   UNL     1       2.090   7.408  19.276  0.00  0.00    +0.000 A 
ATOM      2  C   UNL     1       2.200   6.578  20.395  0.00  0.00    +0.000 A 
ATOM      3  C   UNL     1       2.910   5.383  20.333  0.00  0.00    +0.000 A 
ATOM      4  C   UNL     1       3.541   5.026  19.148  0.00  0.00    +0.000 A 
ATOM      5  C   UNL     1       3.418   5.823  17.994  0.00  0.00    +0.000 A 
ATOM      6  C   UNL     1       2.654   7.000  18.057  0.00  0.00    +0.000 A 
ATOM      7  C   UNL     1       4.113   5.348  16.727  0.00  0.00    +0.000 C 
ATOM      8  N   UNL     1       5.458   4.742  16.930  0.00  0.00    +0.000 NA
ATOM      9  C   UNL     1       5.712   4.358  18.335  0.00  0.00    +0.000 C 
ATOM     10  C   UNL     1       4.474   3.854  19.079  0.00  0.00    +0.000 C 
ENDROOT
BRANCH   1  13
ATOM     11  O   UNL     1       2.145   9.636  17.334  0.00  0.00    +0.000 OA
ATOM     12  C   UNL     1       1.533   9.674  18.399  0.00  0.00    +0.000 C 
ATOM     13  N   UNL     1       1.435   8.654  19.334  0.00  0.00    +0.000 N 
ATOM     14  H   UNL     1       0.746   8.807  20.067  0.00  0.00    +0.000 HD
BRANCH  12  15
ATOM     15  C   UNL     1       0.755  10.931  18.802  0.00  0.00    +0.000 C 
ATOM     16  C   UNL     1       1.400  11.566  20.028  0.00  0.00    +0.000 C 
ATOM     17  C   UNL     1       0.224  12.132  20.775  0.00  0.00    +0.000 C 
ATOM     18  C   UNL     1      -0.858  11.124  20.465  0.00  0.00    +0.000 C 
ATOM     19  O   UNL     1      -0.622  10.672  19.125  0.00  0.00    +0.000 OA
ENDBRANCH  12  15
ENDBRANCH   1  13
BRANCH   8  20
ATOM     20  C   UNL     1       5.653   3.607  15.997  0.00  0.00    +0.000 C 
BRANCH  20  21
ATOM     21  C   UNL     1       6.313   3.996  14.683  0.00  0.00    +0.000 A 
ATOM     22  C   UNL     1       5.903   3.387  13.485  0.00  0.00    +0.000 A 
ATOM     23  C   UNL     1       6.415   3.811  12.257  0.00  0.00    +0.000 A 
ATOM     24  C   UNL     1       7.350   4.844  12.209  0.00  0.00    +0.000 A 
ATOM     25  C   UNL     1       7.786   5.444  13.390  0.00  0.00    +0.000 A 
ATOM     26  C   UNL     1       7.270   5.019  14.614  0.00  0.00    +0.000 A 
BRANCH  26  27
ATOM     27  O   UNL     1       7.669   5.636  15.767  0.00  0.00    +0.000 OA
ATOM     28  H   UNL     1       7.354   5.114  16.524  0.00  0.00    +0.000 HD
ENDBRANCH  26  27
ENDBRANCH  20  21
ENDBRANCH   8  20
TORSDOF 5
ENDMDL
