MODEL 1
REMARK VINA RESULT:      -7.8      0.000      0.000
REMARK  Name = 
REMARK  9 active torsions:
REMARK  status: ('A' for Active; 'I' for Inactive)
REMARK    1  A    between atoms: C_2  and  C_3
REMARK    2  A    between atoms: C_6  and  O_7
REMARK    3  A    between atoms: O_7  and  C_8
REMARK    4  A    between atoms: C_8  and  C_9
REMARK    5  A    between atoms: C_15  and  O_16
REMARK    6  A    between atoms: O_16  and  C_17
REMARK    7  A    between atoms: C_17  and  C_18
REMARK    8  A    between atoms: C_17  and  C_21
REMARK    9  A    between atoms: C_18  and  O_20
REMARK                            x       y       z     vdW  Elec       q    Type
REMARK                         _______ _______ _______ _____ _____    ______ ____
ROOT
ATOM      1  C   UNL     1       1.945   5.292  20.545  0.00  0.00    +0.000 A 
ATOM      2  C   UNL     1       1.457   6.444  21.171  0.00  0.00    +0.000 A 
ATOM      3  C   UNL     1       1.526   7.682  20.528  0.00  0.00    +0.000 A 
ATOM      4  C   UNL     1       2.110   7.772  19.268  0.00  0.00    +0.000 A 
ATOM      5  C   UNL     1       2.556   6.612  18.620  0.00  0.00    +0.000 A 
ATOM      6  C   UNL     1       2.487   5.361  19.249  0.00  0.00    +0.000 A 
ENDROOT
BRANCH   1   8
ATOM      7  N   UNL     1       1.865   3.038  21.831  0.00  0.00    +0.000 NA
ATOM      8  C   UNL     1       1.908   4.057  21.274  0.00  0.00    +0.000 C 
ENDBRANCH   1   8
BRANCH   4   9
ATOM      9  O   UNL     1       2.292   8.940  18.575  0.00  0.00    +0.000 OA
BRANCH   9  10
ATOM     10  C   UNL     1       1.229   9.290  17.681  0.00  0.00    +0.000 C 
BRANCH  10  11
ATOM     11  C   UNL     1       0.222  10.182  18.342  0.00  0.00    +0.000 A 
ATOM     12  C   UNL     1      -1.183  10.172  18.046  0.00  0.00    +0.000 A 
ATOM     13  C   UNL     1      -1.881  11.125  18.755  0.00  0.00    +0.000 A 
ATOM     14  S   UNL     1      -0.861  12.034  19.780  0.00  0.00    +0.000 S 
ATOM     15  C   UNL     1       0.517  11.156  19.278  0.00  0.00    +0.000 A 
ENDBRANCH  10  11
ENDBRANCH   9  10
ENDBRANCH   4   9
BRANCH   6  16
ATOM     16  O   UNL     1       2.908   4.172  18.693  0.00  0.00    +0.000 OA
BRANCH  16  17
ATOM     17  C   UNL     1       4.266   3.752  18.916  0.00  0.00    +0.000 C 
BRANCH  17  18
ATOM     18  C   UNL     1       5.166   4.125  17.737  0.00  0.00    +0.000 A 
ATOM     19  C   UNL     1       4.860   3.723  16.422  0.00  0.00    +0.000 A 
ATOM     20  C   UNL     1       5.740   3.984  15.369  0.00  0.00    +0.000 A 
ATOM     21  C   UNL     1       6.936   4.658  15.603  0.00  0.00    +0.000 A 
ATOM     22  C   UNL     1       7.246   5.090  16.889  0.00  0.00    +0.000 A 
ATOM     23  C   UNL     1       6.369   4.830  17.948  0.00  0.00    +0.000 A 
ATOM     24 CL   UNL     1       6.832   5.414  19.507  0.00  0.00    +0.000 Cl
ENDBRANCH  17  18
BRANCH  17  25
ATOM     25  C   UNL     1       4.277   2.227  19.126  0.00  0.00    +0.000 C 
ATOM     26  O   UNL     1       3.560   1.445  18.516  0.00  0.00    +0.000 OA
BRANCH  25  27
ATOM     27  O   UNL     1       5.191   1.798  20.035  0.00  0.00    +0.000 OA
ATOM     28  H   UNL     1       6.015   1.465  19.625  0.00  0.00    +0.000 HD
ENDBRANCH  25  27
ENDBRANCH  17  25
ENDBRANCH  16  17
ENDBRANCH   6  16
TORSDOF 9
ENDMDL
MODEL 2
REMARK VINA RESULT:      -7.7      1.166      1.460
REMARK  Name = 
REMARK  9 active torsions:
REMARK  status: ('A' for Active; 'I' for Inactive)
REMARK    1  A    between atoms: C_2  and  C_3
REMARK    2  A    between atoms: C_6  and  O_7
REMARK    3  A    between atoms: O_7  and  C_8
REMARK    4  A    between atoms: C_8  and  C_9
REMARK    5  A    between atoms: C_15  and  O_16
REMARK    6  A    between atoms: O_16  and  C_17
REMARK    7  A    between atoms: C_17  and  C_18
REMARK    8  A    between atoms: C_17  and  C_21
REMARK    9  A    between atoms: C_18  and  O_20
REMARK                            x       y       z     vdW  Elec       q    Type
REMARK                         _______ _______ _______ _____ _____    ______ ____
ROOT
ATOM      1  C   UNL     1       2.044   5.619  20.377  0.00  0.00    +0.000 A 
ATOM      2  C   UNL     1       1.600   6.821  20.940  0.00  0.00    +0.000 A 
ATOM      3  C   UNL     1       1.629   8.003  20.197  0.00  0.00    +0.000 A 
ATOM      4  C   UNL     1       2.130   7.988  18.899  0.00  0.00    +0.000 A 
ATOM      5  C   UNL     1       2.530   6.777  18.317  0.00  0.00    +0.000 A 
ATOM      6  C   UNL     1       2.500   5.581  19.047  0.00  0.00    +0.000 A 
ENDROOT
BRANCH   1   8
ATOM      7  N   UNL     1       2.078   3.518  21.901  0.00  0.00    +0.000 NA
ATOM      8  C   UNL     1       2.052   4.446  21.203  0.00  0.00    +0.000 C 
ENDBRANCH   1   8
BRANCH   4   9
ATOM      9  O   UNL     1       2.268   9.097  18.105  0.00  0.00    +0.000 OA
BRANCH   9  10
ATOM     10  C   UNL     1       1.172  10.019  18.151  0.00  0.00    +0.000 C 
BRANCH  10  11
ATOM     11  C   UNL     1       1.578  11.329  18.756  0.00  0.00    +0.000 A 
ATOM     12  C   UNL     1       1.120  11.806  20.031  0.00  0.00    +0.000 A 
ATOM     13  C   UNL     1       1.601  13.061  20.332  0.00  0.00    +0.000 A 
ATOM     14  S   UNL     1       2.607  13.674  19.095  0.00  0.00    +0.000 S 
ATOM     15  C   UNL     1       2.400  12.262  18.153  0.00  0.00    +0.000 A 
ENDBRANCH  10  11
ENDBRANCH   9  10
ENDBRANCH   4   9
BRANCH   6  16
ATOM     16  O   UNL     1       2.881   4.348  18.562  0.00  0.00    +0.000 OA
BRANCH  16  17
ATOM     17  C   UNL     1       4.220   3.891  18.825  0.00  0.00    +0.000 C 
BRANCH  17  18
ATOM     18  C   UNL     1       5.160   4.222  17.665  0.00  0.00    +0.000 A 
ATOM     19  C   UNL     1       4.871   3.820  16.346  0.00  0.00    +0.000 A 
ATOM     20  C   UNL     1       5.785   4.041  15.313  0.00  0.00    +0.000 A 
ATOM     21  C   UNL     1       6.999   4.673  15.570  0.00  0.00    +0.000 A 
ATOM     22  C   UNL     1       7.294   5.103  16.860  0.00  0.00    +0.000 A 
ATOM     23  C   UNL     1       6.384   4.884  17.899  0.00  0.00    +0.000 A 
ATOM     24 CL   UNL     1       6.831   5.463  19.465  0.00  0.00    +0.000 Cl
ENDBRANCH  17  18
BRANCH  17  25
ATOM     25  C   UNL     1       4.179   2.369  19.053  0.00  0.00    +0.000 C 
ATOM     26  O   UNL     1       3.378   1.616  18.517  0.00  0.00    +0.000 OA
BRANCH  25  27
ATOM     27  O   UNL     1       5.147   1.907  19.887  0.00  0.00    +0.000 OA
ATOM     28  H   UNL     1       5.635   2.621  20.345  0.00  0.00    +0.000 HD
ENDBRANCH  25  27
ENDBRANCH  17  25
ENDBRANCH  16  17
ENDBRANCH   6  16
TORSDOF 9
ENDMDL
MODEL 3
REMARK VINA RESULT:      -7.5      1.466      1.858
REMARK  Name = 
REMARK  9 active torsions:
REMARK  status: ('A' for Active; 'I' for Inactive)
REMARK    1  A    between atoms: C_2  and  C_3
REMARK    2  A    between atoms: C_6  and  O_7
REMARK    3  A    between atoms: O_7  and  C_8
REMARK    4  A    between atoms: C_8  and  C_9
REMARK    5  A    between atoms: C_15  and  O_16
REMARK    6  A    between atoms: O_16  and  C_17
REMARK    7  A    between atoms: C_17  and  C_18
REMARK    8  A    between atoms: C_17  and  C_21
REMARK    9  A    between atoms: C_18  and  O_20
REMARK                            x       y       z     vdW  Elec       q    Type
REMARK                         _______ _______ _______ _____ _____    ______ ____
ROOT
ATOM      1  C   UNL     1       2.294   5.380  20.187  0.00  0.00    +0.000 A 
ATOM      2  C   UNL     1       1.436   6.120  21.009  0.00  0.00    +0.000 A 
ATOM      3  C   UNL     1       1.151   7.454  20.715  0.00  0.00    +0.000 A 
ATOM      4  C   UNL     1       1.747   8.059  19.613  0.00  0.00    +0.000 A 
ATOM      5  C   UNL     1       2.569   7.308  18.761  0.00  0.00    +0.000 A 
ATOM      6  C   UNL     1       2.859   5.965  19.039  0.00  0.00    +0.000 A 
ENDROOT
BRANCH   1   8
ATOM      7  N   UNL     1       2.872   2.936  20.841  0.00  0.00    +0.000 NA
ATOM      8  C   UNL     1       2.605   4.033  20.569  0.00  0.00    +0.000 C 
ENDBRANCH   1   8
BRANCH   4   9
ATOM      9  O   UNL     1       1.593   9.377  19.269  0.00  0.00    +0.000 OA
BRANCH   9  10
ATOM     10  C   UNL     1       0.863   9.610  18.058  0.00  0.00    +0.000 C 
BRANCH  10  11
ATOM     11  C   UNL     1      -0.414  10.351  18.315  0.00  0.00    +0.000 A 
ATOM     12  C   UNL     1      -0.626  11.230  19.431  0.00  0.00    +0.000 A 
ATOM     13  C   UNL     1      -1.903  11.745  19.464  0.00  0.00    +0.000 A 
ATOM     14  S   UNL     1      -2.853  11.186  18.159  0.00  0.00    +0.000 S 
ATOM     15  C   UNL     1      -1.559  10.251  17.547  0.00  0.00    +0.000 A 
ENDBRANCH  10  11
ENDBRANCH   9  10
ENDBRANCH   4   9
BRANCH   6  16
ATOM     16  O   UNL     1       3.661   5.153  18.266  0.00  0.00    +0.000 OA
BRANCH  16  17
ATOM     17  C   UNL     1       5.048   5.505  18.110  0.00  0.00    +0.000 C 
BRANCH  17  18
ATOM     18  C   UNL     1       5.551   5.176  16.703  0.00  0.00    +0.000 A 
ATOM     19  C   UNL     1       4.885   4.244  15.883  0.00  0.00    +0.000 A 
ATOM     20  C   UNL     1       5.410   3.878  14.641  0.00  0.00    +0.000 A 
ATOM     21  C   UNL     1       6.602   4.440  14.188  0.00  0.00    +0.000 A 
ATOM     22  C   UNL     1       7.262   5.383  14.969  0.00  0.00    +0.000 A 
ATOM     23  C   UNL     1       6.742   5.752  16.214  0.00  0.00    +0.000 A 
ATOM     24 CL   UNL     1       7.624   6.940  17.108  0.00  0.00    +0.000 Cl
ENDBRANCH  17  18
BRANCH  17  25
ATOM     25  C   UNL     1       5.868   4.731  19.158  0.00  0.00    +0.000 C 
ATOM     26  O   UNL     1       6.688   5.248  19.906  0.00  0.00    +0.000 OA
BRANCH  25  27
ATOM     27  O   UNL     1       5.581   3.405  19.218  0.00  0.00    +0.000 OA
ATOM     28  H   UNL     1       5.955   2.895  18.471  0.00  0.00    +0.000 HD
ENDBRANCH  25  27
ENDBRANCH  17  25
ENDBRANCH  16  17
ENDBRANCH   6  16
TORSDOF 9
ENDMDL
MODEL 4
REMARK VINA RESULT:      -7.3      2.335      3.249
REMARK  Name = 
REMARK  9 active torsions:
REMARK  status: ('A' for Active; 'I' for Inactive)
REMARK    1  A    between atoms: C_2  and  C_3
REMARK    2  A    between atoms: C_6  and  O_7
REMARK    3  A    between atoms: O_7  and  C_8
REMARK    4  A    between atoms: C_8  and  C_9
REMARK    5  A    between atoms: C_15  and  O_16
REMARK    6  A    between atoms: O_16  and  C_17
REMARK    7  A    between atoms: C_17  and  C_18
REMARK    8  A    between atoms: C_17  and  C_21
REMARK    9  A    between atoms: C_18  and  O_20
REMARK                            x       y       z     vdW  Elec       q    Type
REMARK                         _______ _______ _______ _____ _____    ______ ____
ROOT
ATOM      1  C   UNL     1       3.601   3.052  20.098  0.00  0.00    +0.000 A 
ATOM      2  C   UNL     1       2.231   2.906  20.343  0.00  0.00    +0.000 A 
ATOM      3  C   UNL     1       1.408   4.029  20.449  0.00  0.00    +0.000 A 
ATOM      4  C   UNL     1       1.961   5.301  20.338  0.00  0.00    +0.000 A 
ATOM      5  C   UNL     1       3.323   5.448  20.045  0.00  0.00    +0.000 A 
ATOM      6  C   UNL     1       4.162   4.331  19.928  0.00  0.00    +0.000 A 
ENDROOT
BRANCH   1   8
ATOM      7  N   UNL     1       5.052   0.900  20.066  0.00  0.00    +0.000 NA
ATOM      8  C   UNL     1       4.413   1.870  20.061  0.00  0.00    +0.000 C 
ENDBRANCH   1   8
BRANCH   4   9
ATOM      9  O   UNL     1       1.262   6.470  20.492  0.00  0.00    +0.000 OA
BRANCH   9  10
ATOM     10  C   UNL     1       1.992   7.662  20.174  0.00  0.00    +0.000 C 
BRANCH  10  11
ATOM     11  C   UNL     1       1.138   8.886  20.312  0.00  0.00    +0.000 A 
ATOM     12  C   UNL     1       0.517   9.305  21.537  0.00  0.00    +0.000 A 
ATOM     13  C   UNL     1      -0.256  10.434  21.381  0.00  0.00    +0.000 A 
ATOM     14  S   UNL     1      -0.242  11.002  19.770  0.00  0.00    +0.000 S 
ATOM     15  C   UNL     1       0.799   9.738  19.277  0.00  0.00    +0.000 A 
ENDBRANCH  10  11
ENDBRANCH   9  10
ENDBRANCH   4   9
BRANCH   6  16
ATOM     16  O   UNL     1       5.511   4.380  19.651  0.00  0.00    +0.000 OA
BRANCH  16  17
ATOM     17  C   UNL     1       6.031   5.538  18.973  0.00  0.00    +0.000 C 
BRANCH  17  18
ATOM     18  C   UNL     1       6.048   5.334  17.457  0.00  0.00    +0.000 A 
ATOM     19  C   UNL     1       6.933   4.425  16.847  0.00  0.00    +0.000 A 
ATOM     20  C   UNL     1       7.008   4.321  15.455  0.00  0.00    +0.000 A 
ATOM     21  C   UNL     1       6.198   5.113  14.646  0.00  0.00    +0.000 A 
ATOM     22  C   UNL     1       5.296   6.000  15.228  0.00  0.00    +0.000 A 
ATOM     23  C   UNL     1       5.218   6.109  16.620  0.00  0.00    +0.000 A 
ATOM     24 CL   UNL     1       4.061   7.226  17.252  0.00  0.00    +0.000 Cl
ENDBRANCH  17  18
BRANCH  17  25
ATOM     25  C   UNL     1       7.459   5.803  19.486  0.00  0.00    +0.000 C 
ATOM     26  O   UNL     1       7.995   5.167  20.383  0.00  0.00    +0.000 OA
BRANCH  25  27
ATOM     27  O   UNL     1       8.109   6.796  18.826  0.00  0.00    +0.000 OA
ATOM     28  H   UNL     1       9.054   6.598  18.665  0.00  0.00    +0.000 HD
ENDBRANCH  25  27
ENDBRANCH  17  25
ENDBRANCH  16  17
ENDBRANCH   6  16
TORSDOF 9
ENDMDL
MODEL 5
REMARK VINA RESULT:      -7.2      1.877      2.453
REMARK  Name = 
REMARK  9 active torsions:
REMARK  status: ('A' for Active; 'I' for Inactive)
REMARK    1  A    between atoms: C_2  and  C_3
REMARK    2  A    between atoms: C_6  and  O_7
REMARK    3  A    between atoms: O_7  and  C_8
REMARK    4  A    between atoms: C_8  and  C_9
REMARK    5  A    between atoms: C_15  and  O_16
REMARK    6  A    between atoms: O_16  and  C_17
REMARK    7  A    between atoms: C_17  and  C_18
REMARK    8  A    between atoms: C_17  and  C_21
REMARK    9  A    between atoms: C_18  and  O_20
REMARK                            x       y       z     vdW  Elec       q    Type
REMARK                         _______ _______ _______ _____ _____    ______ ____
ROOT
ATOM      1  C   UNL     1       2.209   6.248  20.017  0.00  0.00    +0.000 A 
ATOM      2  C   UNL     1       1.402   7.241  20.583  0.00  0.00    +0.000 A 
ATOM      3  C   UNL     1       1.255   8.478  19.952  0.00  0.00    +0.000 A 
ATOM      4  C   UNL     1       1.938   8.732  18.767  0.00  0.00    +0.000 A 
ATOM      5  C   UNL     1       2.708   7.723  18.173  0.00  0.00    +0.000 A 
ATOM      6  C   UNL     1       2.861   6.474  18.791  0.00  0.00    +0.000 A 
ENDROOT
BRANCH   1   8
ATOM      7  N   UNL     1       2.537   4.044  21.347  0.00  0.00    +0.000 NA
ATOM      8  C   UNL     1       2.378   5.019  20.737  0.00  0.00    +0.000 C 
ENDBRANCH   1   8
BRANCH   4   9
ATOM      9  O   UNL     1       1.921   9.929  18.100  0.00  0.00    +0.000 OA
BRANCH   9  10
ATOM     10  C   UNL     1       0.993  10.896  18.607  0.00  0.00    +0.000 C 
BRANCH  10  11
ATOM     11  C   UNL     1       1.689  12.143  19.063  0.00  0.00    +0.000 A 
ATOM     12  C   UNL     1       2.535  12.948  18.227  0.00  0.00    +0.000 A 
ATOM     13  C   UNL     1       3.093  14.010  18.904  0.00  0.00    +0.000 A 
ATOM     14  S   UNL     1       2.604  14.055  20.540  0.00  0.00    +0.000 S 
ATOM     15  C   UNL     1       1.646  12.652  20.348  0.00  0.00    +0.000 A 
ENDBRANCH  10  11
ENDBRANCH   9  10
ENDBRANCH   4   9
BRANCH   6  16
ATOM     16  O   UNL     1       3.604   5.428  18.286  0.00  0.00    +0.000 OA
BRANCH  16  17
ATOM     17  C   UNL     1       5.028   5.593  18.163  0.00  0.00    +0.000 C 
BRANCH  17  18
ATOM     18  C   UNL     1       5.516   5.200  16.767  0.00  0.00    +0.000 A 
ATOM     19  C   UNL     1       4.819   4.260  15.983  0.00  0.00    +0.000 A 
ATOM     20  C   UNL     1       5.328   3.835  14.753  0.00  0.00    +0.000 A 
ATOM     21  C   UNL     1       6.534   4.343  14.277  0.00  0.00    +0.000 A 
ATOM     22  C   UNL     1       7.225   5.294  15.023  0.00  0.00    +0.000 A 
ATOM     23  C   UNL     1       6.721   5.722  16.255  0.00  0.00    +0.000 A 
ATOM     24 CL   UNL     1       7.642   6.914  17.103  0.00  0.00    +0.000 Cl
ENDBRANCH  17  18
BRANCH  17  25
ATOM     25  C   UNL     1       5.715   4.719  19.228  0.00  0.00    +0.000 C 
ATOM     26  O   UNL     1       6.649   5.093  19.924  0.00  0.00    +0.000 OA
BRANCH  25  27
ATOM     27  O   UNL     1       5.169   3.483  19.367  0.00  0.00    +0.000 OA
ATOM     28  H   UNL     1       4.834   3.113  18.525  0.00  0.00    +0.000 HD
ENDBRANCH  25  27
ENDBRANCH  17  25
ENDBRANCH  16  17
ENDBRANCH   6  16
TORSDOF 9
ENDMDL
MODEL 6
REMARK VINA RESULT:      -7.2      2.007      2.446
REMARK  Name = 
REMARK  9 active torsions:
REMARK  status: ('A' for Active; 'I' for Inactive)
REMARK    1  A    between atoms: C_2  and  C_3
REMARK    2  A    between atoms: C_6  and  O_7
REMARK    3  A    between atoms: O_7  and  C_8
REMARK    4  A    between atoms: C_8  and  C_9
REMARK    5  A    between atoms: C_15  and  O_16
REMARK    6  A    between atoms: O_16  and  C_17
REMARK    7  A    between atoms: C_17  and  C_18
REMARK    8  A    between atoms: C_17  and  C_21
REMARK    9  A    between atoms: C_18  and  O_20
REMARK                            x       y       z     vdW  Elec       q    Type
REMARK                         _______ _______ _______ _____ _____    ______ ____
ROOT
ATOM      1  C   UNL     1       2.138   4.414  19.576  0.00  0.00    +0.000 A 
ATOM      2  C   UNL     1       1.309   4.741  20.655  0.00  0.00    +0.000 A 
ATOM      3  C   UNL     1       1.159   6.070  21.054  0.00  0.00    +0.000 A 
ATOM      4  C   UNL     1       1.861   7.072  20.392  0.00  0.00    +0.000 A 
ATOM      5  C   UNL     1       2.654   6.753  19.280  0.00  0.00    +0.000 A 
ATOM      6  C   UNL     1       2.809   5.424  18.862  0.00  0.00    +0.000 A 
ENDROOT
BRANCH   1   8
ATOM      7  N   UNL     1       2.428   1.914  18.943  0.00  0.00    +0.000 NA
ATOM      8  C   UNL     1       2.308   3.029  19.246  0.00  0.00    +0.000 C 
ENDBRANCH   1   8
BRANCH   4   9
ATOM      9  O   UNL     1       1.842   8.398  20.740  0.00  0.00    +0.000 OA
BRANCH   9  10
ATOM     10  C   UNL     1       0.791   9.169  20.145  0.00  0.00    +0.000 C 
BRANCH  10  11
ATOM     11  C   UNL     1       0.177  10.119  21.130  0.00  0.00    +0.000 A 
ATOM     12  C   UNL     1      -0.501   9.712  22.328  0.00  0.00    +0.000 A 
ATOM     13  C   UNL     1      -1.017  10.778  23.032  0.00  0.00    +0.000 A 
ATOM     14  S   UNL     1      -0.690  12.269  22.266  0.00  0.00    +0.000 S 
ATOM     15  C   UNL     1       0.142  11.494  20.990  0.00  0.00    +0.000 A 
ENDBRANCH  10  11
ENDBRANCH   9  10
ENDBRANCH   4   9
BRANCH   6  16
ATOM     16  O   UNL     1       3.573   5.016  17.790  0.00  0.00    +0.000 OA
BRANCH  16  17
ATOM     17  C   UNL     1       4.952   5.425  17.734  0.00  0.00    +0.000 C 
BRANCH  17  18
ATOM     18  C   UNL     1       5.573   5.105  16.373  0.00  0.00    +0.000 A 
ATOM     19  C   UNL     1       4.964   4.202  15.481  0.00  0.00    +0.000 A 
ATOM     20  C   UNL     1       5.591   3.843  14.285  0.00  0.00    +0.000 A 
ATOM     21  C   UNL     1       6.830   4.382  13.951  0.00  0.00    +0.000 A 
ATOM     22  C   UNL     1       7.438   5.298  14.805  0.00  0.00    +0.000 A 
ATOM     23  C   UNL     1       6.816   5.660  16.004  0.00  0.00    +0.000 A 
ATOM     24 CL   UNL     1       7.639   6.813  16.994  0.00  0.00    +0.000 Cl
ENDBRANCH  17  18
BRANCH  17  25
ATOM     25  C   UNL     1       5.722   4.694  18.850  0.00  0.00    +0.000 C 
ATOM     26  O   UNL     1       6.314   5.260  19.759  0.00  0.00    +0.000 OA
BRANCH  25  27
ATOM     27  O   UNL     1       5.663   3.340  18.769  0.00  0.00    +0.000 OA
ATOM     28  H   UNL     1       6.107   2.889  19.516  0.00  0.00    +0.000 HD
ENDBRANCH  25  27
ENDBRANCH  17  25
ENDBRANCH  16  17
ENDBRANCH   6  16
TORSDOF 9
ENDMDL
MODEL 7
REMARK VINA RESULT:      -7.1      1.688      2.152
REMARK  Name = 
REMARK  9 active torsions:
REMARK  status: ('A' for Active; 'I' for Inactive)
REMARK    1  A    between atoms: C_2  and  C_3
REMARK    2  A    between atoms: C_6  and  O_7
REMARK    3  A    between atoms: O_7  and  C_8
REMARK    4  A    between atoms: C_8  and  C_9
REMARK    5  A    between atoms: C_15  and  O_16
REMARK    6  A    between atoms: O_16  and  C_17
REMARK    7  A    between atoms: C_17  and  C_18
REMARK    8  A    between atoms: C_17  and  C_21
REMARK    9  A    between atoms: C_18  and  O_20
REMARK                            x       y       z     vdW  Elec       q    Type
REMARK                         _______ _______ _______ _____ _____    ______ ____
ROOT
ATOM      1  C   UNL     1       2.018   4.400  19.427  0.00  0.00    +0.000 A 
ATOM      2  C   UNL     1       1.147   4.718  20.476  0.00  0.00    +0.000 A 
ATOM      3  C   UNL     1       1.040   6.034  20.931  0.00  0.00    +0.000 A 
ATOM      4  C   UNL     1       1.824   7.028  20.355  0.00  0.00    +0.000 A 
ATOM      5  C   UNL     1       2.661   6.721  19.273  0.00  0.00    +0.000 A 
ATOM      6  C   UNL     1       2.775   5.406  18.800  0.00  0.00    +0.000 A 
ENDROOT
BRANCH   1   8
ATOM      7  N   UNL     1       2.237   1.899  18.767  0.00  0.00    +0.000 NA
ATOM      8  C   UNL     1       2.139   3.024  19.041  0.00  0.00    +0.000 C 
ENDBRANCH   1   8
BRANCH   4   9
ATOM      9  O   UNL     1       1.850   8.336  20.766  0.00  0.00    +0.000 OA
BRANCH   9  10
ATOM     10  C   UNL     1       0.582   8.877  21.156  0.00  0.00    +0.000 C 
BRANCH  10  11
ATOM     11  C   UNL     1       0.263  10.134  20.405  0.00  0.00    +0.000 A 
ATOM     12  C   UNL     1      -0.523  10.180  19.204  0.00  0.00    +0.000 A 
ATOM     13  C   UNL     1      -0.624  11.452  18.684  0.00  0.00    +0.000 A 
ATOM     14  S   UNL     1       0.215  12.598  19.632  0.00  0.00    +0.000 S 
ATOM     15  C   UNL     1       0.717  11.396  20.739  0.00  0.00    +0.000 A 
ENDBRANCH  10  11
ENDBRANCH   9  10
ENDBRANCH   4   9
BRANCH   6  16
ATOM     16  O   UNL     1       3.576   5.010  17.751  0.00  0.00    +0.000 OA
BRANCH  16  17
ATOM     17  C   UNL     1       4.956   5.419  17.748  0.00  0.00    +0.000 C 
BRANCH  17  18
ATOM     18  C   UNL     1       5.615   5.148  16.394  0.00  0.00    +0.000 A 
ATOM     19  C   UNL     1       5.050   4.250  15.468  0.00  0.00    +0.000 A 
ATOM     20  C   UNL     1       5.711   3.935  14.279  0.00  0.00    +0.000 A 
ATOM     21  C   UNL     1       6.943   4.516  13.984  0.00  0.00    +0.000 A 
ATOM     22  C   UNL     1       7.507   5.427  14.872  0.00  0.00    +0.000 A 
ATOM     23  C   UNL     1       6.849   5.745  16.065  0.00  0.00    +0.000 A 
ATOM     24 CL   UNL     1       7.620   6.896  17.098  0.00  0.00    +0.000 Cl
ENDBRANCH  17  18
BRANCH  17  25
ATOM     25  C   UNL     1       5.696   4.650  18.858  0.00  0.00    +0.000 C 
ATOM     26  O   UNL     1       6.324   5.184  19.762  0.00  0.00    +0.000 OA
BRANCH  25  27
ATOM     27  O   UNL     1       5.565   3.300  18.779  0.00  0.00    +0.000 OA
ATOM     28  H   UNL     1       6.423   2.830  18.768  0.00  0.00    +0.000 HD
ENDBRANCH  25  27
ENDBRANCH  17  25
ENDBRANCH  16  17
ENDBRANCH   6  16
TORSDOF 9
ENDMDL
MODEL 8
REMARK VINA RESULT:      -7.0      3.930      6.710
REMARK  Name = 
REMARK  9 active torsions:
REMARK  status: ('A' for Active; 'I' for Inactive)
REMARK    1  A    between atoms: C_2  and  C_3
REMARK    2  A    between atoms: C_6  and  O_7
REMARK    3  A    between atoms: O_7  and  C_8
REMARK    4  A    between atoms: C_8  and  C_9
REMARK    5  A    between atoms: C_15  and  O_16
REMARK    6  A    between atoms: O_16  and  C_17
REMARK    7  A    between atoms: C_17  and  C_18
REMARK    8  A    between atoms: C_17  and  C_21
REMARK    9  A    between atoms: C_18  and  O_20
REMARK                            x       y       z     vdW  Elec       q    Type
REMARK                         _______ _______ _______ _____ _____    ______ ____
ROOT
ATOM      1  C   UNL     1       5.385   4.751  17.376  0.00  0.00    +0.000 A 
ATOM      2  C   UNL     1       6.748   4.690  17.065  0.00  0.00    +0.000 A 
ATOM      3  C   UNL     1       7.529   5.847  17.076  0.00  0.00    +0.000 A 
ATOM      4  C   UNL     1       6.940   7.072  17.371  0.00  0.00    +0.000 A 
ATOM      5  C   UNL     1       5.586   7.129  17.730  0.00  0.00    +0.000 A 
ATOM      6  C   UNL     1       4.790   5.976  17.730  0.00  0.00    +0.000 A 
ENDROOT
BRANCH   1   8
ATOM      7  N   UNL     1       4.004   2.562  17.178  0.00  0.00    +0.000 NA
ATOM      8  C   UNL     1       4.615   3.545  17.287  0.00  0.00    +0.000 C 
ENDBRANCH   1   8
BRANCH   4   9
ATOM      9  O   UNL     1       7.593   8.277  17.346  0.00  0.00    +0.000 OA
BRANCH   9  10
ATOM     10  C   UNL     1       8.542   8.478  18.401  0.00  0.00    +0.000 C 
BRANCH  10  11
ATOM     11  C   UNL     1       8.861   9.931  18.588  0.00  0.00    +0.000 A 
ATOM     12  C   UNL     1       9.409  10.489  19.792  0.00  0.00    +0.000 A 
ATOM     13  C   UNL     1       9.561  11.856  19.721  0.00  0.00    +0.000 A 
ATOM     14  S   UNL     1       9.055  12.479  18.213  0.00  0.00    +0.000 S 
ATOM     15  C   UNL     1       8.630  10.921  17.651  0.00  0.00    +0.000 A 
ENDBRANCH  10  11
ENDBRANCH   9  10
ENDBRANCH   4   9
BRANCH   6  16
ATOM     16  O   UNL     1       3.452   5.937  18.059  0.00  0.00    +0.000 OA
BRANCH  16  17
ATOM     17  C   UNL     1       3.078   6.129  19.436  0.00  0.00    +0.000 C 
BRANCH  17  18
ATOM     18  C   UNL     1       2.350   4.904  19.991  0.00  0.00    +0.000 A 
ATOM     19  C   UNL     1       2.546   4.471  21.317  0.00  0.00    +0.000 A 
ATOM     20  C   UNL     1       1.953   3.294  21.782  0.00  0.00    +0.000 A 
ATOM     21  C   UNL     1       1.148   2.532  20.940  0.00  0.00    +0.000 A 
ATOM     22  C   UNL     1       0.918   2.956  19.634  0.00  0.00    +0.000 A 
ATOM     23  C   UNL     1       1.510   4.132  19.163  0.00  0.00    +0.000 A 
ATOM     24 CL   UNL     1       1.158   4.585  17.532  0.00  0.00    +0.000 Cl
ENDBRANCH  17  18
BRANCH  17  25
ATOM     25  C   UNL     1       2.170   7.369  19.525  0.00  0.00    +0.000 C 
ATOM     26  O   UNL     1       1.616   7.742  20.551  0.00  0.00    +0.000 OA
BRANCH  25  27
ATOM     27  O   UNL     1       2.055   8.058  18.360  0.00  0.00    +0.000 OA
ATOM     28  H   UNL     1       2.451   8.952  18.400  0.00  0.00    +0.000 HD
ENDBRANCH  25  27
ENDBRANCH  17  25
ENDBRANCH  16  17
ENDBRANCH   6  16
TORSDOF 9
ENDMDL
MODEL 9
REMARK VINA RESULT:      -6.9      0.875      1.095
REMARK  Name = 
REMARK  9 active torsions:
REMARK  status: ('A' for Active; 'I' for Inactive)
REMARK    1  A    between atoms: C_2  and  C_3
REMARK    2  A    between atoms: C_6  and  O_7
REMARK    3  A    between atoms: O_7  and  C_8
REMARK    4  A    between atoms: C_8  and  C_9
REMARK    5  A    between atoms: C_15  and  O_16
REMARK    6  A    between atoms: O_16  and  C_17
REMARK    7  A    between atoms: C_17  and  C_18
REMARK    8  A    between atoms: C_17  and  C_21
REMARK    9  A    between atoms: C_18  and  O_20
REMARK                            x       y       z     vdW  Elec       q    Type
REMARK                         _______ _______ _______ _____ _____    ______ ____
ROOT
ATOM      1  C   UNL     1       2.065   5.764  20.263  0.00  0.00    +0.000 A 
ATOM      2  C   UNL     1       1.523   6.936  20.801  0.00  0.00    +0.000 A 
ATOM      3  C   UNL     1       1.456   8.101  20.034  0.00  0.00    +0.000 A 
ATOM      4  C   UNL     1       1.958   8.101  18.736  0.00  0.00    +0.000 A 
ATOM      5  C   UNL     1       2.457   6.916  18.179  0.00  0.00    +0.000 A 
ATOM      6  C   UNL     1       2.526   5.736  18.934  0.00  0.00    +0.000 A 
ENDROOT
BRANCH   1   8
ATOM      7  N   UNL     1       2.251   3.706  21.834  0.00  0.00    +0.000 NA
ATOM      8  C   UNL     1       2.170   4.613  21.113  0.00  0.00    +0.000 C 
ENDBRANCH   1   8
BRANCH   4   9
ATOM      9  O   UNL     1       2.005   9.201  17.919  0.00  0.00    +0.000 OA
BRANCH   9  10
ATOM     10  C   UNL     1       2.280  10.441  18.582  0.00  0.00    +0.000 C 
BRANCH  10  11
ATOM     11  C   UNL     1       1.093  11.357  18.556  0.00  0.00    +0.000 A 
ATOM     12  C   UNL     1      -0.266  10.913  18.425  0.00  0.00    +0.000 A 
ATOM     13  C   UNL     1      -1.162  11.958  18.376  0.00  0.00    +0.000 A 
ATOM     14  S   UNL     1      -0.384  13.474  18.492  0.00  0.00    +0.000 S 
ATOM     15  C   UNL     1       1.154  12.737  18.606  0.00  0.00    +0.000 A 
ENDBRANCH  10  11
ENDBRANCH   9  10
ENDBRANCH   4   9
BRANCH   6  16
ATOM     16  O   UNL     1       3.008   4.530  18.474  0.00  0.00    +0.000 OA
BRANCH  16  17
ATOM     17  C   UNL     1       4.396   4.218  18.691  0.00  0.00    +0.000 C 
BRANCH  17  18
ATOM     18  C   UNL     1       5.228   4.474  17.433  0.00  0.00    +0.000 A 
ATOM     19  C   UNL     1       4.737   4.160  16.150  0.00  0.00    +0.000 A 
ATOM     20  C   UNL     1       5.543   4.305  15.019  0.00  0.00    +0.000 A 
ATOM     21  C   UNL     1       6.849   4.774  15.141  0.00  0.00    +0.000 A 
ATOM     22  C   UNL     1       7.345   5.117  16.395  0.00  0.00    +0.000 A 
ATOM     23  C   UNL     1       6.543   4.972  17.532  0.00  0.00    +0.000 A 
ATOM     24 CL   UNL     1       7.241   5.434  19.044  0.00  0.00    +0.000 Cl
ENDBRANCH  17  18
BRANCH  17  25
ATOM     25  C   UNL     1       4.504   2.738  19.103  0.00  0.00    +0.000 C 
ATOM     26  O   UNL     1       5.000   2.353  20.153  0.00  0.00    +0.000 OA
BRANCH  25  27
ATOM     27  O   UNL     1       3.962   1.872  18.208  0.00  0.00    +0.000 OA
ATOM     28  H   UNL     1       3.387   1.198  18.623  0.00  0.00    +0.000 HD
ENDBRANCH  25  27
ENDBRANCH  17  25
ENDBRANCH  16  17
ENDBRANCH   6  16
TORSDOF 9
ENDMDL
