MODEL 1
REMARK VINA RESULT:      -8.2      0.000      0.000
REMARK  Name = 
REMARK  5 active torsions:
REMARK  status: ('A' for Active; 'I' for Inactive)
REMARK    1  A    between atoms: C_7  and  O_8
REMARK    2  A    between atoms: O_8  and  C_9
REMARK    3  A    between atoms: C_9  and  C_10
REMARK    4  A    between atoms: C_10  and  C_11
REMARK    5  A    between atoms: C_11  and  N_12
REMARK                            x       y       z     vdW  Elec       q    Type
REMARK                         _______ _______ _______ _____ _____    ______ ____
ROOT
ATOM      1  N   UNL     1       2.781   6.171  18.695  0.00  0.00    +0.000 N 
ATOM      2  C   UNL     1       2.234   5.008  19.182  0.00  0.00    +0.000 A 
ATOM      3  C   UNL     1       2.803   3.952  18.498  0.00  0.00    +0.000 A 
ATOM      4  C   UNL     1       3.709   4.474  17.548  0.00  0.00    +0.000 A 
ATOM      5  C   UNL     1       4.556   3.886  16.588  0.00  0.00    +0.000 A 
ATOM      6  C   UNL     1       5.359   4.698  15.784  0.00  0.00    +0.000 A 
ATOM      7  C   UNL     1       5.317   6.081  15.920  0.00  0.00    +0.000 A 
ATOM      8  C   UNL     1       4.469   6.689  16.853  0.00  0.00    +0.000 A 
ATOM      9  C   UNL     1       3.674   5.868  17.673  0.00  0.00    +0.000 A 
ATOM     10  C   UNL     1       2.417   2.544  18.794  0.00  0.00    +0.000 C 
ATOM     11  C   UNL     1       1.677   2.472  20.148  0.00  0.00    +0.000 C 
ATOM     12  N   UNL     1       0.647   3.520  20.292  0.00  0.00    +0.000 NA
ATOM     13  C   UNL     1       1.235   4.873  20.283  0.00  0.00    +0.000 C 
ATOM     14  H   UNL     1       0.149   3.387  21.168  0.00  0.00    +0.000 HD
ENDROOT
BRANCH   1  15
ATOM     15  C   UNL     1       2.454   7.512  19.156  0.00  0.00    +0.000 C 
BRANCH  15  16
ATOM     16  C   UNL     1       1.884   8.429  18.070  0.00  0.00    +0.000 C 
BRANCH  16  17
ATOM     17  C   UNL     1       1.420   9.773  18.631  0.00  0.00    +0.000 C 
BRANCH  17  18
ATOM     18  O   UNL     1       0.085   9.646  19.107  0.00  0.00    +0.000 OA
BRANCH  18  25
ATOM     19 CL   UNL     1      -0.730  12.773  19.965  0.00  0.00    +0.000 Cl
ATOM     20  C   UNL     1      -0.569  11.318  20.884  0.00  0.00    +0.000 A 
ATOM     21  C   UNL     1      -0.843  11.477  22.255  0.00  0.00    +0.000 A 
ATOM     22  C   UNL     1      -0.778  10.399  23.131  0.00  0.00    +0.000 A 
ATOM     23  C   UNL     1      -0.431   9.145  22.647  0.00  0.00    +0.000 A 
ATOM     24  C   UNL     1      -0.155   8.978  21.286  0.00  0.00    +0.000 A 
ATOM     25  C   UNL     1      -0.217  10.053  20.382  0.00  0.00    +0.000 A 
ENDBRANCH  18  25
ENDBRANCH  17  18
ENDBRANCH  16  17
ENDBRANCH  15  16
ENDBRANCH   1  15
TORSDOF 5
ENDMDL
MODEL 2
REMARK VINA RESULT:      -8.2      1.084      3.321
REMARK  Name = 
REMARK  5 active torsions:
REMARK  status: ('A' for Active; 'I' for Inactive)
REMARK    1  A    between atoms: C_7  and  O_8
REMARK    2  A    between atoms: O_8  and  C_9
REMARK    3  A    between atoms: C_9  and  C_10
REMARK    4  A    between atoms: C_10  and  C_11
REMARK    5  A    between atoms: C_11  and  N_12
REMARK                            x       y       z     vdW  Elec       q    Type
REMARK                         _______ _______ _______ _____ _____    ______ ____
ROOT
ATOM      1  N   UNL     1       3.096   6.047  18.218  0.00  0.00    +0.000 N 
ATOM      2  C   UNL     1       4.112   5.873  17.308  0.00  0.00    +0.000 A 
ATOM      3  C   UNL     1       4.139   4.539  16.952  0.00  0.00    +0.000 A 
ATOM      4  C   UNL     1       3.130   3.865  17.676  0.00  0.00    +0.000 A 
ATOM      5  C   UNL     1       2.701   2.524  17.725  0.00  0.00    +0.000 A 
ATOM      6  C   UNL     1       1.639   2.167  18.560  0.00  0.00    +0.000 A 
ATOM      7  C   UNL     1       1.013   3.126  19.347  0.00  0.00    +0.000 A 
ATOM      8  C   UNL     1       1.434   4.461  19.330  0.00  0.00    +0.000 A 
ATOM      9  C   UNL     1       2.493   4.821  18.477  0.00  0.00    +0.000 A 
ATOM     10  C   UNL     1       5.137   4.022  15.975  0.00  0.00    +0.000 C 
ATOM     11  C   UNL     1       5.771   5.196  15.196  0.00  0.00    +0.000 C 
ATOM     12  N   UNL     1       6.172   6.313  16.075  0.00  0.00    +0.000 NA
ATOM     13  C   UNL     1       5.012   6.924  16.750  0.00  0.00    +0.000 C 
ATOM     14  H   UNL     1       6.640   7.027  15.522  0.00  0.00    +0.000 HD
ENDROOT
BRANCH   1  15
ATOM     15  C   UNL     1       2.728   7.311  18.837  0.00  0.00    +0.000 C 
BRANCH  15  16
ATOM     16  C   UNL     1       1.874   8.222  17.950  0.00  0.00    +0.000 C 
BRANCH  16  17
ATOM     17  C   UNL     1       1.593   9.573  18.605  0.00  0.00    +0.000 C 
BRANCH  17  18
ATOM     18  O   UNL     1       0.217   9.644  18.962  0.00  0.00    +0.000 OA
BRANCH  18  25
ATOM     19 CL   UNL     1      -1.185  12.575  19.750  0.00  0.00    +0.000 Cl
ATOM     20  C   UNL     1      -0.716  11.213  20.707  0.00  0.00    +0.000 A 
ATOM     21  C   UNL     1      -0.986  11.362  22.079  0.00  0.00    +0.000 A 
ATOM     22  C   UNL     1      -0.687  10.350  22.985  0.00  0.00    +0.000 A 
ATOM     23  C   UNL     1      -0.109   9.174  22.528  0.00  0.00    +0.000 A 
ATOM     24  C   UNL     1       0.164   9.017  21.165  0.00  0.00    +0.000 A 
ATOM     25  C   UNL     1      -0.131  10.027  20.232  0.00  0.00    +0.000 A 
ENDBRANCH  18  25
ENDBRANCH  17  18
ENDBRANCH  16  17
ENDBRANCH  15  16
ENDBRANCH   1  15
TORSDOF 5
ENDMDL
MODEL 3
REMARK VINA RESULT:      -8.1      1.637      3.672
REMARK  Name = 
REMARK  5 active torsions:
REMARK  status: ('A' for Active; 'I' for Inactive)
REMARK    1  A    between atoms: C_7  and  O_8
REMARK    2  A    between atoms: O_8  and  C_9
REMARK    3  A    between atoms: C_9  and  C_10
REMARK    4  A    between atoms: C_10  and  C_11
REMARK    5  A    between atoms: C_11  and  N_12
REMARK                            x       y       z     vdW  Elec       q    Type
REMARK                         _______ _______ _______ _____ _____    ______ ____
ROOT
ATOM      1  N   UNL     1       3.277   6.038  18.062  0.00  0.00    +0.000 N 
ATOM      2  C   UNL     1       4.307   5.808  17.181  0.00  0.00    +0.000 A 
ATOM      3  C   UNL     1       4.308   4.463  16.871  0.00  0.00    +0.000 A 
ATOM      4  C   UNL     1       3.268   3.839  17.596  0.00  0.00    +0.000 A 
ATOM      5  C   UNL     1       2.805   2.511  17.682  0.00  0.00    +0.000 A 
ATOM      6  C   UNL     1       1.718   2.210  18.505  0.00  0.00    +0.000 A 
ATOM      7  C   UNL     1       1.100   3.210  19.246  0.00  0.00    +0.000 A 
ATOM      8  C   UNL     1       1.554   4.533  19.193  0.00  0.00    +0.000 A 
ATOM      9  C   UNL     1       2.638   4.837  18.350  0.00  0.00    +0.000 A 
ATOM     10  C   UNL     1       5.312   3.888  15.933  0.00  0.00    +0.000 C 
ATOM     11  C   UNL     1       5.991   5.019  15.128  0.00  0.00    +0.000 C 
ATOM     12  N   UNL     1       6.402   6.155  15.977  0.00  0.00    +0.000 NA
ATOM     13  C   UNL     1       5.244   6.818  16.606  0.00  0.00    +0.000 C 
ATOM     14  H   UNL     1       6.899   6.838  15.410  0.00  0.00    +0.000 HD
ENDROOT
BRANCH   1  15
ATOM     15  C   UNL     1       2.928   7.332  18.630  0.00  0.00    +0.000 C 
BRANCH  15  16
ATOM     16  C   UNL     1       1.960   8.154  17.776  0.00  0.00    +0.000 C 
BRANCH  16  17
ATOM     17  C   UNL     1       1.722   9.551  18.349  0.00  0.00    +0.000 C 
BRANCH  17  18
ATOM     18  O   UNL     1       0.350   9.685  18.702  0.00  0.00    +0.000 OA
BRANCH  18  25
ATOM     19 CL   UNL     1       1.035   7.763  21.350  0.00  0.00    +0.000 Cl
ATOM     20  C   UNL     1       0.232   9.286  21.193  0.00  0.00    +0.000 A 
ATOM     21  C   UNL     1      -0.209   9.825  22.415  0.00  0.00    +0.000 A 
ATOM     22  C   UNL     1      -0.858  11.054  22.466  0.00  0.00    +0.000 A 
ATOM     23  C   UNL     1      -1.078  11.759  21.290  0.00  0.00    +0.000 A 
ATOM     24  C   UNL     1      -0.645  11.230  20.071  0.00  0.00    +0.000 A 
ATOM     25  C   UNL     1       0.014   9.990  19.996  0.00  0.00    +0.000 A 
ENDBRANCH  18  25
ENDBRANCH  17  18
ENDBRANCH  16  17
ENDBRANCH  15  16
ENDBRANCH   1  15
TORSDOF 5
ENDMDL
MODEL 4
REMARK VINA RESULT:      -8.0      1.730      3.756
REMARK  Name = 
REMARK  5 active torsions:
REMARK  status: ('A' for Active; 'I' for Inactive)
REMARK    1  A    between atoms: C_7  and  O_8
REMARK    2  A    between atoms: O_8  and  C_9
REMARK    3  A    between atoms: C_9  and  C_10
REMARK    4  A    between atoms: C_10  and  C_11
REMARK    5  A    between atoms: C_11  and  N_12
REMARK                            x       y       z     vdW  Elec       q    Type
REMARK                         _______ _______ _______ _____ _____    ______ ____
ROOT
ATOM      1  N   UNL     1       3.251   5.984  18.065  0.00  0.00    +0.000 N 
ATOM      2  C   UNL     1       4.310   5.775  17.214  0.00  0.00    +0.000 A 
ATOM      3  C   UNL     1       4.348   4.430  16.905  0.00  0.00    +0.000 A 
ATOM      4  C   UNL     1       3.300   3.786  17.600  0.00  0.00    +0.000 A 
ATOM      5  C   UNL     1       2.862   2.449  17.673  0.00  0.00    +0.000 A 
ATOM      6  C   UNL     1       1.757   2.125  18.465  0.00  0.00    +0.000 A 
ATOM      7  C   UNL     1       1.098   3.113  19.186  0.00  0.00    +0.000 A 
ATOM      8  C   UNL     1       1.527   4.445  19.145  0.00  0.00    +0.000 A 
ATOM      9  C   UNL     1       2.629   4.771  18.334  0.00  0.00    +0.000 A 
ATOM     10  C   UNL     1       5.391   3.876  15.998  0.00  0.00    +0.000 C 
ATOM     11  C   UNL     1       6.070   5.020  15.212  0.00  0.00    +0.000 C 
ATOM     12  N   UNL     1       6.433   6.164  16.072  0.00  0.00    +0.000 NA
ATOM     13  C   UNL     1       5.244   6.803  16.667  0.00  0.00    +0.000 C 
ATOM     14  H   UNL     1       6.932   6.857  15.519  0.00  0.00    +0.000 HD
ENDROOT
BRANCH   1  15
ATOM     15  C   UNL     1       2.860   7.271  18.621  0.00  0.00    +0.000 C 
BRANCH  15  16
ATOM     16  C   UNL     1       2.036   8.144  17.670  0.00  0.00    +0.000 C 
BRANCH  16  17
ATOM     17  C   UNL     1       1.735   9.521  18.260  0.00  0.00    +0.000 C 
BRANCH  17  18
ATOM     18  O   UNL     1       0.762   9.388  19.290  0.00  0.00    +0.000 OA
BRANCH  18  25
ATOM     19 CL   UNL     1      -1.715   9.822  17.087  0.00  0.00    +0.000 Cl
ATOM     20  C   UNL     1      -1.318  10.624  18.566  0.00  0.00    +0.000 A 
ATOM     21  C   UNL     1      -2.216  11.649  18.916  0.00  0.00    +0.000 A 
ATOM     22  C   UNL     1      -2.050  12.381  20.087  0.00  0.00    +0.000 A 
ATOM     23  C   UNL     1      -0.979  12.098  20.923  0.00  0.00    +0.000 A 
ATOM     24  C   UNL     1      -0.081  11.081  20.583  0.00  0.00    +0.000 A 
ATOM     25  C   UNL     1      -0.230  10.328  19.404  0.00  0.00    +0.000 A 
ENDBRANCH  18  25
ENDBRANCH  17  18
ENDBRANCH  16  17
ENDBRANCH  15  16
ENDBRANCH   1  15
TORSDOF 5
ENDMDL
MODEL 5
REMARK VINA RESULT:      -8.0      1.696      3.832
REMARK  Name = 
REMARK  5 active torsions:
REMARK  status: ('A' for Active; 'I' for Inactive)
REMARK    1  A    between atoms: C_7  and  O_8
REMARK    2  A    between atoms: O_8  and  C_9
REMARK    3  A    between atoms: C_9  and  C_10
REMARK    4  A    between atoms: C_10  and  C_11
REMARK    5  A    between atoms: C_11  and  N_12
REMARK                            x       y       z     vdW  Elec       q    Type
REMARK                         _______ _______ _______ _____ _____    ______ ____
ROOT
ATOM      1  N   UNL     1       3.154   5.957  18.121  0.00  0.00    +0.000 N 
ATOM      2  C   UNL     1       4.213   5.759  17.268  0.00  0.00    +0.000 A 
ATOM      3  C   UNL     1       4.273   4.412  16.970  0.00  0.00    +0.000 A 
ATOM      4  C   UNL     1       3.240   3.755  17.676  0.00  0.00    +0.000 A 
ATOM      5  C   UNL     1       2.825   2.411  17.763  0.00  0.00    +0.000 A 
ATOM      6  C   UNL     1       1.730   2.075  18.562  0.00  0.00    +0.000 A 
ATOM      7  C   UNL     1       1.057   3.058  19.278  0.00  0.00    +0.000 A 
ATOM      8  C   UNL     1       1.462   4.397  19.223  0.00  0.00    +0.000 A 
ATOM      9  C   UNL     1       2.555   4.734  18.405  0.00  0.00    +0.000 A 
ATOM     10  C   UNL     1       5.321   3.868  16.063  0.00  0.00    +0.000 C 
ATOM     11  C   UNL     1       5.976   5.017  15.264  0.00  0.00    +0.000 C 
ATOM     12  N   UNL     1       6.323   6.175  16.111  0.00  0.00    +0.000 NA
ATOM     13  C   UNL     1       5.126   6.798  16.707  0.00  0.00    +0.000 C 
ATOM     14  H   UNL     1       6.807   6.872  15.551  0.00  0.00    +0.000 HD
ENDROOT
BRANCH   1  15
ATOM     15  C   UNL     1       2.743   7.241  18.668  0.00  0.00    +0.000 C 
BRANCH  15  16
ATOM     16  C   UNL     1       1.900   8.091  17.713  0.00  0.00    +0.000 C 
BRANCH  16  17
ATOM     17  C   UNL     1       1.770   9.538  18.185  0.00  0.00    +0.000 C 
BRANCH  17  18
ATOM     18  O   UNL     1       0.854   9.596  19.273  0.00  0.00    +0.000 OA
BRANCH  18  25
ATOM     19 CL   UNL     1      -0.227  11.770  21.571  0.00  0.00    +0.000 Cl
ATOM     20  C   UNL     1      -0.854  11.296  20.031  0.00  0.00    +0.000 A 
ATOM     21  C   UNL     1      -2.041  11.959  19.670  0.00  0.00    +0.000 A 
ATOM     22  C   UNL     1      -2.665  11.706  18.454  0.00  0.00    +0.000 A 
ATOM     23  C   UNL     1      -2.110  10.779  17.581  0.00  0.00    +0.000 A 
ATOM     24  C   UNL     1      -0.931  10.114  17.932  0.00  0.00    +0.000 A 
ATOM     25  C   UNL     1      -0.282  10.356  19.156  0.00  0.00    +0.000 A 
ENDBRANCH  18  25
ENDBRANCH  17  18
ENDBRANCH  16  17
ENDBRANCH  15  16
ENDBRANCH   1  15
TORSDOF 5
ENDMDL
MODEL 6
REMARK VINA RESULT:      -7.9      4.102      8.013
REMARK  Name = 
REMARK  5 active torsions:
REMARK  status: ('A' for Active; 'I' for Inactive)
REMARK    1  A    between atoms: C_7  and  O_8
REMARK    2  A    between atoms: O_8  and  C_9
REMARK    3  A    between atoms: C_9  and  C_10
REMARK    4  A    between atoms: C_10  and  C_11
REMARK    5  A    between atoms: C_11  and  N_12
REMARK                            x       y       z     vdW  Elec       q    Type
REMARK                         _______ _______ _______ _____ _____    ______ ____
ROOT
ATOM      1  N   UNL     1       3.877   5.143  18.501  0.00  0.00    +0.000 N 
ATOM      2  C   UNL     1       3.590   4.264  19.518  0.00  0.00    +0.000 A 
ATOM      3  C   UNL     1       2.681   4.871  20.361  0.00  0.00    +0.000 A 
ATOM      4  C   UNL     1       2.415   6.168  19.867  0.00  0.00    +0.000 A 
ATOM      5  C   UNL     1       1.590   7.223  20.303  0.00  0.00    +0.000 A 
ATOM      6  C   UNL     1       1.539   8.410  19.569  0.00  0.00    +0.000 A 
ATOM      7  C   UNL     1       2.304   8.557  18.418  0.00  0.00    +0.000 A 
ATOM      8  C   UNL     1       3.146   7.530  17.975  0.00  0.00    +0.000 A 
ATOM      9  C   UNL     1       3.183   6.330  18.707  0.00  0.00    +0.000 A 
ATOM     10  C   UNL     1       2.166   4.173  21.572  0.00  0.00    +0.000 C 
ATOM     11  C   UNL     1       2.465   2.661  21.478  0.00  0.00    +0.000 C 
ATOM     12  N   UNL     1       3.850   2.379  21.049  0.00  0.00    +0.000 NA
ATOM     13  C   UNL     1       4.114   2.876  19.685  0.00  0.00    +0.000 C 
ATOM     14  H   UNL     1       4.012   1.375  21.066  0.00  0.00    +0.000 HD
ENDROOT
BRANCH   1  15
ATOM     15  C   UNL     1       4.789   4.883  17.397  0.00  0.00    +0.000 C 
BRANCH  15  16
ATOM     16  C   UNL     1       6.251   5.228  17.692  0.00  0.00    +0.000 C 
BRANCH  16  17
ATOM     17  C   UNL     1       7.205   4.659  16.643  0.00  0.00    +0.000 C 
BRANCH  17  18
ATOM     18  O   UNL     1       7.184   5.493  15.490  0.00  0.00    +0.000 OA
BRANCH  18  25
ATOM     19 CL   UNL     1       9.101   6.069  12.812  0.00  0.00    +0.000 Cl
ATOM     20  C   UNL     1       7.705   5.079  13.053  0.00  0.00    +0.000 A 
ATOM     21  C   UNL     1       7.303   4.372  11.905  0.00  0.00    +0.000 A 
ATOM     22  C   UNL     1       6.207   3.516  11.935  0.00  0.00    +0.000 A 
ATOM     23  C   UNL     1       5.494   3.360  13.116  0.00  0.00    +0.000 A 
ATOM     24  C   UNL     1       5.886   4.059  14.261  0.00  0.00    +0.000 A 
ATOM     25  C   UNL     1       6.991   4.930  14.255  0.00  0.00    +0.000 A 
ENDBRANCH  18  25
ENDBRANCH  17  18
ENDBRANCH  16  17
ENDBRANCH  15  16
ENDBRANCH   1  15
TORSDOF 5
ENDMDL
MODEL 7
REMARK VINA RESULT:      -7.9      1.349      1.770
REMARK  Name = 
REMARK  5 active torsions:
REMARK  status: ('A' for Active; 'I' for Inactive)
REMARK    1  A    between atoms: C_7  and  O_8
REMARK    2  A    between atoms: O_8  and  C_9
REMARK    3  A    between atoms: C_9  and  C_10
REMARK    4  A    between atoms: C_10  and  C_11
REMARK    5  A    between atoms: C_11  and  N_12
REMARK                            x       y       z     vdW  Elec       q    Type
REMARK                         _______ _______ _______ _____ _____    ______ ____
ROOT
ATOM      1  N   UNL     1       2.801   6.095  18.637  0.00  0.00    +0.000 N 
ATOM      2  C   UNL     1       2.267   4.959  19.196  0.00  0.00    +0.000 A 
ATOM      3  C   UNL     1       2.863   3.869  18.593  0.00  0.00    +0.000 A 
ATOM      4  C   UNL     1       3.772   4.341  17.620  0.00  0.00    +0.000 A 
ATOM      5  C   UNL     1       4.641   3.704  16.712  0.00  0.00    +0.000 A 
ATOM      6  C   UNL     1       5.441   4.474  15.864  0.00  0.00    +0.000 A 
ATOM      7  C   UNL     1       5.374   5.861  15.905  0.00  0.00    +0.000 A 
ATOM      8  C   UNL     1       4.504   6.517  16.784  0.00  0.00    +0.000 A 
ATOM      9  C   UNL     1       3.713   5.740  17.649  0.00  0.00    +0.000 A 
ATOM     10  C   UNL     1       2.497   2.478  18.979  0.00  0.00    +0.000 C 
ATOM     11  C   UNL     1       1.741   2.485  20.326  0.00  0.00    +0.000 C 
ATOM     12  N   UNL     1       0.692   3.523  20.386  0.00  0.00    +0.000 NA
ATOM     13  C   UNL     1       1.257   4.882  20.292  0.00  0.00    +0.000 C 
ATOM     14  H   UNL     1       0.185   3.441  21.264  0.00  0.00    +0.000 HD
ENDROOT
BRANCH   1  15
ATOM     15  C   UNL     1       2.446   7.459  19.001  0.00  0.00    +0.000 C 
BRANCH  15  16
ATOM     16  C   UNL     1       2.116   8.363  17.811  0.00  0.00    +0.000 C 
BRANCH  16  17
ATOM     17  C   UNL     1       1.567   9.721  18.247  0.00  0.00    +0.000 C 
BRANCH  17  18
ATOM     18  O   UNL     1       0.591   9.526  19.265  0.00  0.00    +0.000 OA
BRANCH  18  25
ATOM     19 CL   UNL     1      -1.838   9.899  16.999  0.00  0.00    +0.000 Cl
ATOM     20  C   UNL     1      -1.529  10.675  18.512  0.00  0.00    +0.000 A 
ATOM     21  C   UNL     1      -2.488  11.641  18.864  0.00  0.00    +0.000 A 
ATOM     22  C   UNL     1      -2.397  12.345  20.060  0.00  0.00    +0.000 A 
ATOM     23  C   UNL     1      -1.337  12.092  20.921  0.00  0.00    +0.000 A 
ATOM     24  C   UNL     1      -0.378  11.133  20.580  0.00  0.00    +0.000 A 
ATOM     25  C   UNL     1      -0.452  10.410  19.376  0.00  0.00    +0.000 A 
ENDBRANCH  18  25
ENDBRANCH  17  18
ENDBRANCH  16  17
ENDBRANCH  15  16
ENDBRANCH   1  15
TORSDOF 5
ENDMDL
MODEL 8
REMARK VINA RESULT:      -7.9      1.119      1.527
REMARK  Name = 
REMARK  5 active torsions:
REMARK  status: ('A' for Active; 'I' for Inactive)
REMARK    1  A    between atoms: C_7  and  O_8
REMARK    2  A    between atoms: O_8  and  C_9
REMARK    3  A    between atoms: C_9  and  C_10
REMARK    4  A    between atoms: C_10  and  C_11
REMARK    5  A    between atoms: C_11  and  N_12
REMARK                            x       y       z     vdW  Elec       q    Type
REMARK                         _______ _______ _______ _____ _____    ______ ____
ROOT
ATOM      1  N   UNL     1       2.778   6.180  18.667  0.00  0.00    +0.000 N 
ATOM      2  C   UNL     1       2.242   5.026  19.185  0.00  0.00    +0.000 A 
ATOM      3  C   UNL     1       2.830   3.957  18.540  0.00  0.00    +0.000 A 
ATOM      4  C   UNL     1       3.737   4.461  17.581  0.00  0.00    +0.000 A 
ATOM      5  C   UNL     1       4.599   3.855  16.646  0.00  0.00    +0.000 A 
ATOM      6  C   UNL     1       5.399   4.652  15.824  0.00  0.00    +0.000 A 
ATOM      7  C   UNL     1       5.338   6.037  15.917  0.00  0.00    +0.000 A 
ATOM      8  C   UNL     1       4.475   6.663  16.823  0.00  0.00    +0.000 A 
ATOM      9  C   UNL     1       3.684   5.858  17.662  0.00  0.00    +0.000 A 
ATOM     10  C   UNL     1       2.460   2.554  18.876  0.00  0.00    +0.000 C 
ATOM     11  C   UNL     1       1.709   2.514  20.226  0.00  0.00    +0.000 C 
ATOM     12  N   UNL     1       0.665   3.553  20.328  0.00  0.00    +0.000 NA
ATOM     13  C   UNL     1       1.236   4.913  20.282  0.00  0.00    +0.000 C 
ATOM     14  H   UNL     1       0.162   3.441  21.205  0.00  0.00    +0.000 HD
ENDROOT
BRANCH   1  15
ATOM     15  C   UNL     1       2.431   7.531  19.083  0.00  0.00    +0.000 C 
BRANCH  15  16
ATOM     16  C   UNL     1       1.754   8.371  17.996  0.00  0.00    +0.000 C 
BRANCH  16  17
ATOM     17  C   UNL     1       1.526   9.816  18.436  0.00  0.00    +0.000 C 
BRANCH  17  18
ATOM     18  O   UNL     1       0.164   9.980  18.816  0.00  0.00    +0.000 OA
BRANCH  18  25
ATOM     19 CL   UNL     1      -0.131   8.175  21.614  0.00  0.00    +0.000 Cl
ATOM     20  C   UNL     1      -0.290   9.867  21.298  0.00  0.00    +0.000 A 
ATOM     21  C   UNL     1      -0.590  10.633  22.439  0.00  0.00    +0.000 A 
ATOM     22  C   UNL     1      -0.733  12.014  22.360  0.00  0.00    +0.000 A 
ATOM     23  C   UNL     1      -0.580  12.648  21.134  0.00  0.00    +0.000 A 
ATOM     24  C   UNL     1      -0.282  11.894  19.995  0.00  0.00    +0.000 A 
ATOM     25  C   UNL     1      -0.133  10.497  20.052  0.00  0.00    +0.000 A 
ENDBRANCH  18  25
ENDBRANCH  17  18
ENDBRANCH  16  17
ENDBRANCH  15  16
ENDBRANCH   1  15
TORSDOF 5
ENDMDL
MODEL 9
REMARK VINA RESULT:      -7.8      1.706      2.225
REMARK  Name = 
REMARK  5 active torsions:
REMARK  status: ('A' for Active; 'I' for Inactive)
REMARK    1  A    between atoms: C_7  and  O_8
REMARK    2  A    between atoms: O_8  and  C_9
REMARK    3  A    between atoms: C_9  and  C_10
REMARK    4  A    between atoms: C_10  and  C_11
REMARK    5  A    between atoms: C_11  and  N_12
REMARK                            x       y       z     vdW  Elec       q    Type
REMARK                         _______ _______ _______ _____ _____    ______ ____
ROOT
ATOM      1  N   UNL     1       2.760   6.021  18.807  0.00  0.00    +0.000 N 
ATOM      2  C   UNL     1       2.179   4.826  19.155  0.00  0.00    +0.000 A 
ATOM      3  C   UNL     1       2.735   3.838  18.366  0.00  0.00    +0.000 A 
ATOM      4  C   UNL     1       3.667   4.440  17.492  0.00  0.00    +0.000 A 
ATOM      5  C   UNL     1       4.516   3.941  16.484  0.00  0.00    +0.000 A 
ATOM      6  C   UNL     1       5.350   4.817  15.786  0.00  0.00    +0.000 A 
ATOM      7  C   UNL     1       5.338   6.176  16.074  0.00  0.00    +0.000 A 
ATOM      8  C   UNL     1       4.489   6.698  17.057  0.00  0.00    +0.000 A 
ATOM      9  C   UNL     1       3.663   5.812  17.770  0.00  0.00    +0.000 A 
ATOM     10  C   UNL     1       2.311   2.416  18.499  0.00  0.00    +0.000 C 
ATOM     11  C   UNL     1       1.548   2.213  19.827  0.00  0.00    +0.000 C 
ATOM     12  N   UNL     1       0.541   3.264  20.071  0.00  0.00    +0.000 NA
ATOM     13  C   UNL     1       1.160   4.595  20.221  0.00  0.00    +0.000 C 
ATOM     14  H   UNL     1       0.026   3.047  20.921  0.00  0.00    +0.000 HD
ENDROOT
BRANCH   1  15
ATOM     15  C   UNL     1       2.457   7.311  19.409  0.00  0.00    +0.000 C 
BRANCH  15  16
ATOM     16  C   UNL     1       2.024   8.387  18.409  0.00  0.00    +0.000 C 
BRANCH  16  17
ATOM     17  C   UNL     1       0.947   9.309  18.979  0.00  0.00    +0.000 C 
BRANCH  17  18
ATOM     18  O   UNL     1       0.266   9.951  17.906  0.00  0.00    +0.000 OA
BRANCH  18  25
ATOM     19 CL   UNL     1      -0.357  12.376  20.121  0.00  0.00    +0.000 Cl
ATOM     20  C   UNL     1      -1.374  11.517  19.018  0.00  0.00    +0.000 A 
ATOM     21  C   UNL     1      -2.721  11.924  19.051  0.00  0.00    +0.000 A 
ATOM     22  C   UNL     1      -3.667  11.345  18.212  0.00  0.00    +0.000 A 
ATOM     23  C   UNL     1      -3.278  10.347  17.330  0.00  0.00    +0.000 A 
ATOM     24  C   UNL     1      -1.942   9.936  17.291  0.00  0.00    +0.000 A 
ATOM     25  C   UNL     1      -0.968  10.507  18.130  0.00  0.00    +0.000 A 
ENDBRANCH  18  25
ENDBRANCH  17  18
ENDBRANCH  16  17
ENDBRANCH  15  16
ENDBRANCH   1  15
TORSDOF 5
ENDMDL
