MODEL 1
REMARK VINA RESULT:      -8.3      0.000      0.000
REMARK  Name = 
REMARK  3 active torsions:
REMARK  status: ('A' for Active; 'I' for Inactive)
REMARK    1  A    between atoms: C_2  and  C_4
REMARK    2  A    between atoms: C_6  and  C_7
REMARK    3  A    between atoms: C_7  and  C_8
REMARK                            x       y       z     vdW  Elec       q    Type
REMARK                         _______ _______ _______ _____ _____    ______ ____
ROOT
ATOM      1  C   UNL     1       6.575   4.408  16.434  0.00  0.00    +0.000 C 
ENDROOT
BRANCH   1   2
ATOM      2  C   UNL     1       5.307   5.104  16.916  0.00  0.00    +0.000 A 
ATOM      3  N   UNL     1       5.285   6.407  16.862  0.00  0.00    +0.000 NA
ATOM      4  N   UNL     1       4.196   7.034  17.394  0.00  0.00    +0.000 N 
ATOM      5  C   UNL     1       3.139   6.426  18.017  0.00  0.00    +0.000 A 
ATOM      6  O   UNL     1       2.241   7.060  18.562  0.00  0.00    +0.000 OA
ATOM      7  C   UNL     1       3.140   4.949  17.994  0.00  0.00    +0.000 A 
ATOM      8  C   UNL     1       4.186   4.274  17.490  0.00  0.00    +0.000 A 
ATOM      9  N   UNL     1       4.218   2.890  17.527  0.00  0.00    +0.000 N 
ATOM     10  C   UNL     1       3.225   2.108  18.238  0.00  0.00    +0.000 C 
ATOM     11  C   UNL     1       1.862   2.773  18.071  0.00  0.00    +0.000 C 
ATOM     12  C   UNL     1       1.925   4.237  18.531  0.00  0.00    +0.000 C 
ATOM     13  H   UNL     1       4.225   8.048  17.422  0.00  0.00    +0.000 HD
ATOM     14  H   UNL     1       4.873   2.394  16.935  0.00  0.00    +0.000 HD
ENDBRANCH   1   2
BRANCH   1  17
ATOM     15  C   UNL     1       6.200   3.685  12.698  0.00  0.00    +0.000 A 
ATOM     16  C   UNL     1       6.014   3.650  14.089  0.00  0.00    +0.000 A 
ATOM     17  C   UNL     1       6.794   4.450  14.939  0.00  0.00    +0.000 A 
ATOM     18  C   UNL     1       7.756   5.300  14.364  0.00  0.00    +0.000 A 
ATOM     19  C   UNL     1       7.926   5.358  12.981  0.00  0.00    +0.000 A 
ATOM     20  C   UNL     1       7.150   4.553  12.158  0.00  0.00    +0.000 A 
ATOM     21  F   UNL     1       7.352   4.640  10.836  0.00  0.00    +0.000 F 
BRANCH  15  23
ATOM     22  N   UNL     1       5.929   1.573  11.523  0.00  0.00    +0.000 N 
ATOM     23  C   UNL     1       5.392   2.791  11.837  0.00  0.00    +0.000 C 
ATOM     24  O   UNL     1       4.298   3.123  11.415  0.00  0.00    +0.000 OA
ATOM     25  H   UNL     1       5.398   0.950  10.930  0.00  0.00    +0.000 HD
ATOM     26  H   UNL     1       6.841   1.278  11.843  0.00  0.00    +0.000 HD
ENDBRANCH  15  23
ENDBRANCH   1  17
TORSDOF 3
ENDMDL
MODEL 2
REMARK VINA RESULT:      -8.2      6.042      7.627
REMARK  Name = 
REMARK  3 active torsions:
REMARK  status: ('A' for Active; 'I' for Inactive)
REMARK    1  A    between atoms: C_2  and  C_4
REMARK    2  A    between atoms: C_6  and  C_7
REMARK    3  A    between atoms: C_7  and  C_8
REMARK                            x       y       z     vdW  Elec       q    Type
REMARK                         _______ _______ _______ _____ _____    ______ ____
ROOT
ATOM      1  C   UNL     1       3.004   7.111  19.065  0.00  0.00    +0.000 C 
ENDROOT
BRANCH   1   2
ATOM      2  C   UNL     1       1.933   8.187  18.924  0.00  0.00    +0.000 A 
ATOM      3  N   UNL     1       1.649   8.592  17.718  0.00  0.00    +0.000 NA
ATOM      4  N   UNL     1       0.771   9.630  17.600  0.00  0.00    +0.000 N 
ATOM      5  C   UNL     1       0.189  10.316  18.632  0.00  0.00    +0.000 A 
ATOM      6  O   UNL     1      -0.513  11.306  18.453  0.00  0.00    +0.000 OA
ATOM      7  C   UNL     1       0.457   9.791  19.987  0.00  0.00    +0.000 A 
ATOM      8  C   UNL     1       1.316   8.776  20.168  0.00  0.00    +0.000 A 
ATOM      9  N   UNL     1       1.618   8.325  21.442  0.00  0.00    +0.000 N 
ATOM     10  C   UNL     1       1.162   9.009  22.638  0.00  0.00    +0.000 C 
ATOM     11  C   UNL     1      -0.251   9.533  22.396  0.00  0.00    +0.000 C 
ATOM     12  C   UNL     1      -0.282  10.417  21.141  0.00  0.00    +0.000 C 
ATOM     13  H   UNL     1       0.619   9.991  16.664  0.00  0.00    +0.000 HD
ATOM     14  H   UNL     1       2.059   7.420  21.557  0.00  0.00    +0.000 HD
ENDBRANCH   1   2
BRANCH   1  17
ATOM     15  C   UNL     1       2.026   3.603  20.230  0.00  0.00    +0.000 A 
ATOM     16  C   UNL     1       2.512   4.919  20.224  0.00  0.00    +0.000 A 
ATOM     17  C   UNL     1       2.484   5.691  19.052  0.00  0.00    +0.000 A 
ATOM     18  C   UNL     1       1.943   5.121  17.886  0.00  0.00    +0.000 A 
ATOM     19  C   UNL     1       1.433   3.823  17.893  0.00  0.00    +0.000 A 
ATOM     20  C   UNL     1       1.477   3.073  19.061  0.00  0.00    +0.000 A 
ATOM     21  F   UNL     1       0.979   1.829  19.019  0.00  0.00    +0.000 F 
BRANCH  15  23
ATOM     22  N   UNL     1       0.955   2.580  22.159  0.00  0.00    +0.000 N 
ATOM     23  C   UNL     1       2.117   2.802  21.473  0.00  0.00    +0.000 C 
ATOM     24  O   UNL     1       3.181   2.366  21.877  0.00  0.00    +0.000 OA
ATOM     25  H   UNL     1       0.997   2.043  23.015  0.00  0.00    +0.000 HD
ATOM     26  H   UNL     1       0.063   2.945  21.858  0.00  0.00    +0.000 HD
ENDBRANCH  15  23
ENDBRANCH   1  17
TORSDOF 3
ENDMDL
MODEL 3
REMARK VINA RESULT:      -7.8      1.356      1.605
REMARK  Name = 
REMARK  3 active torsions:
REMARK  status: ('A' for Active; 'I' for Inactive)
REMARK    1  A    between atoms: C_2  and  C_4
REMARK    2  A    between atoms: C_6  and  C_7
REMARK    3  A    between atoms: C_7  and  C_8
REMARK                            x       y       z     vdW  Elec       q    Type
REMARK                         _______ _______ _______ _____ _____    ______ ____
ROOT
ATOM      1  C   UNL     1       5.233   3.817  17.272  0.00  0.00    +0.000 C 
ENDROOT
BRANCH   1   2
ATOM      2  C   UNL     1       4.260   4.881  17.767  0.00  0.00    +0.000 A 
ATOM      3  N   UNL     1       4.292   6.041  17.172  0.00  0.00    +0.000 NA
ATOM      4  N   UNL     1       3.500   7.026  17.686  0.00  0.00    +0.000 N 
ATOM      5  C   UNL     1       2.702   6.925  18.795  0.00  0.00    +0.000 A 
ATOM      6  O   UNL     1       2.094   7.883  19.259  0.00  0.00    +0.000 OA
ATOM      7  C   UNL     1       2.614   5.582  19.404  0.00  0.00    +0.000 A 
ATOM      8  C   UNL     1       3.373   4.573  18.947  0.00  0.00    +0.000 A 
ATOM      9  N   UNL     1       3.340   3.331  19.559  0.00  0.00    +0.000 N 
ATOM     10  C   UNL     1       2.624   3.093  20.798  0.00  0.00    +0.000 C 
ATOM     11  C   UNL     1       1.329   3.901  20.781  0.00  0.00    +0.000 C 
ATOM     12  C   UNL     1       1.632   5.385  20.531  0.00  0.00    +0.000 C 
ATOM     13  H   UNL     1       3.593   7.946  17.269  0.00  0.00    +0.000 HD
ATOM     14  H   UNL     1       3.713   2.528  19.069  0.00  0.00    +0.000 HD
ENDBRANCH   1   2
BRANCH   1  17
ATOM     15  C   UNL     1       6.045   3.849  13.535  0.00  0.00    +0.000 A 
ATOM     16  C   UNL     1       5.436   3.557  14.766  0.00  0.00    +0.000 A 
ATOM     17  C   UNL     1       5.906   4.134  15.956  0.00  0.00    +0.000 A 
ATOM     18  C   UNL     1       6.993   5.024  15.886  0.00  0.00    +0.000 A 
ATOM     19  C   UNL     1       7.585   5.338  14.663  0.00  0.00    +0.000 A 
ATOM     20  C   UNL     1       7.110   4.751  13.498  0.00  0.00    +0.000 A 
ATOM     21  F   UNL     1       7.713   5.080  12.347  0.00  0.00    +0.000 F 
BRANCH  15  23
ATOM     22  N   UNL     1       6.288   2.134  11.828  0.00  0.00    +0.000 N 
ATOM     23  C   UNL     1       5.553   3.183  12.307  0.00  0.00    +0.000 C 
ATOM     24  O   UNL     1       4.542   3.555  11.738  0.00  0.00    +0.000 OA
ATOM     25  H   UNL     1       5.974   1.670  10.986  0.00  0.00    +0.000 HD
ATOM     26  H   UNL     1       7.140   1.816  12.268  0.00  0.00    +0.000 HD
ENDBRANCH  15  23
ENDBRANCH   1  17
TORSDOF 3
ENDMDL
MODEL 4
REMARK VINA RESULT:      -7.7      5.719      7.079
REMARK  Name = 
REMARK  3 active torsions:
REMARK  status: ('A' for Active; 'I' for Inactive)
REMARK    1  A    between atoms: C_2  and  C_4
REMARK    2  A    between atoms: C_6  and  C_7
REMARK    3  A    between atoms: C_7  and  C_8
REMARK                            x       y       z     vdW  Elec       q    Type
REMARK                         _______ _______ _______ _____ _____    ______ ____
ROOT
ATOM      1  C   UNL     1       3.224   7.293  18.753  0.00  0.00    +0.000 C 
ENDROOT
BRANCH   1   2
ATOM      2  C   UNL     1       2.071   8.287  18.681  0.00  0.00    +0.000 A 
ATOM      3  N   UNL     1       1.756   8.751  17.503  0.00  0.00    +0.000 NA
ATOM      4  N   UNL     1       0.799   9.722  17.452  0.00  0.00    +0.000 N 
ATOM      5  C   UNL     1       0.162  10.286  18.526  0.00  0.00    +0.000 A 
ATOM      6  O   UNL     1      -0.617  11.226  18.412  0.00  0.00    +0.000 OA
ATOM      7  C   UNL     1       0.469   9.689  19.843  0.00  0.00    +0.000 A 
ATOM      8  C   UNL     1       1.407   8.735  19.958  0.00  0.00    +0.000 A 
ATOM      9  N   UNL     1       1.742   8.221  21.200  0.00  0.00    +0.000 N 
ATOM     10  C   UNL     1       1.231   8.781  22.437  0.00  0.00    +0.000 C 
ATOM     11  C   UNL     1      -0.219   9.207  22.223  0.00  0.00    +0.000 C 
ATOM     12  C   UNL     1      -0.319  10.172  21.033  0.00  0.00    +0.000 C 
ATOM     13  H   UNL     1       0.620  10.135  16.543  0.00  0.00    +0.000 HD
ATOM     14  H   UNL     1       2.253   7.349  21.253  0.00  0.00    +0.000 HD
ENDBRANCH   1   2
BRANCH   1  17
ATOM     15  C   UNL     1       3.031   3.570  19.608  0.00  0.00    +0.000 A 
ATOM     16  C   UNL     1       3.410   4.922  19.611  0.00  0.00    +0.000 A 
ATOM     17  C   UNL     1       2.811   5.838  18.731  0.00  0.00    +0.000 A 
ATOM     18  C   UNL     1       1.813   5.374  17.857  0.00  0.00    +0.000 A 
ATOM     19  C   UNL     1       1.414   4.037  17.869  0.00  0.00    +0.000 A 
ATOM     20  C   UNL     1       2.023   3.146  18.741  0.00  0.00    +0.000 A 
ATOM     21  F   UNL     1       1.610   1.871  18.713  0.00  0.00    +0.000 F 
BRANCH  15  23
ATOM     22  N   UNL     1       4.883   2.062  20.067  0.00  0.00    +0.000 N 
ATOM     23  C   UNL     1       3.720   2.624  20.515  0.00  0.00    +0.000 C 
ATOM     24  O   UNL     1       3.269   2.346  21.613  0.00  0.00    +0.000 OA
ATOM     25  H   UNL     1       5.364   1.406  20.667  0.00  0.00    +0.000 HD
ATOM     26  H   UNL     1       5.270   2.258  19.154  0.00  0.00    +0.000 HD
ENDBRANCH  15  23
ENDBRANCH   1  17
TORSDOF 3
ENDMDL
MODEL 5
REMARK VINA RESULT:      -7.7      3.782      6.552
REMARK  Name = 
REMARK  3 active torsions:
REMARK  status: ('A' for Active; 'I' for Inactive)
REMARK    1  A    between atoms: C_2  and  C_4
REMARK    2  A    between atoms: C_6  and  C_7
REMARK    3  A    between atoms: C_7  and  C_8
REMARK                            x       y       z     vdW  Elec       q    Type
REMARK                         _______ _______ _______ _____ _____    ______ ____
ROOT
ATOM      1  C   UNL     1       3.433   7.130  17.626  0.00  0.00    +0.000 C 
ENDROOT
BRANCH   1   2
ATOM      2  C   UNL     1       4.639   6.552  16.896  0.00  0.00    +0.000 A 
ATOM      3  N   UNL     1       4.613   6.571  15.592  0.00  0.00    +0.000 NA
ATOM      4  N   UNL     1       5.641   5.955  14.940  0.00  0.00    +0.000 N 
ATOM      5  C   UNL     1       6.681   5.282  15.524  0.00  0.00    +0.000 A 
ATOM      6  O   UNL     1       7.517   4.666  14.873  0.00  0.00    +0.000 OA
ATOM      7  C   UNL     1       6.740   5.343  16.999  0.00  0.00    +0.000 A 
ATOM      8  C   UNL     1       5.754   5.929  17.698  0.00  0.00    +0.000 A 
ATOM      9  N   UNL     1       5.775   5.930  19.083  0.00  0.00    +0.000 N 
ATOM     10  C   UNL     1       6.752   5.178  19.847  0.00  0.00    +0.000 C 
ATOM     11  C   UNL     1       8.095   5.241  19.126  0.00  0.00    +0.000 C 
ATOM     12  C   UNL     1       7.946   4.749  17.679  0.00  0.00    +0.000 C 
ATOM     13  H   UNL     1       5.570   5.903  13.929  0.00  0.00    +0.000 HD
ATOM     14  H   UNL     1       5.178   6.574  19.587  0.00  0.00    +0.000 HD
ENDBRANCH   1   2
BRANCH   1  17
ATOM     15  C   UNL     1       1.764   3.940  18.916  0.00  0.00    +0.000 A 
ATOM     16  C   UNL     1       2.425   4.857  18.084  0.00  0.00    +0.000 A 
ATOM     17  C   UNL     1       2.711   6.157  18.531  0.00  0.00    +0.000 A 
ATOM     18  C   UNL     1       2.334   6.516  19.837  0.00  0.00    +0.000 A 
ATOM     19  C   UNL     1       1.700   5.599  20.677  0.00  0.00    +0.000 A 
ATOM     20  C   UNL     1       1.419   4.321  20.214  0.00  0.00    +0.000 A 
ATOM     21  F   UNL     1       0.805   3.477  21.055  0.00  0.00    +0.000 F 
BRANCH  15  23
ATOM     22  N   UNL     1       2.472   1.837  17.921  0.00  0.00    +0.000 N 
ATOM     23  C   UNL     1       1.435   2.594  18.393  0.00  0.00    +0.000 C 
ATOM     24  O   UNL     1       0.291   2.176  18.371  0.00  0.00    +0.000 OA
ATOM     25  H   UNL     1       2.269   0.919  17.551  0.00  0.00    +0.000 HD
ATOM     26  H   UNL     1       3.428   2.165  17.909  0.00  0.00    +0.000 HD
ENDBRANCH  15  23
ENDBRANCH   1  17
TORSDOF 3
ENDMDL
MODEL 6
REMARK VINA RESULT:      -7.6      4.821      6.712
REMARK  Name = 
REMARK  3 active torsions:
REMARK  status: ('A' for Active; 'I' for Inactive)
REMARK    1  A    between atoms: C_2  and  C_4
REMARK    2  A    between atoms: C_6  and  C_7
REMARK    3  A    between atoms: C_7  and  C_8
REMARK                            x       y       z     vdW  Elec       q    Type
REMARK                         _______ _______ _______ _____ _____    ______ ____
ROOT
ATOM      1  C   UNL     1       3.306   7.254  19.005  0.00  0.00    +0.000 C 
ENDROOT
BRANCH   1   2
ATOM      2  C   UNL     1       2.109   8.182  18.831  0.00  0.00    +0.000 A 
ATOM      3  N   UNL     1       1.787   8.517  17.612  0.00  0.00    +0.000 NA
ATOM      4  N   UNL     1       0.786   9.432  17.462  0.00  0.00    +0.000 N 
ATOM      5  C   UNL     1       0.113  10.065  18.473  0.00  0.00    +0.000 A 
ATOM      6  O   UNL     1      -0.707  10.953  18.264  0.00  0.00    +0.000 OA
ATOM      7  C   UNL     1       0.432   9.612  19.842  0.00  0.00    +0.000 A 
ATOM      8  C   UNL     1       1.411   8.718  20.055  0.00  0.00    +0.000 A 
ATOM      9  N   UNL     1       1.756   8.341  21.342  0.00  0.00    +0.000 N 
ATOM     10  C   UNL     1       1.205   8.991  22.517  0.00  0.00    +0.000 C 
ATOM     11  C   UNL     1      -0.260   9.326  22.253  0.00  0.00    +0.000 C 
ATOM     12  C   UNL     1      -0.391  10.168  20.976  0.00  0.00    +0.000 C 
ATOM     13  H   UNL     1       0.599   9.748  16.516  0.00  0.00    +0.000 HD
ATOM     14  H   UNL     1       2.306   7.503  21.482  0.00  0.00    +0.000 HD
ENDBRANCH   1   2
BRANCH   1  17
ATOM     15  C   UNL     1       1.867   3.734  18.600  0.00  0.00    +0.000 A 
ATOM     16  C   UNL     1       2.081   5.043  19.059  0.00  0.00    +0.000 A 
ATOM     17  C   UNL     1       3.094   5.843  18.505  0.00  0.00    +0.000 A 
ATOM     18  C   UNL     1       3.880   5.308  17.469  0.00  0.00    +0.000 A 
ATOM     19  C   UNL     1       3.653   4.017  16.991  0.00  0.00    +0.000 A 
ATOM     20  C   UNL     1       2.652   3.239  17.557  0.00  0.00    +0.000 A 
ATOM     21  F   UNL     1       2.473   2.004  17.067  0.00  0.00    +0.000 F 
BRANCH  15  23
ATOM     22  N   UNL     1       0.690   3.004  20.599  0.00  0.00    +0.000 N 
ATOM     23  C   UNL     1       0.821   2.904  19.241  0.00  0.00    +0.000 C 
ATOM     24  O   UNL     1       0.111   2.155  18.594  0.00  0.00    +0.000 OA
ATOM     25  H   UNL     1      -0.012   2.440  21.058  0.00  0.00    +0.000 HD
ATOM     26  H   UNL     1       1.277   3.602  21.163  0.00  0.00    +0.000 HD
ENDBRANCH  15  23
ENDBRANCH   1  17
TORSDOF 3
ENDMDL
MODEL 7
REMARK VINA RESULT:      -7.5      4.408      6.822
REMARK  Name = 
REMARK  3 active torsions:
REMARK  status: ('A' for Active; 'I' for Inactive)
REMARK    1  A    between atoms: C_2  and  C_4
REMARK    2  A    between atoms: C_6  and  C_7
REMARK    3  A    between atoms: C_7  and  C_8
REMARK                            x       y       z     vdW  Elec       q    Type
REMARK                         _______ _______ _______ _____ _____    ______ ____
ROOT
ATOM      1  C   UNL     1       2.283   7.879  18.007  0.00  0.00    +0.000 C 
ENDROOT
BRANCH   1   2
ATOM      2  C   UNL     1       1.744   8.363  19.348  0.00  0.00    +0.000 A 
ATOM      3  N   UNL     1       2.103   7.696  20.410  0.00  0.00    +0.000 NA
ATOM      4  N   UNL     1       1.535   8.061  21.596  0.00  0.00    +0.000 N 
ATOM      5  C   UNL     1       0.590   9.037  21.772  0.00  0.00    +0.000 A 
ATOM      6  O   UNL     1       0.048   9.243  22.853  0.00  0.00    +0.000 OA
ATOM      7  C   UNL     1       0.259   9.836  20.575  0.00  0.00    +0.000 A 
ATOM      8  C   UNL     1       0.781   9.522  19.378  0.00  0.00    +0.000 A 
ATOM      9  N   UNL     1       0.421  10.230  18.243  0.00  0.00    +0.000 N 
ATOM     10  C   UNL     1      -0.637  11.223  18.248  0.00  0.00    +0.000 C 
ATOM     11  C   UNL     1      -0.585  11.991  19.566  0.00  0.00    +0.000 C 
ATOM     12  C   UNL     1      -0.659  11.018  20.751  0.00  0.00    +0.000 C 
ATOM     13  H   UNL     1       1.757   7.485  22.401  0.00  0.00    +0.000 HD
ATOM     14  H   UNL     1       0.992  10.155  17.411  0.00  0.00    +0.000 HD
ENDBRANCH   1   2
BRANCH   1  17
ATOM     15  C   UNL     1       4.604   4.841  18.094  0.00  0.00    +0.000 A 
ATOM     16  C   UNL     1       4.140   6.166  18.095  0.00  0.00    +0.000 A 
ATOM     17  C   UNL     1       2.768   6.447  17.995  0.00  0.00    +0.000 A 
ATOM     18  C   UNL     1       1.867   5.371  17.910  0.00  0.00    +0.000 A 
ATOM     19  C   UNL     1       2.321   4.052  17.936  0.00  0.00    +0.000 A 
ATOM     20  C   UNL     1       3.682   3.795  18.027  0.00  0.00    +0.000 A 
ATOM     21  F   UNL     1       4.072   2.512  18.045  0.00  0.00    +0.000 F 
BRANCH  15  23
ATOM     22  N   UNL     1       6.666   4.155  17.002  0.00  0.00    +0.000 N 
ATOM     23  C   UNL     1       6.062   4.585  18.152  0.00  0.00    +0.000 C 
ATOM     24  O   UNL     1       6.700   4.739  19.178  0.00  0.00    +0.000 OA
ATOM     25  H   UNL     1       7.658   3.965  17.022  0.00  0.00    +0.000 HD
ATOM     26  H   UNL     1       6.159   3.999  16.143  0.00  0.00    +0.000 HD
ENDBRANCH  15  23
ENDBRANCH   1  17
TORSDOF 3
ENDMDL
MODEL 8
REMARK VINA RESULT:      -7.4      5.609      7.293
REMARK  Name = 
REMARK  3 active torsions:
REMARK  status: ('A' for Active; 'I' for Inactive)
REMARK    1  A    between atoms: C_2  and  C_4
REMARK    2  A    between atoms: C_6  and  C_7
REMARK    3  A    between atoms: C_7  and  C_8
REMARK                            x       y       z     vdW  Elec       q    Type
REMARK                         _______ _______ _______ _____ _____    ______ ____
ROOT
ATOM      1  C   UNL     1       3.118   7.058  19.359  0.00  0.00    +0.000 C 
ENDROOT
BRANCH   1   2
ATOM      2  C   UNL     1       2.013   8.075  19.099  0.00  0.00    +0.000 A 
ATOM      3  N   UNL     1       1.745   8.360  17.855  0.00  0.00    +0.000 NA
ATOM      4  N   UNL     1       0.834   9.349  17.625  0.00  0.00    +0.000 N 
ATOM      5  C   UNL     1       0.200  10.101  18.578  0.00  0.00    +0.000 A 
ATOM      6  O   UNL     1      -0.532  11.043  18.296  0.00  0.00    +0.000 OA
ATOM      7  C   UNL     1       0.452   9.709  19.980  0.00  0.00    +0.000 A 
ATOM      8  C   UNL     1       1.343   8.747  20.271  0.00  0.00    +0.000 A 
ATOM      9  N   UNL     1       1.627   8.422  21.587  0.00  0.00    +0.000 N 
ATOM     10  C   UNL     1       1.116   9.191  22.706  0.00  0.00    +0.000 C 
ATOM     11  C   UNL     1      -0.308   9.637  22.386  0.00  0.00    +0.000 C 
ATOM     12  C   UNL     1      -0.339  10.405  21.057  0.00  0.00    +0.000 C 
ATOM     13  H   UNL     1       0.693   9.620  16.657  0.00  0.00    +0.000 HD
ATOM     14  H   UNL     1       2.097   7.549  21.791  0.00  0.00    +0.000 HD
ENDBRANCH   1   2
BRANCH   1  17
ATOM     15  C   UNL     1       3.025   3.239  19.538  0.00  0.00    +0.000 A 
ATOM     16  C   UNL     1       3.455   4.553  19.297  0.00  0.00    +0.000 A 
ATOM     17  C   UNL     1       2.636   5.648  19.617  0.00  0.00    +0.000 A 
ATOM     18  C   UNL     1       1.381   5.399  20.199  0.00  0.00    +0.000 A 
ATOM     19  C   UNL     1       0.960   4.096  20.465  0.00  0.00    +0.000 A 
ATOM     20  C   UNL     1       1.781   3.027  20.135  0.00  0.00    +0.000 A 
ATOM     21  F   UNL     1       1.333   1.793  20.406  0.00  0.00    +0.000 F 
BRANCH  15  23
ATOM     22  N   UNL     1       5.024   1.898  19.886  0.00  0.00    +0.000 N 
ATOM     23  C   UNL     1       3.896   2.108  19.142  0.00  0.00    +0.000 C 
ATOM     24  O   UNL     1       3.629   1.397  18.189  0.00  0.00    +0.000 OA
ATOM     25  H   UNL     1       5.637   1.137  19.628  0.00  0.00    +0.000 HD
ATOM     26  H   UNL     1       5.280   2.483  20.669  0.00  0.00    +0.000 HD
ENDBRANCH  15  23
ENDBRANCH   1  17
TORSDOF 3
ENDMDL
MODEL 9
REMARK VINA RESULT:      -7.4      4.904      6.985
REMARK  Name = 
REMARK  3 active torsions:
REMARK  status: ('A' for Active; 'I' for Inactive)
REMARK    1  A    between atoms: C_2  and  C_4
REMARK    2  A    between atoms: C_6  and  C_7
REMARK    3  A    between atoms: C_7  and  C_8
REMARK                            x       y       z     vdW  Elec       q    Type
REMARK                         _______ _______ _______ _____ _____    ______ ____
ROOT
ATOM      1  C   UNL     1       2.405   7.583  17.952  0.00  0.00    +0.000 C 
ENDROOT
BRANCH   1   2
ATOM      2  C   UNL     1       1.880   8.141  19.270  0.00  0.00    +0.000 A 
ATOM      3  N   UNL     1       2.288   7.565  20.366  0.00  0.00    +0.000 NA
ATOM      4  N   UNL     1       1.735   7.992  21.538  0.00  0.00    +0.000 N 
ATOM      5  C   UNL     1       0.758   8.944  21.669  0.00  0.00    +0.000 A 
ATOM      6  O   UNL     1       0.235   9.206  22.747  0.00  0.00    +0.000 OA
ATOM      7  C   UNL     1       0.369   9.643  20.428  0.00  0.00    +0.000 A 
ATOM      8  C   UNL     1       0.874   9.264  19.243  0.00  0.00    +0.000 A 
ATOM      9  N   UNL     1       0.462   9.876  18.071  0.00  0.00    +0.000 N 
ATOM     10  C   UNL     1      -0.632  10.828  18.034  0.00  0.00    +0.000 C 
ATOM     11  C   UNL     1      -0.578  11.689  19.293  0.00  0.00    +0.000 C 
ATOM     12  C   UNL     1      -0.588  10.801  20.545  0.00  0.00    +0.000 C 
ATOM     13  H   UNL     1       1.997   7.483  22.375  0.00  0.00    +0.000 HD
ATOM     14  H   UNL     1       1.016   9.763  17.231  0.00  0.00    +0.000 HD
ENDBRANCH   1   2
BRANCH   1  17
ATOM     15  C   UNL     1       1.940   3.822  18.467  0.00  0.00    +0.000 A 
ATOM     16  C   UNL     1       1.711   5.207  18.467  0.00  0.00    +0.000 A 
ATOM     17  C   UNL     1       2.671   6.094  17.953  0.00  0.00    +0.000 A 
ATOM     18  C   UNL     1       3.860   5.563  17.424  0.00  0.00    +0.000 A 
ATOM     19  C   UNL     1       4.080   4.186  17.397  0.00  0.00    +0.000 A 
ATOM     20  C   UNL     1       3.123   3.325  17.917  0.00  0.00    +0.000 A 
ATOM     21  F   UNL     1       3.380   2.011  17.873  0.00  0.00    +0.000 F 
BRANCH  15  23
ATOM     22  N   UNL     1       0.708   3.029  20.408  0.00  0.00    +0.000 N 
ATOM     23  C   UNL     1       0.926   2.921  19.062  0.00  0.00    +0.000 C 
ATOM     24  O   UNL     1       0.315   2.110  18.389  0.00  0.00    +0.000 OA
ATOM     25  H   UNL     1       0.027   2.417  20.837  0.00  0.00    +0.000 HD
ATOM     26  H   UNL     1       1.214   3.678  20.994  0.00  0.00    +0.000 HD
ENDBRANCH  15  23
ENDBRANCH   1  17
TORSDOF 3
ENDMDL
