MODEL 1
REMARK VINA RESULT:      -8.0      0.000      0.000
REMARK  Name = 
REMARK  8 active torsions:
REMARK  status: ('A' for Active; 'I' for Inactive)
REMARK    1  A    between atoms: C_1  and  C_2
REMARK    2  A    between atoms: C_7  and  C_8
REMARK    3  A    between atoms: C_8  and  N_9
REMARK    4  A    between atoms: N_9  and  C_10
REMARK    5  A    between atoms: C_10  and  C_11
REMARK    6  A    between atoms: C_11  and  C_12
REMARK    7  A    between atoms: C_11  and  C_13
REMARK    8  A    between atoms: C_14  and  C_16
REMARK                            x       y       z     vdW  Elec       q    Type
REMARK                         _______ _______ _______ _____ _____    ______ ____
ROOT
ATOM      1  C   UNL     1       4.621   4.142  18.360  0.00  0.00    +0.000 C 
ENDROOT
BRANCH   1   8
ATOM      2  C   UNL     1       8.010   5.501  11.259  0.00  0.00    +0.000 C 
ATOM      3  C   UNL     1       7.265   4.927  12.427  0.00  0.00    +0.000 A 
ATOM      4  C   UNL     1       6.157   4.083  12.264  0.00  0.00    +0.000 A 
ATOM      5  C   UNL     1       5.421   3.634  13.374  0.00  0.00    +0.000 A 
ATOM      6  C   UNL     1       5.804   3.999  14.670  0.00  0.00    +0.000 A 
ATOM      7  C   UNL     1       4.994   3.708  15.868  0.00  0.00    +0.000 A 
ATOM      8  C   UNL     1       5.446   4.031  17.101  0.00  0.00    +0.000 A 
ATOM      9  C   UNL     1       6.840   4.567  17.234  0.00  0.00    +0.000 A 
ATOM     10  O   UNL     1       7.417   4.647  18.313  0.00  0.00    +0.000 OA
ATOM     11  N   UNL     1       7.442   5.030  16.103  0.00  0.00    +0.000 N 
ATOM     12  C   UNL     1       6.961   4.773  14.820  0.00  0.00    +0.000 A 
ATOM     13  C   UNL     1       7.668   5.259  13.724  0.00  0.00    +0.000 A 
ATOM     14  H   UNL     1       8.345   5.463  16.228  0.00  0.00    +0.000 HD
ENDBRANCH   1   8
BRANCH   1  15
ATOM     15  N   UNL     1       3.468   5.050  18.296  0.00  0.00    +0.000 N 
ATOM     16  C   UNL     1       3.768   6.417  18.530  0.00  0.00    +0.000 C 
ATOM     17  O   UNL     1       4.924   6.844  18.548  0.00  0.00    +0.000 OA
BRANCH  16  18
ATOM     18  C   UNL     1       2.695   7.447  18.696  0.00  0.00    +0.000 A 
ATOM     19  C   UNL     1       2.205   8.254  17.662  0.00  0.00    +0.000 A 
ATOM     20  C   UNL     1       1.311   9.293  17.933  0.00  0.00    +0.000 A 
ATOM     21  C   UNL     1       0.819   9.465  19.223  0.00  0.00    +0.000 A 
ATOM     22  C   UNL     1       1.194   8.574  20.227  0.00  0.00    +0.000 A 
ATOM     23 CL   UNL     1       0.505   8.726  21.796  0.00  0.00    +0.000 Cl
ATOM     24  C   UNL     1       2.127   7.571  19.972  0.00  0.00    +0.000 A 
ENDBRANCH  16  18
BRANCH  15  25
ATOM     25  C   UNL     1       2.096   4.520  18.429  0.00  0.00    +0.000 C 
BRANCH  25  26
ATOM     26  C   UNL     1       1.750   3.424  19.452  0.00  0.00    +0.000 C 
ATOM     27  C   UNL     1       1.118   3.995  20.727  0.00  0.00    +0.000 C 
ATOM     28  C   UNL     1       0.713   2.466  18.834  0.00  0.00    +0.000 C 
ENDBRANCH  25  26
ENDBRANCH  15  25
ENDBRANCH   1  15
TORSDOF 5
ENDMDL
MODEL 2
REMARK VINA RESULT:      -7.5      4.589      6.912
REMARK  Name = 
REMARK  8 active torsions:
REMARK  status: ('A' for Active; 'I' for Inactive)
REMARK    1  A    between atoms: C_1  and  C_2
REMARK    2  A    between atoms: C_7  and  C_8
REMARK    3  A    between atoms: C_8  and  N_9
REMARK    4  A    between atoms: N_9  and  C_10
REMARK    5  A    between atoms: C_10  and  C_11
REMARK    6  A    between atoms: C_11  and  C_12
REMARK    7  A    between atoms: C_11  and  C_13
REMARK    8  A    between atoms: C_14  and  C_16
REMARK                            x       y       z     vdW  Elec       q    Type
REMARK                         _______ _______ _______ _____ _____    ______ ____
ROOT
ATOM      1  C   UNL     1       1.675   9.207  20.034  0.00  0.00    +0.000 C 
ENDROOT
BRANCH   1   8
ATOM      2  C   UNL     1       1.540   1.355  18.591  0.00  0.00    +0.000 C 
ATOM      3  C   UNL     1       1.683   2.718  19.201  0.00  0.00    +0.000 A 
ATOM      4  C   UNL     1       1.493   2.946  20.572  0.00  0.00    +0.000 A 
ATOM      5  C   UNL     1       1.542   4.247  21.101  0.00  0.00    +0.000 A 
ATOM      6  C   UNL     1       1.812   5.339  20.268  0.00  0.00    +0.000 A 
ATOM      7  C   UNL     1       1.717   6.743  20.713  0.00  0.00    +0.000 A 
ATOM      8  C   UNL     1       2.051   7.754  19.879  0.00  0.00    +0.000 A 
ATOM      9  C   UNL     1       2.645   7.414  18.545  0.00  0.00    +0.000 A 
ATOM     10  O   UNL     1       3.203   8.248  17.839  0.00  0.00    +0.000 OA
ATOM     11  N   UNL     1       2.491   6.136  18.100  0.00  0.00    +0.000 N 
ATOM     12  C   UNL     1       2.081   5.085  18.918  0.00  0.00    +0.000 A 
ATOM     13  C   UNL     1       1.990   3.805  18.378  0.00  0.00    +0.000 A 
ATOM     14  H   UNL     1       2.824   5.950  17.165  0.00  0.00    +0.000 HD
ENDBRANCH   1   8
BRANCH   1  15
ATOM     15  N   UNL     1       0.256   9.530  19.832  0.00  0.00    +0.000 N 
ATOM     16  C   UNL     1      -0.053  10.112  18.575  0.00  0.00    +0.000 C 
ATOM     17  O   UNL     1       0.750  10.126  17.640  0.00  0.00    +0.000 OA
BRANCH  16  18
ATOM     18  C   UNL     1      -1.405  10.680  18.275  0.00  0.00    +0.000 A 
ATOM     19  C   UNL     1      -2.102  11.554  19.118  0.00  0.00    +0.000 A 
ATOM     20  C   UNL     1      -3.420  11.918  18.834  0.00  0.00    +0.000 A 
ATOM     21  C   UNL     1      -4.016  11.493  17.650  0.00  0.00    +0.000 A 
ATOM     22  C   UNL     1      -3.277  10.740  16.740  0.00  0.00    +0.000 A 
ATOM     23 CL   UNL     1      -3.980  10.304  15.232  0.00  0.00    +0.000 Cl
ATOM     24  C   UNL     1      -1.981  10.331  17.045  0.00  0.00    +0.000 A 
ENDBRANCH  16  18
BRANCH  15  25
ATOM     25  C   UNL     1      -0.651   9.653  20.990  0.00  0.00    +0.000 C 
BRANCH  25  26
ATOM     26  C   UNL     1      -0.246  10.433  22.253  0.00  0.00    +0.000 C 
ATOM     27  C   UNL     1      -1.354  11.376  22.736  0.00  0.00    +0.000 C 
ATOM     28  C   UNL     1       0.018   9.437  23.398  0.00  0.00    +0.000 C 
ENDBRANCH  25  26
ENDBRANCH  15  25
ENDBRANCH   1  15
TORSDOF 5
ENDMDL
MODEL 3
REMARK VINA RESULT:      -7.4      4.547      7.013
REMARK  Name = 
REMARK  8 active torsions:
REMARK  status: ('A' for Active; 'I' for Inactive)
REMARK    1  A    between atoms: C_1  and  C_2
REMARK    2  A    between atoms: C_7  and  C_8
REMARK    3  A    between atoms: C_8  and  N_9
REMARK    4  A    between atoms: N_9  and  C_10
REMARK    5  A    between atoms: C_10  and  C_11
REMARK    6  A    between atoms: C_11  and  C_12
REMARK    7  A    between atoms: C_11  and  C_13
REMARK    8  A    between atoms: C_14  and  C_16
REMARK                            x       y       z     vdW  Elec       q    Type
REMARK                         _______ _______ _______ _____ _____    ______ ____
ROOT
ATOM      1  C   UNL     1       1.371   9.652  19.717  0.00  0.00    +0.000 C 
ENDROOT
BRANCH   1   8
ATOM      2  C   UNL     1       2.037   1.753  18.758  0.00  0.00    +0.000 C 
ATOM      3  C   UNL     1       2.092   3.166  19.260  0.00  0.00    +0.000 A 
ATOM      4  C   UNL     1       2.083   3.473  20.628  0.00  0.00    +0.000 A 
ATOM      5  C   UNL     1       2.042   4.807  21.069  0.00  0.00    +0.000 A 
ATOM      6  C   UNL     1       2.040   5.857  20.143  0.00  0.00    +0.000 A 
ATOM      7  C   UNL     1       1.833   7.269  20.518  0.00  0.00    +0.000 A 
ATOM      8  C   UNL     1       1.904   8.247  19.586  0.00  0.00    +0.000 A 
ATOM      9  C   UNL     1       2.330   7.880  18.196  0.00  0.00    +0.000 A 
ATOM     10  O   UNL     1       2.663   8.718  17.365  0.00  0.00    +0.000 OA
ATOM     11  N   UNL     1       2.277   6.563  17.853  0.00  0.00    +0.000 N 
ATOM     12  C   UNL     1       2.134   5.535  18.784  0.00  0.00    +0.000 A 
ATOM     13  C   UNL     1       2.129   4.216  18.338  0.00  0.00    +0.000 A 
ATOM     14  H   UNL     1       2.487   6.348  16.889  0.00  0.00    +0.000 HD
ENDBRANCH   1   8
BRANCH   1  15
ATOM     15  N   UNL     1      -0.092   9.784  19.776  0.00  0.00    +0.000 N 
ATOM     16  C   UNL     1      -0.686  10.384  18.636  0.00  0.00    +0.000 C 
ATOM     17  O   UNL     1      -0.065  10.562  17.586  0.00  0.00    +0.000 OA
BRANCH  16  18
ATOM     18  C   UNL     1      -2.131  10.772  18.607  0.00  0.00    +0.000 A 
ATOM     19  C   UNL     1      -3.108  10.131  17.836  0.00  0.00    +0.000 A 
ATOM     20  C   UNL     1      -4.402  10.650  17.751  0.00  0.00    +0.000 A 
ATOM     21  C   UNL     1      -4.757  11.755  18.519  0.00  0.00    +0.000 A 
ATOM     22  C   UNL     1      -3.828  12.310  19.396  0.00  0.00    +0.000 A 
ATOM     23 CL   UNL     1      -4.298  13.610  20.420  0.00  0.00    +0.000 Cl
ATOM     24  C   UNL     1      -2.521  11.828  19.442  0.00  0.00    +0.000 A 
ENDBRANCH  16  18
BRANCH  15  25
ATOM     25  C   UNL     1      -0.793   9.714  21.073  0.00  0.00    +0.000 C 
BRANCH  25  26
ATOM     26  C   UNL     1      -0.274  10.465  22.312  0.00  0.00    +0.000 C 
ATOM     27  C   UNL     1      -1.330  11.403  22.910  0.00  0.00    +0.000 C 
ATOM     28  C   UNL     1       0.082   9.443  23.409  0.00  0.00    +0.000 C 
ENDBRANCH  25  26
ENDBRANCH  15  25
ENDBRANCH   1  15
TORSDOF 5
ENDMDL
MODEL 4
REMARK VINA RESULT:      -7.3      4.608      7.798
REMARK  Name = 
REMARK  8 active torsions:
REMARK  status: ('A' for Active; 'I' for Inactive)
REMARK    1  A    between atoms: C_1  and  C_2
REMARK    2  A    between atoms: C_7  and  C_8
REMARK    3  A    between atoms: C_8  and  N_9
REMARK    4  A    between atoms: N_9  and  C_10
REMARK    5  A    between atoms: C_10  and  C_11
REMARK    6  A    between atoms: C_11  and  C_12
REMARK    7  A    between atoms: C_11  and  C_13
REMARK    8  A    between atoms: C_14  and  C_16
REMARK                            x       y       z     vdW  Elec       q    Type
REMARK                         _______ _______ _______ _____ _____    ______ ____
ROOT
ATOM      1  C   UNL     1       1.013  11.074  20.166  0.00  0.00    +0.000 C 
ENDROOT
BRANCH   1   8
ATOM      2  C   UNL     1       4.043   3.760  19.125  0.00  0.00    +0.000 C 
ATOM      3  C   UNL     1       3.339   5.076  18.975  0.00  0.00    +0.000 A 
ATOM      4  C   UNL     1       3.174   5.697  17.728  0.00  0.00    +0.000 A 
ATOM      5  C   UNL     1       2.592   6.972  17.628  0.00  0.00    +0.000 A 
ATOM      6  C   UNL     1       2.136   7.634  18.775  0.00  0.00    +0.000 A 
ATOM      7  C   UNL     1       1.669   9.033  18.774  0.00  0.00    +0.000 A 
ATOM      8  C   UNL     1       1.182   9.598  19.902  0.00  0.00    +0.000 A 
ATOM      9  C   UNL     1       1.004   8.734  21.115  0.00  0.00    +0.000 A 
ATOM     10  O   UNL     1       0.346   9.089  22.087  0.00  0.00    +0.000 OA
ATOM     11  N   UNL     1       1.660   7.541  21.133  0.00  0.00    +0.000 N 
ATOM     12  C   UNL     1       2.233   6.964  20.001  0.00  0.00    +0.000 A 
ATOM     13  C   UNL     1       2.850   5.721  20.114  0.00  0.00    +0.000 A 
ATOM     14  H   UNL     1       1.595   7.013  21.992  0.00  0.00    +0.000 HD
ENDBRANCH   1   8
BRANCH   1  15
ATOM     15  N   UNL     1      -0.372  11.559  20.248  0.00  0.00    +0.000 N 
ATOM     16  C   UNL     1      -0.626  12.471  21.305  0.00  0.00    +0.000 C 
ATOM     17  O   UNL     1       0.281  12.999  21.952  0.00  0.00    +0.000 OA
BRANCH  16  18
ATOM     18  C   UNL     1      -2.012  12.913  21.655  0.00  0.00    +0.000 A 
ATOM     19  C   UNL     1      -2.794  13.767  20.867  0.00  0.00    +0.000 A 
ATOM     20  C   UNL     1      -4.017  14.250  21.338  0.00  0.00    +0.000 A 
ATOM     21  C   UNL     1      -4.516  13.799  22.556  0.00  0.00    +0.000 A 
ATOM     22  C   UNL     1      -3.809  12.839  23.277  0.00  0.00    +0.000 A 
ATOM     23 CL   UNL     1      -4.476  12.207  24.731  0.00  0.00    +0.000 Cl
ATOM     24  C   UNL     1      -2.563  12.397  22.836  0.00  0.00    +0.000 A 
ENDBRANCH  16  18
BRANCH  15  25
ATOM     25  C   UNL     1      -1.460  10.817  19.582  0.00  0.00    +0.000 C 
BRANCH  25  26
ATOM     26  C   UNL     1      -1.882  11.129  18.136  0.00  0.00    +0.000 C 
ATOM     27  C   UNL     1      -1.666   9.938  17.195  0.00  0.00    +0.000 C 
ATOM     28  C   UNL     1      -3.389  11.449  18.107  0.00  0.00    +0.000 C 
ENDBRANCH  25  26
ENDBRANCH  15  25
ENDBRANCH   1  15
TORSDOF 5
ENDMDL
MODEL 5
REMARK VINA RESULT:      -7.3      3.108      5.522
REMARK  Name = 
REMARK  8 active torsions:
REMARK  status: ('A' for Active; 'I' for Inactive)
REMARK    1  A    between atoms: C_1  and  C_2
REMARK    2  A    between atoms: C_7  and  C_8
REMARK    3  A    between atoms: C_8  and  N_9
REMARK    4  A    between atoms: N_9  and  C_10
REMARK    5  A    between atoms: C_10  and  C_11
REMARK    6  A    between atoms: C_11  and  C_12
REMARK    7  A    between atoms: C_11  and  C_13
REMARK    8  A    between atoms: C_14  and  C_16
REMARK                            x       y       z     vdW  Elec       q    Type
REMARK                         _______ _______ _______ _____ _____    ______ ____
ROOT
ATOM      1  C   UNL     1       1.670   7.560  20.967  0.00  0.00    +0.000 C 
ENDROOT
BRANCH   1   8
ATOM      2  C   UNL     1       6.069   3.796  15.469  0.00  0.00    +0.000 C 
ATOM      3  C   UNL     1       5.186   4.746  16.221  0.00  0.00    +0.000 A 
ATOM      4  C   UNL     1       5.148   6.118  15.933  0.00  0.00    +0.000 A 
ATOM      5  C   UNL     1       4.381   7.000  16.714  0.00  0.00    +0.000 A 
ATOM      6  C   UNL     1       3.614   6.515  17.780  0.00  0.00    +0.000 A 
ATOM      7  C   UNL     1       2.918   7.389  18.742  0.00  0.00    +0.000 A 
ATOM      8  C   UNL     1       2.140   6.861  19.716  0.00  0.00    +0.000 A 
ATOM      9  C   UNL     1       1.895   5.382  19.711  0.00  0.00    +0.000 A 
ATOM     10  O   UNL     1       1.017   4.857  20.387  0.00  0.00    +0.000 OA
ATOM     11  N   UNL     1       2.733   4.612  18.964  0.00  0.00    +0.000 N 
ATOM     12  C   UNL     1       3.598   5.133  18.002  0.00  0.00    +0.000 A 
ATOM     13  C   UNL     1       4.390   4.259  17.262  0.00  0.00    +0.000 A 
ATOM     14  H   UNL     1       2.604   3.614  19.041  0.00  0.00    +0.000 HD
ENDBRANCH   1   8
BRANCH   1  15
ATOM     15  N   UNL     1       0.965   8.834  20.768  0.00  0.00    +0.000 N 
ATOM     16  C   UNL     1       1.046   9.740  21.857  0.00  0.00    +0.000 C 
ATOM     17  O   UNL     1       1.835   9.580  22.791  0.00  0.00    +0.000 OA
BRANCH  16  18
ATOM     18  C   UNL     1       0.233  10.995  21.906  0.00  0.00    +0.000 A 
ATOM     19  C   UNL     1       0.570  12.185  21.249  0.00  0.00    +0.000 A 
ATOM     20  C   UNL     1      -0.164  13.353  21.469  0.00  0.00    +0.000 A 
ATOM     21  C   UNL     1      -1.304  13.314  22.267  0.00  0.00    +0.000 A 
ATOM     22  C   UNL     1      -1.725  12.101  22.808  0.00  0.00    +0.000 A 
ATOM     23 CL   UNL     1      -3.190  12.036  23.707  0.00  0.00    +0.000 Cl
ATOM     24  C   UNL     1      -0.965  10.946  22.634  0.00  0.00    +0.000 A 
ENDBRANCH  16  18
BRANCH  15  25
ATOM     25  C   UNL     1      -0.084   8.950  19.736  0.00  0.00    +0.000 C 
BRANCH  25  26
ATOM     26  C   UNL     1       0.158   9.713  18.422  0.00  0.00    +0.000 C 
ATOM     27  C   UNL     1      -0.896  10.798  18.176  0.00  0.00    +0.000 C 
ATOM     28  C   UNL     1       1.521  10.428  18.498  0.00  0.00    +0.000 C 
ENDBRANCH  25  26
ENDBRANCH  15  25
ENDBRANCH   1  15
TORSDOF 5
ENDMDL
MODEL 6
REMARK VINA RESULT:      -7.3      3.826      8.330
REMARK  Name = 
REMARK  8 active torsions:
REMARK  status: ('A' for Active; 'I' for Inactive)
REMARK    1  A    between atoms: C_1  and  C_2
REMARK    2  A    between atoms: C_7  and  C_8
REMARK    3  A    between atoms: C_8  and  N_9
REMARK    4  A    between atoms: N_9  and  C_10
REMARK    5  A    between atoms: C_10  and  C_11
REMARK    6  A    between atoms: C_11  and  C_12
REMARK    7  A    between atoms: C_11  and  C_13
REMARK    8  A    between atoms: C_14  and  C_16
REMARK                            x       y       z     vdW  Elec       q    Type
REMARK                         _______ _______ _______ _____ _____    ______ ____
ROOT
ATOM      1  C   UNL     1       2.935   7.408  18.765  0.00  0.00    +0.000 C 
ENDROOT
BRANCH   1   8
ATOM      2  C   UNL     1      -1.252  12.683  23.054  0.00  0.00    +0.000 C 
ATOM      3  C   UNL     1      -0.691  11.445  22.420  0.00  0.00    +0.000 A 
ATOM      4  C   UNL     1      -0.683  10.207  23.078  0.00  0.00    +0.000 A 
ATOM      5  C   UNL     1      -0.068   9.084  22.497  0.00  0.00    +0.000 A 
ATOM      6  C   UNL     1       0.524   9.178  21.231  0.00  0.00    +0.000 A 
ATOM      7  C   UNL     1       1.328   8.098  20.629  0.00  0.00    +0.000 A 
ATOM      8  C   UNL     1       1.822   8.223  19.377  0.00  0.00    +0.000 A 
ATOM      9  C   UNL     1       1.423   9.420  18.567  0.00  0.00    +0.000 A 
ATOM     10  O   UNL     1       1.612   9.491  17.357  0.00  0.00    +0.000 OA
ATOM     11  N   UNL     1       0.888  10.478  19.238  0.00  0.00    +0.000 N 
ATOM     12  C   UNL     1       0.434  10.399  20.554  0.00  0.00    +0.000 A 
ATOM     13  C   UNL     1      -0.133  11.527  21.141  0.00  0.00    +0.000 A 
ATOM     14  H   UNL     1       0.704  11.304  18.687  0.00  0.00    +0.000 HD
ENDBRANCH   1   8
BRANCH   1  15
ATOM     15  N   UNL     1       2.858   5.955  18.970  0.00  0.00    +0.000 N 
ATOM     16  C   UNL     1       4.050   5.244  18.672  0.00  0.00    +0.000 C 
ATOM     17  O   UNL     1       5.128   5.813  18.487  0.00  0.00    +0.000 OA
BRANCH  16  18
ATOM     18  C   UNL     1       4.092   3.749  18.637  0.00  0.00    +0.000 A 
ATOM     19  C   UNL     1       3.622   2.967  17.575  0.00  0.00    +0.000 A 
ATOM     20  C   UNL     1       3.562   1.576  17.687  0.00  0.00    +0.000 A 
ATOM     21  C   UNL     1       4.068   0.949  18.821  0.00  0.00    +0.000 A 
ATOM     22  C   UNL     1       4.668   1.715  19.820  0.00  0.00    +0.000 A 
ATOM     23 CL   UNL     1       5.386   0.932  21.173  0.00  0.00    +0.000 Cl
ATOM     24  C   UNL     1       4.681   3.105  19.735  0.00  0.00    +0.000 A 
ENDBRANCH  16  18
BRANCH  15  25
ATOM     25  C   UNL     1       1.546   5.282  19.038  0.00  0.00    +0.000 C 
BRANCH  25  26
ATOM     26  C   UNL     1       1.087   4.535  20.302  0.00  0.00    +0.000 C 
ATOM     27  C   UNL     1       0.865   3.039  20.046  0.00  0.00    +0.000 C 
ATOM     28  C   UNL     1       2.184   4.641  21.378  0.00  0.00    +0.000 C 
ENDBRANCH  25  26
ENDBRANCH  15  25
ENDBRANCH   1  15
TORSDOF 5
ENDMDL
MODEL 7
REMARK VINA RESULT:      -7.2      1.969      3.719
REMARK  Name = 
REMARK  8 active torsions:
REMARK  status: ('A' for Active; 'I' for Inactive)
REMARK    1  A    between atoms: C_1  and  C_2
REMARK    2  A    between atoms: C_7  and  C_8
REMARK    3  A    between atoms: C_8  and  N_9
REMARK    4  A    between atoms: N_9  and  C_10
REMARK    5  A    between atoms: C_10  and  C_11
REMARK    6  A    between atoms: C_11  and  C_12
REMARK    7  A    between atoms: C_11  and  C_13
REMARK    8  A    between atoms: C_14  and  C_16
REMARK                            x       y       z     vdW  Elec       q    Type
REMARK                         _______ _______ _______ _____ _____    ______ ____
ROOT
ATOM      1  C   UNL     1       5.084   6.896  17.366  0.00  0.00    +0.000 C 
ENDROOT
BRANCH   1   8
ATOM      2  C   UNL     1       7.568   3.153  10.766  0.00  0.00    +0.000 C 
ATOM      3  C   UNL     1       6.875   3.557  12.033  0.00  0.00    +0.000 A 
ATOM      4  C   UNL     1       5.550   3.190  12.309  0.00  0.00    +0.000 A 
ATOM      5  C   UNL     1       4.896   3.660  13.461  0.00  0.00    +0.000 A 
ATOM      6  C   UNL     1       5.571   4.482  14.371  0.00  0.00    +0.000 A 
ATOM      7  C   UNL     1       4.909   5.146  15.510  0.00  0.00    +0.000 A 
ATOM      8  C   UNL     1       5.626   5.879  16.392  0.00  0.00    +0.000 A 
ATOM      9  C   UNL     1       7.120   5.889  16.265  0.00  0.00    +0.000 A 
ATOM     10  O   UNL     1       7.855   6.309  17.153  0.00  0.00    +0.000 OA
ATOM     11  N   UNL     1       7.650   5.466  15.084  0.00  0.00    +0.000 N 
ATOM     12  C   UNL     1       6.918   4.770  14.122  0.00  0.00    +0.000 A 
ATOM     13  C   UNL     1       7.559   4.346  12.962  0.00  0.00    +0.000 A 
ATOM     14  H   UNL     1       8.650   5.560  14.988  0.00  0.00    +0.000 HD
ENDBRANCH   1   8
BRANCH   1  15
ATOM     15  N   UNL     1       3.981   6.441  18.225  0.00  0.00    +0.000 N 
ATOM     16  C   UNL     1       4.202   5.199  18.876  0.00  0.00    +0.000 C 
ATOM     17  O   UNL     1       5.311   4.662  18.912  0.00  0.00    +0.000 OA
BRANCH  16  18
ATOM     18  C   UNL     1       3.117   4.495  19.628  0.00  0.00    +0.000 A 
ATOM     19  C   UNL     1       2.872   4.652  20.998  0.00  0.00    +0.000 A 
ATOM     20  C   UNL     1       1.938   3.845  21.651  0.00  0.00    +0.000 A 
ATOM     21  C   UNL     1       1.166   2.947  20.920  0.00  0.00    +0.000 A 
ATOM     22  C   UNL     1       1.305   2.890  19.534  0.00  0.00    +0.000 A 
ATOM     23 CL   UNL     1       0.279   1.855  18.620  0.00  0.00    +0.000 Cl
ATOM     24  C   UNL     1       2.274   3.654  18.888  0.00  0.00    +0.000 A 
ENDBRANCH  16  18
BRANCH  15  25
ATOM     25  C   UNL     1       2.626   7.000  18.054  0.00  0.00    +0.000 C 
BRANCH  25  26
ATOM     26  C   UNL     1       2.216   8.335  18.699  0.00  0.00    +0.000 C 
ATOM     27  C   UNL     1       1.137   9.066  17.892  0.00  0.00    +0.000 C 
ATOM     28  C   UNL     1       1.617   8.059  20.092  0.00  0.00    +0.000 C 
ENDBRANCH  25  26
ENDBRANCH  15  25
ENDBRANCH   1  15
TORSDOF 5
ENDMDL
MODEL 8
REMARK VINA RESULT:      -7.2      1.104      1.587
REMARK  Name = 
REMARK  8 active torsions:
REMARK  status: ('A' for Active; 'I' for Inactive)
REMARK    1  A    between atoms: C_1  and  C_2
REMARK    2  A    between atoms: C_7  and  C_8
REMARK    3  A    between atoms: C_8  and  N_9
REMARK    4  A    between atoms: N_9  and  C_10
REMARK    5  A    between atoms: C_10  and  C_11
REMARK    6  A    between atoms: C_11  and  C_12
REMARK    7  A    between atoms: C_11  and  C_13
REMARK    8  A    between atoms: C_14  and  C_16
REMARK                            x       y       z     vdW  Elec       q    Type
REMARK                         _______ _______ _______ _____ _____    ______ ____
ROOT
ATOM      1  C   UNL     1       4.457   3.686  18.228  0.00  0.00    +0.000 C 
ENDROOT
BRANCH   1   8
ATOM      2  C   UNL     1       8.233   5.923  11.559  0.00  0.00    +0.000 C 
ATOM      3  C   UNL     1       7.465   5.188  12.616  0.00  0.00    +0.000 A 
ATOM      4  C   UNL     1       6.475   4.246  12.301  0.00  0.00    +0.000 A 
ATOM      5  C   UNL     1       5.707   3.640  13.310  0.00  0.00    +0.000 A 
ATOM      6  C   UNL     1       5.941   3.946  14.656  0.00  0.00    +0.000 A 
ATOM      7  C   UNL     1       5.075   3.481  15.756  0.00  0.00    +0.000 A 
ATOM      8  C   UNL     1       5.387   3.758  17.043  0.00  0.00    +0.000 A 
ATOM      9  C   UNL     1       6.697   4.426  17.332  0.00  0.00    +0.000 A 
ATOM     10  O   UNL     1       7.173   4.486  18.462  0.00  0.00    +0.000 OA
ATOM     11  N   UNL     1       7.332   5.034  16.292  0.00  0.00    +0.000 N 
ATOM     12  C   UNL     1       6.988   4.824  14.957  0.00  0.00    +0.000 A 
ATOM     13  C   UNL     1       7.722   5.463  13.962  0.00  0.00    +0.000 A 
ATOM     14  H   UNL     1       8.169   5.550  16.524  0.00  0.00    +0.000 HD
ENDBRANCH   1   8
BRANCH   1  15
ATOM     15  N   UNL     1       3.443   4.746  18.317  0.00  0.00    +0.000 N 
ATOM     16  C   UNL     1       3.745   5.790  19.230  0.00  0.00    +0.000 C 
ATOM     17  O   UNL     1       4.864   5.925  19.729  0.00  0.00    +0.000 OA
BRANCH  16  18
ATOM     18  C   UNL     1       2.745   6.842  19.590  0.00  0.00    +0.000 A 
ATOM     19  C   UNL     1       2.015   6.867  20.785  0.00  0.00    +0.000 A 
ATOM     20  C   UNL     1       0.994   7.800  20.977  0.00  0.00    +0.000 A 
ATOM     21  C   UNL     1       0.764   8.783  20.018  0.00  0.00    +0.000 A 
ATOM     22  C   UNL     1       1.582   8.850  18.892  0.00  0.00    +0.000 A 
ATOM     23 CL   UNL     1       1.364  10.126  17.760  0.00  0.00    +0.000 Cl
ATOM     24  C   UNL     1       2.566   7.888  18.673  0.00  0.00    +0.000 A 
ENDBRANCH  16  18
BRANCH  15  25
ATOM     25  C   UNL     1       2.066   4.500  17.844  0.00  0.00    +0.000 C 
BRANCH  25  26
ATOM     26  C   UNL     1       1.208   3.359  18.418  0.00  0.00    +0.000 C 
ATOM     27  C   UNL     1       1.892   1.993  18.286  0.00  0.00    +0.000 C 
ATOM     28  C   UNL     1       0.988   3.600  19.923  0.00  0.00    +0.000 C 
ENDBRANCH  25  26
ENDBRANCH  15  25
ENDBRANCH   1  15
TORSDOF 5
ENDMDL
MODEL 9
REMARK VINA RESULT:      -7.2      4.454      7.179
REMARK  Name = 
REMARK  8 active torsions:
REMARK  status: ('A' for Active; 'I' for Inactive)
REMARK    1  A    between atoms: C_1  and  C_2
REMARK    2  A    between atoms: C_7  and  C_8
REMARK    3  A    between atoms: C_8  and  N_9
REMARK    4  A    between atoms: N_9  and  C_10
REMARK    5  A    between atoms: C_10  and  C_11
REMARK    6  A    between atoms: C_11  and  C_12
REMARK    7  A    between atoms: C_11  and  C_13
REMARK    8  A    between atoms: C_14  and  C_16
REMARK                            x       y       z     vdW  Elec       q    Type
REMARK                         _______ _______ _______ _____ _____    ______ ____
ROOT
ATOM      1  C   UNL     1       1.538  10.178  19.293  0.00  0.00    +0.000 C 
ENDROOT
BRANCH   1   8
ATOM      2  C   UNL     1       4.077   2.613  19.547  0.00  0.00    +0.000 C 
ATOM      3  C   UNL     1       3.441   3.920  19.179  0.00  0.00    +0.000 A 
ATOM      4  C   UNL     1       3.237   4.301  17.845  0.00  0.00    +0.000 A 
ATOM      5  C   UNL     1       2.723   5.570  17.527  0.00  0.00    +0.000 A 
ATOM      6  C   UNL     1       2.377   6.468  18.544  0.00  0.00    +0.000 A 
ATOM      7  C   UNL     1       1.990   7.869  18.294  0.00  0.00    +0.000 A 
ATOM      8  C   UNL     1       1.606   8.671  19.313  0.00  0.00    +0.000 A 
ATOM      9  C   UNL     1       1.453   8.069  20.677  0.00  0.00    +0.000 A 
ATOM     10  O   UNL     1       0.876   8.646  21.593  0.00  0.00    +0.000 OA
ATOM     11  N   UNL     1       2.039   6.859  20.896  0.00  0.00    +0.000 N 
ATOM     12  C   UNL     1       2.509   6.040  19.870  0.00  0.00    +0.000 A 
ATOM     13  C   UNL     1       3.059   4.802  20.193  0.00  0.00    +0.000 A 
ATOM     14  H   UNL     1       1.996   6.511  21.843  0.00  0.00    +0.000 HD
ENDBRANCH   1   8
BRANCH   1  15
ATOM     15  N   UNL     1       0.264  10.771  19.724  0.00  0.00    +0.000 N 
ATOM     16  C   UNL     1       0.350  11.611  20.865  0.00  0.00    +0.000 C 
ATOM     17  O   UNL     1       1.429  12.005  21.314  0.00  0.00    +0.000 OA
BRANCH  16  18
ATOM     18  C   UNL     1      -0.869  12.139  21.554  0.00  0.00    +0.000 A 
ATOM     19  C   UNL     1      -1.441  11.569  22.699  0.00  0.00    +0.000 A 
ATOM     20  C   UNL     1      -2.663  12.034  23.191  0.00  0.00    +0.000 A 
ATOM     21  C   UNL     1      -3.270  13.140  22.604  0.00  0.00    +0.000 A 
ATOM     22  C   UNL     1      -2.633  13.798  21.554  0.00  0.00    +0.000 A 
ATOM     23 CL   UNL     1      -3.334  15.226  20.898  0.00  0.00    +0.000 Cl
ATOM     24  C   UNL     1      -1.442  13.304  21.027  0.00  0.00    +0.000 A 
ENDBRANCH  16  18
BRANCH  15  25
ATOM     25  C   UNL     1      -1.017  10.181  19.287  0.00  0.00    +0.000 C 
BRANCH  25  26
ATOM     26  C   UNL     1      -1.559  10.396  17.864  0.00  0.00    +0.000 C 
ATOM     27  C   UNL     1      -2.903   9.693  17.640  0.00  0.00    +0.000 C 
ATOM     28  C   UNL     1      -1.804  11.901  17.638  0.00  0.00    +0.000 C 
ENDBRANCH  25  26
ENDBRANCH  15  25
ENDBRANCH   1  15
TORSDOF 5
ENDMDL
