MODEL 1
REMARK VINA RESULT:      -2.3      0.000      0.000
REMARK  Name = 
REMARK  0 active torsions:
REMARK  status: ('A' for Active; 'I' for Inactive)
REMARK                            x       y       z     vdW  Elec       q    Type
REMARK                         _______ _______ _______ _____ _____    ______ ____
ROOT
ATOM      1  O   UNL     1       6.656   0.586  22.618  0.00  0.00    +0.000 OA
ATOM      2  S   UNL     1       6.684  -0.950  22.297  0.00  0.00    +0.000 S 
ATOM      3  O   UNL     1       8.126  -1.486  21.988  0.00  0.00    +0.000 OA
ENDROOT
TORSDOF 0
ENDMDL
MODEL 2
REMARK VINA RESULT:      -2.3      7.077      7.289
REMARK  Name = 
REMARK  0 active torsions:
REMARK  status: ('A' for Active; 'I' for Inactive)
REMARK                            x       y       z     vdW  Elec       q    Type
REMARK                         _______ _______ _______ _____ _____    ______ ____
ROOT
ATOM      1  O   UNL     1       8.058   3.745  27.113  0.00  0.00    +0.000 OA
ATOM      2  S   UNL     1       9.383   4.411  27.630  0.00  0.00    +0.000 S 
ATOM      3  O   UNL     1      10.581   3.401  27.721  0.00  0.00    +0.000 OA
ENDROOT
TORSDOF 0
ENDMDL
MODEL 3
REMARK VINA RESULT:      -2.3      8.128      8.419
REMARK  Name = 
REMARK  0 active torsions:
REMARK  status: ('A' for Active; 'I' for Inactive)
REMARK                            x       y       z     vdW  Elec       q    Type
REMARK                         _______ _______ _______ _____ _____    ______ ____
ROOT
ATOM      1  O   UNL     1       8.082   4.230  17.173  0.00  0.00    +0.000 OA
ATOM      2  S   UNL     1       6.974   4.685  16.159  0.00  0.00    +0.000 S 
ATOM      3  O   UNL     1       7.560   5.411  14.897  0.00  0.00    +0.000 OA
ENDROOT
TORSDOF 0
ENDMDL
MODEL 4
REMARK VINA RESULT:      -2.3      8.546      8.770
REMARK  Name = 
REMARK  0 active torsions:
REMARK  status: ('A' for Active; 'I' for Inactive)
REMARK                            x       y       z     vdW  Elec       q    Type
REMARK                         _______ _______ _______ _____ _____    ______ ____
ROOT
ATOM      1  O   UNL     1       7.631   5.446  14.407  0.00  0.00    +0.000 OA
ATOM      2  S   UNL     1       6.929   4.732  15.616  0.00  0.00    +0.000 S 
ATOM      3  O   UNL     1       7.915   4.409  16.793  0.00  0.00    +0.000 OA
ENDROOT
TORSDOF 0
ENDMDL
MODEL 5
REMARK VINA RESULT:      -2.3      6.964      7.362
REMARK  Name = 
REMARK  0 active torsions:
REMARK  status: ('A' for Active; 'I' for Inactive)
REMARK                            x       y       z     vdW  Elec       q    Type
REMARK                         _______ _______ _______ _____ _____    ______ ____
ROOT
ATOM      1  O   UNL     1      10.460   3.539  27.574  0.00  0.00    +0.000 OA
ATOM      2  S   UNL     1       9.157   4.414  27.576  0.00  0.00    +0.000 S 
ATOM      3  O   UNL     1       7.894   3.633  27.070  0.00  0.00    +0.000 OA
ENDROOT
TORSDOF 0
ENDMDL
MODEL 6
REMARK VINA RESULT:      -2.2      1.146      2.285
REMARK  Name = 
REMARK  0 active torsions:
REMARK  status: ('A' for Active; 'I' for Inactive)
REMARK                            x       y       z     vdW  Elec       q    Type
REMARK                         _______ _______ _______ _____ _____    ______ ____
ROOT
ATOM      1  O   UNL     1       6.520  -1.619  20.962  0.00  0.00    +0.000 OA
ATOM      2  S   UNL     1       6.657  -0.877  22.338  0.00  0.00    +0.000 S 
ATOM      3  O   UNL     1       6.276   0.643  22.256  0.00  0.00    +0.000 OA
ENDROOT
TORSDOF 0
ENDMDL
MODEL 7
REMARK VINA RESULT:      -2.2      7.545      7.837
REMARK  Name = 
REMARK  0 active torsions:
REMARK  status: ('A' for Active; 'I' for Inactive)
REMARK                            x       y       z     vdW  Elec       q    Type
REMARK                         _______ _______ _______ _____ _____    ______ ____
ROOT
ATOM      1  O   UNL     1       7.478   6.045  16.132  0.00  0.00    +0.000 OA
ATOM      2  S   UNL     1       7.087   4.689  16.819  0.00  0.00    +0.000 S 
ATOM      3  O   UNL     1       7.889   4.418  18.141  0.00  0.00    +0.000 OA
ENDROOT
TORSDOF 0
ENDMDL
MODEL 8
REMARK VINA RESULT:      -2.2      6.754      6.956
REMARK  Name = 
REMARK  0 active torsions:
REMARK  status: ('A' for Active; 'I' for Inactive)
REMARK                            x       y       z     vdW  Elec       q    Type
REMARK                         _______ _______ _______ _____ _____    ______ ____
ROOT
ATOM      1  O   UNL     1       7.897   4.377  17.943  0.00  0.00    +0.000 OA
ATOM      2  S   UNL     1       7.581   5.663  18.786  0.00  0.00    +0.000 S 
ATOM      3  O   UNL     1       7.636   5.410  20.334  0.00  0.00    +0.000 OA
ENDROOT
TORSDOF 0
ENDMDL
MODEL 9
REMARK VINA RESULT:      -2.2      6.747      6.754
REMARK  Name = 
REMARK  0 active torsions:
REMARK  status: ('A' for Active; 'I' for Inactive)
REMARK                            x       y       z     vdW  Elec       q    Type
REMARK                         _______ _______ _______ _____ _____    ______ ____
ROOT
ATOM      1  O   UNL     1       7.629   5.403  20.332  0.00  0.00    +0.000 OA
ATOM      2  S   UNL     1       7.570   5.653  18.783  0.00  0.00    +0.000 S 
ATOM      3  O   UNL     1       7.911   4.372  17.943  0.00  0.00    +0.000 OA
ENDROOT
TORSDOF 0
ENDMDL
