MODEL 1
REMARK VINA RESULT:      -7.4      0.000      0.000
REMARK  Name = 
REMARK  10 active torsions:
REMARK  status: ('A' for Active; 'I' for Inactive)
REMARK    1  A    between atoms: C_1  and  C_2
REMARK    2  A    between atoms: C_4  and  O_5
REMARK    3  A    between atoms: O_5  and  C_6
REMARK    4  A    between atoms: C_6  and  C_7
REMARK    5  A    between atoms: C_6  and  C_8
REMARK    6  A    between atoms: N_10  and  C_11
REMARK    7  A    between atoms: C_11  and  C_12
REMARK    8  A    between atoms: C_12  and  C_13
REMARK    9  A    between atoms: C_13  and  N_14
REMARK   10  A    between atoms: C_20  and  C_21
REMARK                            x       y       z     vdW  Elec       q    Type
REMARK                         _______ _______ _______ _____ _____    ______ ____
ROOT
ATOM      1  O   UNL     1       4.755   5.315  16.417  0.00  0.00    +0.000 OA
ENDROOT
BRANCH   1   5
ATOM      2  C   UNL     1       3.709   1.111  18.815  0.00  0.00    +0.000 C 
ATOM      3  C   UNL     1       3.594   2.598  18.652  0.00  0.00    +0.000 A 
ATOM      4  C   UNL     1       4.249   3.270  17.614  0.00  0.00    +0.000 A 
ATOM      5  C   UNL     1       4.113   4.663  17.435  0.00  0.00    +0.000 A 
ATOM      6  C   UNL     1       3.352   5.434  18.343  0.00  0.00    +0.000 A 
ATOM      7  C   UNL     1       3.143   6.905  18.315  0.00  0.00    +0.000 A 
ATOM      8  C   UNL     1       3.718   7.847  17.294  0.00  0.00    +0.000 C 
ATOM      9  C   UNL     1       2.380   7.461  19.271  0.00  0.00    +0.000 A 
ATOM     10  C   UNL     1       1.731   6.720  20.354  0.00  0.00    +0.000 A 
ATOM     11  O   UNL     1       1.056   7.297  21.197  0.00  0.00    +0.000 OA
ATOM     12  O   UNL     1       1.926   5.356  20.360  0.00  0.00    +0.000 OA
ATOM     13  C   UNL     1       2.722   4.725  19.380  0.00  0.00    +0.000 A 
ATOM     14  C   UNL     1       2.824   3.339  19.539  0.00  0.00    +0.000 A 
ENDBRANCH   1   5
BRANCH   1  15
ATOM     15  C   UNL     1       6.076   4.893  16.055  0.00  0.00    +0.000 C 
ATOM     16  C   UNL     1       6.374   5.473  14.675  0.00  0.00    +0.000 C 
BRANCH  15  17
ATOM     17  C   UNL     1       7.111   5.441  17.046  0.00  0.00    +0.000 C 
ATOM     18  O   UNL     1       7.942   4.725  17.594  0.00  0.00    +0.000 OA
ATOM     19  N   UNL     1       7.049   6.808  17.226  0.00  0.00    +0.000 N 
ATOM     20  H   UNL     1       6.297   7.308  16.761  0.00  0.00    +0.000 HD
BRANCH  19  21
ATOM     21  C   UNL     1       7.940   7.512  18.118  0.00  0.00    +0.000 C 
BRANCH  21  22
ATOM     22  C   UNL     1       8.195   8.933  17.633  0.00  0.00    +0.000 C 
BRANCH  22  23
ATOM     23  C   UNL     1       8.823   9.776  18.736  0.00  0.00    +0.000 C 
BRANCH  23  24
ATOM     24  N   UNL     1       9.368  11.019  18.231  0.00  0.00    +0.000 N 
ATOM     25  C   UNL     1      10.650  11.227  17.807  0.00  0.00    +0.000 A 
ATOM     26  C   UNL     1      10.676  12.540  17.396  0.00  0.00    +0.000 A 
ATOM     27  N   UNL     1       9.448  13.125  17.561  0.00  0.00    +0.000 NA
ATOM     28  C   UNL     1       8.680  12.186  18.063  0.00  0.00    +0.000 A 
ENDBRANCH  23  24
ENDBRANCH  22  23
ENDBRANCH  21  22
ENDBRANCH  19  21
ENDBRANCH  15  17
ENDBRANCH   1  15
TORSDOF 7
ENDMDL
MODEL 2
REMARK VINA RESULT:      -7.3      4.680      7.747
REMARK  Name = 
REMARK  10 active torsions:
REMARK  status: ('A' for Active; 'I' for Inactive)
REMARK    1  A    between atoms: C_1  and  C_2
REMARK    2  A    between atoms: C_4  and  O_5
REMARK    3  A    between atoms: O_5  and  C_6
REMARK    4  A    between atoms: C_6  and  C_7
REMARK    5  A    between atoms: C_6  and  C_8
REMARK    6  A    between atoms: N_10  and  C_11
REMARK    7  A    between atoms: C_11  and  C_12
REMARK    8  A    between atoms: C_12  and  C_13
REMARK    9  A    between atoms: C_13  and  N_14
REMARK   10  A    between atoms: C_20  and  C_21
REMARK                            x       y       z     vdW  Elec       q    Type
REMARK                         _______ _______ _______ _____ _____    ______ ____
ROOT
ATOM      1  O   UNL     1       3.025   6.870  18.907  0.00  0.00    +0.000 OA
ENDROOT
BRANCH   1   5
ATOM      2  C   UNL     1       0.868   2.415  18.783  0.00  0.00    +0.000 C 
ATOM      3  C   UNL     1       1.915   3.384  18.322  0.00  0.00    +0.000 A 
ATOM      4  C   UNL     1       1.969   4.691  18.819  0.00  0.00    +0.000 A 
ATOM      5  C   UNL     1       2.976   5.593  18.416  0.00  0.00    +0.000 A 
ATOM      6  C   UNL     1       3.931   5.218  17.443  0.00  0.00    +0.000 A 
ATOM      7  C   UNL     1       5.024   6.058  16.889  0.00  0.00    +0.000 A 
ATOM      8  C   UNL     1       5.308   7.483  17.273  0.00  0.00    +0.000 C 
ATOM      9  C   UNL     1       5.839   5.520  15.965  0.00  0.00    +0.000 A 
ATOM     10  C   UNL     1       5.730   4.152  15.456  0.00  0.00    +0.000 A 
ATOM     11  O   UNL     1       6.505   3.732  14.605  0.00  0.00    +0.000 OA
ATOM     12  O   UNL     1       4.719   3.383  15.988  0.00  0.00    +0.000 OA
ATOM     13  C   UNL     1       3.834   3.903  16.957  0.00  0.00    +0.000 A 
ATOM     14  C   UNL     1       2.861   2.993  17.383  0.00  0.00    +0.000 A 
ENDBRANCH   1   5
BRANCH   1  15
ATOM     15  C   UNL     1       1.794   7.541  19.202  0.00  0.00    +0.000 C 
ATOM     16  C   UNL     1       1.758   7.779  20.709  0.00  0.00    +0.000 C 
BRANCH  15  17
ATOM     17  C   UNL     1       1.733   8.900  18.494  0.00  0.00    +0.000 C 
ATOM     18  O   UNL     1       2.211   9.085  17.379  0.00  0.00    +0.000 OA
ATOM     19  N   UNL     1       1.059   9.875  19.201  0.00  0.00    +0.000 N 
ATOM     20  H   UNL     1       0.738   9.638  20.135  0.00  0.00    +0.000 HD
BRANCH  19  21
ATOM     21  C   UNL     1       0.894  11.220  18.702  0.00  0.00    +0.000 C 
BRANCH  21  22
ATOM     22  C   UNL     1      -0.571  11.637  18.717  0.00  0.00    +0.000 C 
BRANCH  22  23
ATOM     23  C   UNL     1      -1.477  10.437  18.469  0.00  0.00    +0.000 C 
BRANCH  23  24
ATOM     24  N   UNL     1      -2.477  10.708  17.457  0.00  0.00    +0.000 N 
ATOM     25  C   UNL     1      -2.458  10.267  16.164  0.00  0.00    +0.000 A 
ATOM     26  C   UNL     1      -3.622  10.751  15.611  0.00  0.00    +0.000 A 
ATOM     27  N   UNL     1      -4.338  11.468  16.534  0.00  0.00    +0.000 NA
ATOM     28  C   UNL     1      -3.625  11.423  17.637  0.00  0.00    +0.000 A 
ENDBRANCH  23  24
ENDBRANCH  22  23
ENDBRANCH  21  22
ENDBRANCH  19  21
ENDBRANCH  15  17
ENDBRANCH   1  15
TORSDOF 7
ENDMDL
MODEL 3
REMARK VINA RESULT:      -7.2      1.611      3.247
REMARK  Name = 
REMARK  10 active torsions:
REMARK  status: ('A' for Active; 'I' for Inactive)
REMARK    1  A    between atoms: C_1  and  C_2
REMARK    2  A    between atoms: C_4  and  O_5
REMARK    3  A    between atoms: O_5  and  C_6
REMARK    4  A    between atoms: C_6  and  C_7
REMARK    5  A    between atoms: C_6  and  C_8
REMARK    6  A    between atoms: N_10  and  C_11
REMARK    7  A    between atoms: C_11  and  C_12
REMARK    8  A    between atoms: C_12  and  C_13
REMARK    9  A    between atoms: C_13  and  N_14
REMARK   10  A    between atoms: C_20  and  C_21
REMARK                            x       y       z     vdW  Elec       q    Type
REMARK                         _______ _______ _______ _____ _____    ______ ____
ROOT
ATOM      1  O   UNL     1       5.233   4.824  17.715  0.00  0.00    +0.000 OA
ENDROOT
BRANCH   1   5
ATOM      2  C   UNL     1       2.056   8.589  18.217  0.00  0.00    +0.000 C 
ATOM      3  C   UNL     1       2.547   7.221  18.590  0.00  0.00    +0.000 A 
ATOM      4  C   UNL     1       3.658   6.649  17.960  0.00  0.00    +0.000 A 
ATOM      5  C   UNL     1       4.145   5.378  18.334  0.00  0.00    +0.000 A 
ATOM      6  C   UNL     1       3.483   4.616  19.323  0.00  0.00    +0.000 A 
ATOM      7  C   UNL     1       3.846   3.257  19.800  0.00  0.00    +0.000 A 
ATOM      8  C   UNL     1       5.004   2.439  19.301  0.00  0.00    +0.000 C 
ATOM      9  C   UNL     1       3.090   2.691  20.756  0.00  0.00    +0.000 A 
ATOM     10  C   UNL     1       1.920   3.319  21.372  0.00  0.00    +0.000 A 
ATOM     11  O   UNL     1       1.272   2.738  22.234  0.00  0.00    +0.000 OA
ATOM     12  O   UNL     1       1.603   4.584  20.927  0.00  0.00    +0.000 OA
ATOM     13  C   UNL     1       2.363   5.219  19.921  0.00  0.00    +0.000 A 
ATOM     14  C   UNL     1       1.900   6.494  19.580  0.00  0.00    +0.000 A 
ENDBRANCH   1   5
BRANCH   1  15
ATOM     15  C   UNL     1       6.540   5.294  18.069  0.00  0.00    +0.000 C 
ATOM     16  C   UNL     1       7.542   4.247  17.593  0.00  0.00    +0.000 C 
BRANCH  15  17
ATOM     17  C   UNL     1       6.850   6.620  17.363  0.00  0.00    +0.000 C 
ATOM     18  O   UNL     1       6.443   6.877  16.235  0.00  0.00    +0.000 OA
ATOM     19  N   UNL     1       7.583   7.506  18.125  0.00  0.00    +0.000 N 
ATOM     20  H   UNL     1       7.912   7.184  19.032  0.00  0.00    +0.000 HD
BRANCH  19  21
ATOM     21  C   UNL     1       7.975   8.808  17.638  0.00  0.00    +0.000 C 
BRANCH  21  22
ATOM     22  C   UNL     1       8.857   9.531  18.647  0.00  0.00    +0.000 C 
BRANCH  22  23
ATOM     23  C   UNL     1       9.146  10.956  18.188  0.00  0.00    +0.000 C 
BRANCH  23  24
ATOM     24  N   UNL     1      10.294  11.525  18.862  0.00  0.00    +0.000 N 
ATOM     25  C   UNL     1      11.510  11.792  18.300  0.00  0.00    +0.000 A 
ATOM     26  C   UNL     1      12.254  12.346  19.317  0.00  0.00    +0.000 A 
ATOM     27  N   UNL     1      11.519  12.420  20.472  0.00  0.00    +0.000 NA
ATOM     28  C   UNL     1      10.342  11.920  20.167  0.00  0.00    +0.000 A 
ENDBRANCH  23  24
ENDBRANCH  22  23
ENDBRANCH  21  22
ENDBRANCH  19  21
ENDBRANCH  15  17
ENDBRANCH   1  15
TORSDOF 7
ENDMDL
MODEL 4
REMARK VINA RESULT:      -7.1      3.425      6.342
REMARK  Name = 
REMARK  10 active torsions:
REMARK  status: ('A' for Active; 'I' for Inactive)
REMARK    1  A    between atoms: C_1  and  C_2
REMARK    2  A    between atoms: C_4  and  O_5
REMARK    3  A    between atoms: O_5  and  C_6
REMARK    4  A    between atoms: C_6  and  C_7
REMARK    5  A    between atoms: C_6  and  C_8
REMARK    6  A    between atoms: N_10  and  C_11
REMARK    7  A    between atoms: C_11  and  C_12
REMARK    8  A    between atoms: C_12  and  C_13
REMARK    9  A    between atoms: C_13  and  N_14
REMARK   10  A    between atoms: C_20  and  C_21
REMARK                            x       y       z     vdW  Elec       q    Type
REMARK                         _______ _______ _______ _____ _____    ______ ____
ROOT
ATOM      1  O   UNL     1       4.606   3.171  17.722  0.00  0.00    +0.000 OA
ENDROOT
BRANCH   1   5
ATOM      2  C   UNL     1       5.916   3.601  12.966  0.00  0.00    +0.000 C 
ATOM      3  C   UNL     1       5.960   4.066  14.392  0.00  0.00    +0.000 A 
ATOM      4  C   UNL     1       5.241   3.408  15.396  0.00  0.00    +0.000 A 
ATOM      5  C   UNL     1       5.311   3.819  16.744  0.00  0.00    +0.000 A 
ATOM      6  C   UNL     1       6.069   4.954  17.112  0.00  0.00    +0.000 A 
ATOM      7  C   UNL     1       6.214   5.533  18.472  0.00  0.00    +0.000 A 
ATOM      8  C   UNL     1       5.564   5.002  19.719  0.00  0.00    +0.000 C 
ATOM      9  C   UNL     1       6.986   6.623  18.625  0.00  0.00    +0.000 A 
ATOM     10  C   UNL     1       7.703   7.293  17.539  0.00  0.00    +0.000 A 
ATOM     11  O   UNL     1       8.382   8.290  17.752  0.00  0.00    +0.000 OA
ATOM     12  O   UNL     1       7.567   6.738  16.286  0.00  0.00    +0.000 OA
ATOM     13  C   UNL     1       6.765   5.596  16.073  0.00  0.00    +0.000 A 
ATOM     14  C   UNL     1       6.729   5.169  14.742  0.00  0.00    +0.000 A 
ENDBRANCH   1   5
BRANCH   1  15
ATOM     15  C   UNL     1       3.215   2.903  17.505  0.00  0.00    +0.000 C 
ATOM     16  C   UNL     1       2.884   1.609  18.244  0.00  0.00    +0.000 C 
BRANCH  15  17
ATOM     17  C   UNL     1       2.349   4.029  18.084  0.00  0.00    +0.000 C 
ATOM     18  O   UNL     1       1.766   4.842  17.375  0.00  0.00    +0.000 OA
ATOM     19  N   UNL     1       2.253   4.014  19.460  0.00  0.00    +0.000 N 
ATOM     20  H   UNL     1       2.808   3.328  19.962  0.00  0.00    +0.000 HD
BRANCH  19  21
ATOM     21  C   UNL     1       1.482   4.992  20.193  0.00  0.00    +0.000 C 
BRANCH  21  22
ATOM     22  C   UNL     1       2.349   6.167  20.623  0.00  0.00    +0.000 C 
BRANCH  22  23
ATOM     23  C   UNL     1       1.511   7.432  20.768  0.00  0.00    +0.000 C 
BRANCH  23  24
ATOM     24  N   UNL     1       1.599   8.283  19.600  0.00  0.00    +0.000 N 
ATOM     25  C   UNL     1       0.964   9.480  19.422  0.00  0.00    +0.000 A 
ATOM     26  C   UNL     1       1.378   9.917  18.185  0.00  0.00    +0.000 A 
ATOM     27  N   UNL     1       2.243   9.019  17.616  0.00  0.00    +0.000 NA
ATOM     28  C   UNL     1       2.359   8.046  18.491  0.00  0.00    +0.000 A 
ENDBRANCH  23  24
ENDBRANCH  22  23
ENDBRANCH  21  22
ENDBRANCH  19  21
ENDBRANCH  15  17
ENDBRANCH   1  15
TORSDOF 7
ENDMDL
MODEL 5
REMARK VINA RESULT:      -7.1      3.413      6.205
REMARK  Name = 
REMARK  10 active torsions:
REMARK  status: ('A' for Active; 'I' for Inactive)
REMARK    1  A    between atoms: C_1  and  C_2
REMARK    2  A    between atoms: C_4  and  O_5
REMARK    3  A    between atoms: O_5  and  C_6
REMARK    4  A    between atoms: C_6  and  C_7
REMARK    5  A    between atoms: C_6  and  C_8
REMARK    6  A    between atoms: N_10  and  C_11
REMARK    7  A    between atoms: C_11  and  C_12
REMARK    8  A    between atoms: C_12  and  C_13
REMARK    9  A    between atoms: C_13  and  N_14
REMARK   10  A    between atoms: C_20  and  C_21
REMARK                            x       y       z     vdW  Elec       q    Type
REMARK                         _______ _______ _______ _____ _____    ______ ____
ROOT
ATOM      1  O   UNL     1       4.400   3.241  17.497  0.00  0.00    +0.000 OA
ENDROOT
BRANCH   1   5
ATOM      2  C   UNL     1       6.070   3.608  12.850  0.00  0.00    +0.000 C 
ATOM      3  C   UNL     1       6.034   4.070  14.277  0.00  0.00    +0.000 A 
ATOM      4  C   UNL     1       5.213   3.448  15.223  0.00  0.00    +0.000 A 
ATOM      5  C   UNL     1       5.204   3.855  16.574  0.00  0.00    +0.000 A 
ATOM      6  C   UNL     1       5.988   4.952  17.000  0.00  0.00    +0.000 A 
ATOM      7  C   UNL     1       6.061   5.523  18.370  0.00  0.00    +0.000 A 
ATOM      8  C   UNL     1       5.297   5.024  19.564  0.00  0.00    +0.000 C 
ATOM      9  C   UNL     1       6.871   6.575  18.582  0.00  0.00    +0.000 A 
ATOM     10  C   UNL     1       7.697   7.209  17.553  0.00  0.00    +0.000 A 
ATOM     11  O   UNL     1       8.406   8.172  17.818  0.00  0.00    +0.000 OA
ATOM     12  O   UNL     1       7.626   6.661  16.292  0.00  0.00    +0.000 OA
ATOM     13  C   UNL     1       6.788   5.559  16.017  0.00  0.00    +0.000 A 
ATOM     14  C   UNL     1       6.827   5.134  14.685  0.00  0.00    +0.000 A 
ENDBRANCH   1   5
BRANCH   1  15
ATOM     15  C   UNL     1       2.978   3.338  17.342  0.00  0.00    +0.000 C 
ATOM     16  C   UNL     1       2.390   1.980  17.713  0.00  0.00    +0.000 C 
BRANCH  15  17
ATOM     17  C   UNL     1       2.400   4.395  18.292  0.00  0.00    +0.000 C 
ATOM     18  O   UNL     1       1.897   4.105  19.373  0.00  0.00    +0.000 OA
ATOM     19  N   UNL     1       2.537   5.692  17.842  0.00  0.00    +0.000 N 
ATOM     20  H   UNL     1       2.927   5.827  16.914  0.00  0.00    +0.000 HD
BRANCH  19  21
ATOM     21  C   UNL     1       2.058   6.827  18.595  0.00  0.00    +0.000 C 
BRANCH  21  22
ATOM     22  C   UNL     1       2.612   8.131  18.037  0.00  0.00    +0.000 C 
BRANCH  22  23
ATOM     23  C   UNL     1       1.484   9.100  17.704  0.00  0.00    +0.000 C 
BRANCH  23  24
ATOM     24  N   UNL     1       1.299  10.100  18.734  0.00  0.00    +0.000 N 
ATOM     25  C   UNL     1       0.725   9.902  19.958  0.00  0.00    +0.000 A 
ATOM     26  C   UNL     1       0.805  11.125  20.585  0.00  0.00    +0.000 A 
ATOM     27  N   UNL     1       1.410  12.049  19.774  0.00  0.00    +0.000 NA
ATOM     28  C   UNL     1       1.699  11.403  18.667  0.00  0.00    +0.000 A 
ENDBRANCH  23  24
ENDBRANCH  22  23
ENDBRANCH  21  22
ENDBRANCH  19  21
ENDBRANCH  15  17
ENDBRANCH   1  15
TORSDOF 7
ENDMDL
MODEL 6
REMARK VINA RESULT:      -7.1      1.090      1.382
REMARK  Name = 
REMARK  10 active torsions:
REMARK  status: ('A' for Active; 'I' for Inactive)
REMARK    1  A    between atoms: C_1  and  C_2
REMARK    2  A    between atoms: C_4  and  O_5
REMARK    3  A    between atoms: O_5  and  C_6
REMARK    4  A    between atoms: C_6  and  C_7
REMARK    5  A    between atoms: C_6  and  C_8
REMARK    6  A    between atoms: N_10  and  C_11
REMARK    7  A    between atoms: C_11  and  C_12
REMARK    8  A    between atoms: C_12  and  C_13
REMARK    9  A    between atoms: C_13  and  N_14
REMARK   10  A    between atoms: C_20  and  C_21
REMARK                            x       y       z     vdW  Elec       q    Type
REMARK                         _______ _______ _______ _____ _____    ______ ____
ROOT
ATOM      1  O   UNL     1       4.273   6.272  17.266  0.00  0.00    +0.000 OA
ENDROOT
BRANCH   1   5
ATOM      2  C   UNL     1       3.686   2.413  20.312  0.00  0.00    +0.000 C 
ATOM      3  C   UNL     1       3.379   3.821  19.896  0.00  0.00    +0.000 A 
ATOM      4  C   UNL     1       3.989   4.400  18.778  0.00  0.00    +0.000 A 
ATOM      5  C   UNL     1       3.674   5.711  18.362  0.00  0.00    +0.000 A 
ATOM      6  C   UNL     1       2.770   6.505  19.105  0.00  0.00    +0.000 A 
ATOM      7  C   UNL     1       2.365   7.905  18.822  0.00  0.00    +0.000 A 
ATOM      8  C   UNL     1       2.858   8.740  17.673  0.00  0.00    +0.000 C 
ATOM      9  C   UNL     1       1.485   8.497  19.649  0.00  0.00    +0.000 A 
ATOM     10  C   UNL     1       0.889   7.858  20.823  0.00  0.00    +0.000 A 
ATOM     11  O   UNL     1       0.100   8.463  21.538  0.00  0.00    +0.000 OA
ATOM     12  O   UNL     1       1.267   6.556  21.065  0.00  0.00    +0.000 OA
ATOM     13  C   UNL     1       2.190   5.892  20.230  0.00  0.00    +0.000 A 
ATOM     14  C   UNL     1       2.471   4.580  20.623  0.00  0.00    +0.000 A 
ENDBRANCH   1   5
BRANCH   1  15
ATOM     15  C   UNL     1       5.290   5.529  16.582  0.00  0.00    +0.000 C 
ATOM     16  C   UNL     1       5.238   5.939  15.113  0.00  0.00    +0.000 C 
BRANCH  15  17
ATOM     17  C   UNL     1       6.678   5.874  17.134  0.00  0.00    +0.000 C 
ATOM     18  O   UNL     1       7.604   5.069  17.142  0.00  0.00    +0.000 OA
ATOM     19  N   UNL     1       6.801   7.176  17.576  0.00  0.00    +0.000 N 
ATOM     20  H   UNL     1       5.965   7.753  17.570  0.00  0.00    +0.000 HD
BRANCH  19  21
ATOM     21  C   UNL     1       8.031   7.693  18.130  0.00  0.00    +0.000 C 
BRANCH  21  22
ATOM     22  C   UNL     1       8.096   9.209  18.004  0.00  0.00    +0.000 C 
BRANCH  22  23
ATOM     23  C   UNL     1       9.198   9.778  18.890  0.00  0.00    +0.000 C 
BRANCH  23  24
ATOM     24  N   UNL     1       9.640  11.082  18.443  0.00  0.00    +0.000 N 
ATOM     25  C   UNL     1       8.876  12.022  17.811  0.00  0.00    +0.000 A 
ATOM     26  C   UNL     1       9.721  13.090  17.617  0.00  0.00    +0.000 A 
ATOM     27  N   UNL     1      10.969  12.820  18.116  0.00  0.00    +0.000 NA
ATOM     28  C   UNL     1      10.890  11.605  18.609  0.00  0.00    +0.000 A 
ENDBRANCH  23  24
ENDBRANCH  22  23
ENDBRANCH  21  22
ENDBRANCH  19  21
ENDBRANCH  15  17
ENDBRANCH   1  15
TORSDOF 7
ENDMDL
MODEL 7
REMARK VINA RESULT:      -7.1      5.196      8.807
REMARK  Name = 
REMARK  10 active torsions:
REMARK  status: ('A' for Active; 'I' for Inactive)
REMARK    1  A    between atoms: C_1  and  C_2
REMARK    2  A    between atoms: C_4  and  O_5
REMARK    3  A    between atoms: O_5  and  C_6
REMARK    4  A    between atoms: C_6  and  C_7
REMARK    5  A    between atoms: C_6  and  C_8
REMARK    6  A    between atoms: N_10  and  C_11
REMARK    7  A    between atoms: C_11  and  C_12
REMARK    8  A    between atoms: C_12  and  C_13
REMARK    9  A    between atoms: C_13  and  N_14
REMARK   10  A    between atoms: C_20  and  C_21
REMARK                            x       y       z     vdW  Elec       q    Type
REMARK                         _______ _______ _______ _____ _____    ______ ____
ROOT
ATOM      1  O   UNL     1       0.236   9.920  19.086  0.00  0.00    +0.000 OA
ENDROOT
BRANCH   1   5
ATOM      2  C   UNL     1      -3.051   9.850  15.383  0.00  0.00    +0.000 C 
ATOM      3  C   UNL     1      -2.600  10.317  16.735  0.00  0.00    +0.000 A 
ATOM      4  C   UNL     1      -1.393   9.882  17.292  0.00  0.00    +0.000 A 
ATOM      5  C   UNL     1      -0.948  10.349  18.547  0.00  0.00    +0.000 A 
ATOM      6  C   UNL     1      -1.745  11.232  19.311  0.00  0.00    +0.000 A 
ATOM      7  C   UNL     1      -1.438  11.781  20.656  0.00  0.00    +0.000 A 
ATOM      8  C   UNL     1      -0.200  11.487  21.456  0.00  0.00    +0.000 C 
ATOM      9  C   UNL     1      -2.327  12.614  21.226  0.00  0.00    +0.000 A 
ATOM     10  C   UNL     1      -3.592  13.025  20.614  0.00  0.00    +0.000 A 
ATOM     11  O   UNL     1      -4.358  13.781  21.198  0.00  0.00    +0.000 OA
ATOM     12  O   UNL     1      -3.856  12.515  19.363  0.00  0.00    +0.000 OA
ATOM     13  C   UNL     1      -2.958  11.634  18.724  0.00  0.00    +0.000 A 
ATOM     14  C   UNL     1      -3.384  11.203  17.464  0.00  0.00    +0.000 A 
ENDBRANCH   1   5
BRANCH   1  15
ATOM     15  C   UNL     1       1.238   9.389  18.210  0.00  0.00    +0.000 C 
ATOM     16  C   UNL     1       2.247  10.503  17.950  0.00  0.00    +0.000 C 
BRANCH  15  17
ATOM     17  C   UNL     1       1.969   8.215  18.873  0.00  0.00    +0.000 C 
ATOM     18  O   UNL     1       1.814   7.924  20.055  0.00  0.00    +0.000 OA
ATOM     19  N   UNL     1       2.775   7.496  18.014  0.00  0.00    +0.000 N 
ATOM     20  H   UNL     1       2.872   7.842  17.064  0.00  0.00    +0.000 HD
BRANCH  19  21
ATOM     21  C   UNL     1       3.545   6.354  18.447  0.00  0.00    +0.000 C 
BRANCH  21  22
ATOM     22  C   UNL     1       3.204   5.116  17.629  0.00  0.00    +0.000 C 
BRANCH  22  23
ATOM     23  C   UNL     1       1.897   4.495  18.107  0.00  0.00    +0.000 C 
BRANCH  23  24
ATOM     24  N   UNL     1       2.027   3.885  19.414  0.00  0.00    +0.000 N 
ATOM     25  C   UNL     1       2.959   2.956  19.782  0.00  0.00    +0.000 A 
ATOM     26  C   UNL     1       2.701   2.708  21.111  0.00  0.00    +0.000 A 
ATOM     27  N   UNL     1       1.644   3.462  21.550  0.00  0.00    +0.000 NA
ATOM     28  C   UNL     1       1.260   4.162  20.507  0.00  0.00    +0.000 A 
ENDBRANCH  23  24
ENDBRANCH  22  23
ENDBRANCH  21  22
ENDBRANCH  19  21
ENDBRANCH  15  17
ENDBRANCH   1  15
TORSDOF 7
ENDMDL
MODEL 8
REMARK VINA RESULT:      -7.1      3.742      7.327
REMARK  Name = 
REMARK  10 active torsions:
REMARK  status: ('A' for Active; 'I' for Inactive)
REMARK    1  A    between atoms: C_1  and  C_2
REMARK    2  A    between atoms: C_4  and  O_5
REMARK    3  A    between atoms: O_5  and  C_6
REMARK    4  A    between atoms: C_6  and  C_7
REMARK    5  A    between atoms: C_6  and  C_8
REMARK    6  A    between atoms: N_10  and  C_11
REMARK    7  A    between atoms: C_11  and  C_12
REMARK    8  A    between atoms: C_12  and  C_13
REMARK    9  A    between atoms: C_13  and  N_14
REMARK   10  A    between atoms: C_20  and  C_21
REMARK                            x       y       z     vdW  Elec       q    Type
REMARK                         _______ _______ _______ _____ _____    ______ ____
ROOT
ATOM      1  O   UNL     1       4.739   3.144  17.514  0.00  0.00    +0.000 OA
ENDROOT
BRANCH   1   5
ATOM      2  C   UNL     1       6.232   3.660  12.821  0.00  0.00    +0.000 C 
ATOM      3  C   UNL     1       6.213   4.104  14.254  0.00  0.00    +0.000 A 
ATOM      4  C   UNL     1       5.463   3.423  15.218  0.00  0.00    +0.000 A 
ATOM      5  C   UNL     1       5.474   3.816  16.574  0.00  0.00    +0.000 A 
ATOM      6  C   UNL     1       6.202   4.954  16.988  0.00  0.00    +0.000 A 
ATOM      7  C   UNL     1       6.284   5.516  18.361  0.00  0.00    +0.000 A 
ATOM      8  C   UNL     1       5.592   4.958  19.573  0.00  0.00    +0.000 C 
ATOM      9  C   UNL     1       7.035   6.613  18.560  0.00  0.00    +0.000 A 
ATOM     10  C   UNL     1       7.786   7.307  17.513  0.00  0.00    +0.000 A 
ATOM     11  O   UNL     1       8.443   8.310  17.767  0.00  0.00    +0.000 OA
ATOM     12  O   UNL     1       7.708   6.768  16.248  0.00  0.00    +0.000 OA
ATOM     13  C   UNL     1       6.930   5.620  15.986  0.00  0.00    +0.000 A 
ATOM     14  C   UNL     1       6.953   5.212  14.649  0.00  0.00    +0.000 A 
ENDBRANCH   1   5
BRANCH   1  15
ATOM     15  C   UNL     1       3.394   2.766  17.194  0.00  0.00    +0.000 C 
ATOM     16  C   UNL     1       3.021   1.605  18.112  0.00  0.00    +0.000 C 
BRANCH  15  17
ATOM     17  C   UNL     1       2.426   3.926  17.459  0.00  0.00    +0.000 C 
ATOM     18  O   UNL     1       1.216   3.830  17.281  0.00  0.00    +0.000 OA
ATOM     19  N   UNL     1       3.032   5.062  17.955  0.00  0.00    +0.000 N 
ATOM     20  H   UNL     1       4.045   5.060  18.027  0.00  0.00    +0.000 HD
BRANCH  19  21
ATOM     21  C   UNL     1       2.290   6.261  18.270  0.00  0.00    +0.000 C 
BRANCH  21  22
ATOM     22  C   UNL     1       2.371   6.585  19.755  0.00  0.00    +0.000 C 
BRANCH  22  23
ATOM     23  C   UNL     1       1.215   5.942  20.512  0.00  0.00    +0.000 C 
BRANCH  23  24
ATOM     24  N   UNL     1       1.518   4.588  20.927  0.00  0.00    +0.000 N 
ATOM     25  C   UNL     1       0.788   3.471  20.634  0.00  0.00    +0.000 A 
ATOM     26  C   UNL     1       1.484   2.435  21.214  0.00  0.00    +0.000 A 
ATOM     27  N   UNL     1       2.610   2.898  21.844  0.00  0.00    +0.000 NA
ATOM     28  C   UNL     1       2.605   4.197  21.653  0.00  0.00    +0.000 A 
ENDBRANCH  23  24
ENDBRANCH  22  23
ENDBRANCH  21  22
ENDBRANCH  19  21
ENDBRANCH  15  17
ENDBRANCH   1  15
TORSDOF 7
ENDMDL
MODEL 9
REMARK VINA RESULT:      -7.0      1.210      2.999
REMARK  Name = 
REMARK  10 active torsions:
REMARK  status: ('A' for Active; 'I' for Inactive)
REMARK    1  A    between atoms: C_1  and  C_2
REMARK    2  A    between atoms: C_4  and  O_5
REMARK    3  A    between atoms: O_5  and  C_6
REMARK    4  A    between atoms: C_6  and  C_7
REMARK    5  A    between atoms: C_6  and  C_8
REMARK    6  A    between atoms: N_10  and  C_11
REMARK    7  A    between atoms: C_11  and  C_12
REMARK    8  A    between atoms: C_12  and  C_13
REMARK    9  A    between atoms: C_13  and  N_14
REMARK   10  A    between atoms: C_20  and  C_21
REMARK                            x       y       z     vdW  Elec       q    Type
REMARK                         _______ _______ _______ _____ _____    ______ ____
ROOT
ATOM      1  O   UNL     1       4.413   4.914  16.874  0.00  0.00    +0.000 OA
ENDROOT
BRANCH   1   5
ATOM      2  C   UNL     1       2.152   9.024  18.458  0.00  0.00    +0.000 C 
ATOM      3  C   UNL     1       2.538   7.585  18.628  0.00  0.00    +0.000 A 
ATOM      4  C   UNL     1       3.284   6.911  17.655  0.00  0.00    +0.000 A 
ATOM      5  C   UNL     1       3.682   5.568  17.829  0.00  0.00    +0.000 A 
ATOM      6  C   UNL     1       3.283   4.842  18.974  0.00  0.00    +0.000 A 
ATOM      7  C   UNL     1       3.586   3.421  19.286  0.00  0.00    +0.000 A 
ATOM      8  C   UNL     1       4.384   2.490  18.417  0.00  0.00    +0.000 C 
ATOM      9  C   UNL     1       3.117   2.903  20.434  0.00  0.00    +0.000 A 
ATOM     10  C   UNL     1       2.319   3.642  21.414  0.00  0.00    +0.000 A 
ATOM     11  O   UNL     1       1.917   3.101  22.437  0.00  0.00    +0.000 OA
ATOM     12  O   UNL     1       2.056   4.961  21.116  0.00  0.00    +0.000 OA
ATOM     13  C   UNL     1       2.522   5.550  19.921  0.00  0.00    +0.000 A 
ATOM     14  C   UNL     1       2.159   6.891  19.770  0.00  0.00    +0.000 A 
ENDBRANCH   1   5
BRANCH   1  15
ATOM     15  C   UNL     1       5.536   5.584  16.288  0.00  0.00    +0.000 C 
ATOM     16  C   UNL     1       5.017   6.876  15.664  0.00  0.00    +0.000 C 
BRANCH  15  17
ATOM     17  C   UNL     1       6.572   5.943  17.361  0.00  0.00    +0.000 C 
ATOM     18  O   UNL     1       6.934   5.148  18.222  0.00  0.00    +0.000 OA
ATOM     19  N   UNL     1       7.088   7.218  17.241  0.00  0.00    +0.000 N 
ATOM     20  H   UNL     1       6.693   7.817  16.522  0.00  0.00    +0.000 HD
BRANCH  19  21
ATOM     21  C   UNL     1       8.076   7.743  18.153  0.00  0.00    +0.000 C 
BRANCH  21  22
ATOM     22  C   UNL     1       8.335   9.221  17.895  0.00  0.00    +0.000 C 
BRANCH  22  23
ATOM     23  C   UNL     1       9.014   9.869  19.095  0.00  0.00    +0.000 C 
BRANCH  23  24
ATOM     24  N   UNL     1       9.521  11.190  18.789  0.00  0.00    +0.000 N 
ATOM     25  C   UNL     1       9.254  12.338  19.481  0.00  0.00    +0.000 A 
ATOM     26  C   UNL     1       9.977  13.314  18.835  0.00  0.00    +0.000 A 
ATOM     27  N   UNL     1      10.670  12.786  17.777  0.00  0.00    +0.000 NA
ATOM     28  C   UNL     1      10.378  11.505  17.775  0.00  0.00    +0.000 A 
ENDBRANCH  23  24
ENDBRANCH  22  23
ENDBRANCH  21  22
ENDBRANCH  19  21
ENDBRANCH  15  17
ENDBRANCH   1  15
TORSDOF 7
ENDMDL
