MODEL 1
REMARK VINA RESULT:      -8.1      0.000      0.000
REMARK  Name = 
REMARK  6 active torsions:
REMARK  status: ('A' for Active; 'I' for Inactive)
REMARK    1  A    between atoms: C_1  and  O_2
REMARK    2  A    between atoms: O_2  and  C_3
REMARK    3  A    between atoms: C_8  and  O_9
REMARK    4  A    between atoms: O_9  and  C_10
REMARK    5  A    between atoms: C_13  and  C_15
REMARK    6  A    between atoms: C_18  and  C_19
REMARK                            x       y       z     vdW  Elec       q    Type
REMARK                         _______ _______ _______ _____ _____    ______ ____
ROOT
ATOM      1  C   UNL     1      -5.158  11.496  18.582  0.00  0.00    +0.000 A 
ATOM      2  C   UNL     1      -4.342  10.842  17.653  0.00  0.00    +0.000 A 
ATOM      3  C   UNL     1      -2.952  10.927  17.741  0.00  0.00    +0.000 A 
ATOM      4  C   UNL     1      -2.364  11.674  18.769  0.00  0.00    +0.000 A 
ATOM      5  C   UNL     1      -3.178  12.348  19.688  0.00  0.00    +0.000 A 
ATOM      6  C   UNL     1      -4.577  12.254  19.617  0.00  0.00    +0.000 A 
ATOM      7  C   UNL     1      -0.856  11.746  18.839  0.00  0.00    +0.000 C 
ATOM      8  N   UNL     1      -0.217  10.470  18.515  0.00  0.00    +0.000 N 
ATOM      9  C   UNL     1       1.028  10.196  19.101  0.00  0.00    +0.000 C 
ATOM     10  O   UNL     1       1.559  11.030  19.839  0.00  0.00    +0.000 OA
ATOM     11  C   UNL     1      -0.876   9.594  17.535  0.00  0.00    +0.000 C 
ATOM     12  C   UNL     1      -2.037  10.237  16.772  0.00  0.00    +0.000 C 
ENDROOT
BRANCH   9  13
ATOM     13  C   UNL     1       1.712   8.949  18.789  0.00  0.00    +0.000 A 
ATOM     14  C   UNL     1       2.652   8.682  17.810  0.00  0.00    +0.000 A 
ATOM     15  C   UNL     1       2.942   7.298  17.882  0.00  0.00    +0.000 A 
ATOM     16  C   UNL     1       2.206   6.796  18.935  0.00  0.00    +0.000 A 
ATOM     17  O   UNL     1       1.488   7.806  19.509  0.00  0.00    +0.000 OA
BRANCH  16  18
ATOM     18  C   UNL     1       2.007   5.469  19.499  0.00  0.00    +0.000 A 
ATOM     19  C   UNL     1       2.276   5.211  20.853  0.00  0.00    +0.000 A 
ATOM     20  C   UNL     1       2.066   3.936  21.393  0.00  0.00    +0.000 A 
ATOM     21  C   UNL     1       1.580   2.906  20.591  0.00  0.00    +0.000 A 
ATOM     22  C   UNL     1       1.310   3.147  19.244  0.00  0.00    +0.000 A 
ATOM     23  C   UNL     1       1.529   4.416  18.711  0.00  0.00    +0.000 A 
ATOM     24  F   UNL     1       1.246   4.610  17.412  0.00  0.00    +0.000 F 
ENDBRANCH  16  18
ENDBRANCH   9  13
BRANCH   1  26
ATOM     25  C   UNL     1      -7.021  10.074  19.004  0.00  0.00    +0.000 C 
ATOM     26  O   UNL     1      -6.492  11.239  18.388  0.00  0.00    +0.000 OA
ENDBRANCH   1  26
BRANCH   6  27
ATOM     27  O   UNL     1      -5.414  12.841  20.529  0.00  0.00    +0.000 OA
ATOM     28  C   UNL     1      -5.006  12.883  21.889  0.00  0.00    +0.000 C 
ENDBRANCH   6  27
TORSDOF 4
ENDMDL
MODEL 2
REMARK VINA RESULT:      -7.6      2.819      8.650
REMARK  Name = 
REMARK  6 active torsions:
REMARK  status: ('A' for Active; 'I' for Inactive)
REMARK    1  A    between atoms: C_1  and  O_2
REMARK    2  A    between atoms: O_2  and  C_3
REMARK    3  A    between atoms: C_8  and  O_9
REMARK    4  A    between atoms: O_9  and  C_10
REMARK    5  A    between atoms: C_13  and  C_15
REMARK    6  A    between atoms: C_18  and  C_19
REMARK                            x       y       z     vdW  Elec       q    Type
REMARK                         _______ _______ _______ _____ _____    ______ ____
ROOT
ATOM      1  C   UNL     1       1.812   3.736  19.768  0.00  0.00    +0.000 A 
ATOM      2  C   UNL     1       1.630   4.823  20.630  0.00  0.00    +0.000 A 
ATOM      3  C   UNL     1       1.926   6.121  20.212  0.00  0.00    +0.000 A 
ATOM      4  C   UNL     1       2.408   6.342  18.916  0.00  0.00    +0.000 A 
ATOM      5  C   UNL     1       2.611   5.254  18.058  0.00  0.00    +0.000 A 
ATOM      6  C   UNL     1       2.301   3.947  18.465  0.00  0.00    +0.000 A 
ATOM      7  C   UNL     1       2.716   7.759  18.492  0.00  0.00    +0.000 C 
ATOM      8  N   UNL     1       1.736   8.722  18.994  0.00  0.00    +0.000 N 
ATOM      9  C   UNL     1       1.515   9.884  18.239  0.00  0.00    +0.000 C 
ATOM     10  O   UNL     1       2.159  10.078  17.204  0.00  0.00    +0.000 OA
ATOM     11  C   UNL     1       1.106   8.456  20.296  0.00  0.00    +0.000 C 
ATOM     12  C   UNL     1       1.740   7.317  21.099  0.00  0.00    +0.000 C 
ENDROOT
BRANCH   9  13
ATOM     13  C   UNL     1       0.566  10.882  18.711  0.00  0.00    +0.000 A 
ATOM     14  C   UNL     1       0.781  11.996  19.502  0.00  0.00    +0.000 A 
ATOM     15  C   UNL     1      -0.483  12.589  19.733  0.00  0.00    +0.000 A 
ATOM     16  C   UNL     1      -1.404  11.840  19.031  0.00  0.00    +0.000 A 
ATOM     17  O   UNL     1      -0.761  10.826  18.379  0.00  0.00    +0.000 OA
BRANCH  16  18
ATOM     18  C   UNL     1      -2.852  11.875  18.888  0.00  0.00    +0.000 A 
ATOM     19  C   UNL     1      -3.480  11.354  17.745  0.00  0.00    +0.000 A 
ATOM     20  C   UNL     1      -4.874  11.376  17.622  0.00  0.00    +0.000 A 
ATOM     21  C   UNL     1      -5.659  11.912  18.641  0.00  0.00    +0.000 A 
ATOM     22  C   UNL     1      -5.051  12.435  19.780  0.00  0.00    +0.000 A 
ATOM     23  C   UNL     1      -3.661  12.418  19.892  0.00  0.00    +0.000 A 
ATOM     24  F   UNL     1      -3.115  12.921  21.011  0.00  0.00    +0.000 F 
ENDBRANCH  16  18
ENDBRANCH   9  13
BRANCH   1  26
ATOM     25  C   UNL     1       1.433   2.447  21.735  0.00  0.00    +0.000 C 
ATOM     26  O   UNL     1       1.399   2.549  20.319  0.00  0.00    +0.000 OA
ENDBRANCH   1  26
BRANCH   6  27
ATOM     27  O   UNL     1       2.420   2.859  17.642  0.00  0.00    +0.000 OA
ATOM     28  C   UNL     1       3.479   1.942  17.884  0.00  0.00    +0.000 C 
ENDBRANCH   6  27
TORSDOF 4
ENDMDL
MODEL 3
REMARK VINA RESULT:      -7.6      1.165      1.249
REMARK  Name = 
REMARK  6 active torsions:
REMARK  status: ('A' for Active; 'I' for Inactive)
REMARK    1  A    between atoms: C_1  and  O_2
REMARK    2  A    between atoms: O_2  and  C_3
REMARK    3  A    between atoms: C_8  and  O_9
REMARK    4  A    between atoms: O_9  and  C_10
REMARK    5  A    between atoms: C_13  and  C_15
REMARK    6  A    between atoms: C_18  and  C_19
REMARK                            x       y       z     vdW  Elec       q    Type
REMARK                         _______ _______ _______ _____ _____    ______ ____
ROOT
ATOM      1  C   UNL     1      -5.356  11.869  18.575  0.00  0.00    +0.000 A 
ATOM      2  C   UNL     1      -4.409  11.449  17.634  0.00  0.00    +0.000 A 
ATOM      3  C   UNL     1      -3.046  11.488  17.929  0.00  0.00    +0.000 A 
ATOM      4  C   UNL     1      -2.617  11.949  19.180  0.00  0.00    +0.000 A 
ATOM      5  C   UNL     1      -3.560  12.390  20.116  0.00  0.00    +0.000 A 
ATOM      6  C   UNL     1      -4.934  12.340  19.834  0.00  0.00    +0.000 A 
ATOM      7  C   UNL     1      -1.135  11.976  19.470  0.00  0.00    +0.000 C 
ATOM      8  N   UNL     1      -0.435  10.808  18.933  0.00  0.00    +0.000 N 
ATOM      9  C   UNL     1       0.723  10.378  19.597  0.00  0.00    +0.000 C 
ATOM     10  O   UNL     1       1.135  10.996  20.583  0.00  0.00    +0.000 OA
ATOM     11  C   UNL     1      -0.938  10.211  17.687  0.00  0.00    +0.000 C 
ATOM     12  C   UNL     1      -1.996  11.041  16.955  0.00  0.00    +0.000 C 
ENDROOT
BRANCH   9  13
ATOM     13  C   UNL     1       1.466   9.234  19.085  0.00  0.00    +0.000 A 
ATOM     14  C   UNL     1       2.132   9.085  17.882  0.00  0.00    +0.000 A 
ATOM     15  C   UNL     1       2.622   7.758  17.844  0.00  0.00    +0.000 A 
ATOM     16  C   UNL     1       2.278   7.176  19.045  0.00  0.00    +0.000 A 
ATOM     17  O   UNL     1       1.609   8.085  19.814  0.00  0.00    +0.000 OA
BRANCH  16  18
ATOM     18  C   UNL     1       2.429   5.844  19.614  0.00  0.00    +0.000 A 
ATOM     19  C   UNL     1       1.473   5.324  20.502  0.00  0.00    +0.000 A 
ATOM     20  C   UNL     1       1.617   4.036  21.032  0.00  0.00    +0.000 A 
ATOM     21  C   UNL     1       2.711   3.250  20.678  0.00  0.00    +0.000 A 
ATOM     22  C   UNL     1       3.668   3.753  19.799  0.00  0.00    +0.000 A 
ATOM     23  C   UNL     1       3.524   5.039  19.282  0.00  0.00    +0.000 A 
ATOM     24  F   UNL     1       4.463   5.483  18.429  0.00  0.00    +0.000 F 
ENDBRANCH  16  18
ENDBRANCH   9  13
BRANCH   1  26
ATOM     25  C   UNL     1      -7.269  12.788  17.493  0.00  0.00    +0.000 C 
ATOM     26  O   UNL     1      -6.646  11.690  18.144  0.00  0.00    +0.000 OA
ENDBRANCH   1  26
BRANCH   6  27
ATOM     27  O   UNL     1      -5.898  12.698  20.739  0.00  0.00    +0.000 OA
ATOM     28  C   UNL     1      -5.633  13.787  21.611  0.00  0.00    +0.000 C 
ENDBRANCH   6  27
TORSDOF 4
ENDMDL
MODEL 4
REMARK VINA RESULT:      -7.6      2.569      8.531
REMARK  Name = 
REMARK  6 active torsions:
REMARK  status: ('A' for Active; 'I' for Inactive)
REMARK    1  A    between atoms: C_1  and  O_2
REMARK    2  A    between atoms: O_2  and  C_3
REMARK    3  A    between atoms: C_8  and  O_9
REMARK    4  A    between atoms: O_9  and  C_10
REMARK    5  A    between atoms: C_13  and  C_15
REMARK    6  A    between atoms: C_18  and  C_19
REMARK                            x       y       z     vdW  Elec       q    Type
REMARK                         _______ _______ _______ _____ _____    ______ ____
ROOT
ATOM      1  C   UNL     1       1.828   3.801  19.723  0.00  0.00    +0.000 A 
ATOM      2  C   UNL     1       1.630   4.882  20.589  0.00  0.00    +0.000 A 
ATOM      3  C   UNL     1       1.925   6.184  20.184  0.00  0.00    +0.000 A 
ATOM      4  C   UNL     1       2.423   6.416  18.896  0.00  0.00    +0.000 A 
ATOM      5  C   UNL     1       2.643   5.335  18.034  0.00  0.00    +0.000 A 
ATOM      6  C   UNL     1       2.334   4.023  18.427  0.00  0.00    +0.000 A 
ATOM      7  C   UNL     1       2.730   7.837  18.485  0.00  0.00    +0.000 C 
ATOM      8  N   UNL     1       1.739   8.792  18.980  0.00  0.00    +0.000 N 
ATOM      9  C   UNL     1       1.524   9.958  18.230  0.00  0.00    +0.000 C 
ATOM     10  O   UNL     1       2.180  10.162  17.205  0.00  0.00    +0.000 OA
ATOM     11  C   UNL     1       1.093   8.515  20.272  0.00  0.00    +0.000 C 
ATOM     12  C   UNL     1       1.722   7.374  21.076  0.00  0.00    +0.000 C 
ENDROOT
BRANCH   9  13
ATOM     13  C   UNL     1       0.563  10.949  18.696  0.00  0.00    +0.000 A 
ATOM     14  C   UNL     1       0.759  12.049  19.510  0.00  0.00    +0.000 A 
ATOM     15  C   UNL     1      -0.510  12.638  19.721  0.00  0.00    +0.000 A 
ATOM     16  C   UNL     1      -1.413  11.902  18.984  0.00  0.00    +0.000 A 
ATOM     17  O   UNL     1      -0.756  10.899  18.332  0.00  0.00    +0.000 OA
BRANCH  16  18
ATOM     18  C   UNL     1      -2.858  11.940  18.807  0.00  0.00    +0.000 A 
ATOM     19  C   UNL     1      -3.707  12.323  19.859  0.00  0.00    +0.000 A 
ATOM     20  C   UNL     1      -5.093  12.373  19.676  0.00  0.00    +0.000 A 
ATOM     21  C   UNL     1      -5.650  12.050  18.440  0.00  0.00    +0.000 A 
ATOM     22  C   UNL     1      -4.821  11.667  17.387  0.00  0.00    +0.000 A 
ATOM     23  C   UNL     1      -3.441  11.610  17.579  0.00  0.00    +0.000 A 
ATOM     24  F   UNL     1      -2.676  11.247  16.535  0.00  0.00    +0.000 F 
ENDBRANCH  16  18
ENDBRANCH   9  13
BRANCH   1  26
ATOM     25  C   UNL     1       1.481   2.478  21.673  0.00  0.00    +0.000 C 
ATOM     26  O   UNL     1       1.413   2.609  20.260  0.00  0.00    +0.000 OA
ENDBRANCH   1  26
BRANCH   6  27
ATOM     27  O   UNL     1       2.469   2.941  17.599  0.00  0.00    +0.000 OA
ATOM     28  C   UNL     1       3.421   1.944  17.942  0.00  0.00    +0.000 C 
ENDBRANCH   6  27
TORSDOF 4
ENDMDL
MODEL 5
REMARK VINA RESULT:      -7.4      1.108      1.276
REMARK  Name = 
REMARK  6 active torsions:
REMARK  status: ('A' for Active; 'I' for Inactive)
REMARK    1  A    between atoms: C_1  and  O_2
REMARK    2  A    between atoms: O_2  and  C_3
REMARK    3  A    between atoms: C_8  and  O_9
REMARK    4  A    between atoms: O_9  and  C_10
REMARK    5  A    between atoms: C_13  and  C_15
REMARK    6  A    between atoms: C_18  and  C_19
REMARK                            x       y       z     vdW  Elec       q    Type
REMARK                         _______ _______ _______ _____ _____    ______ ____
ROOT
ATOM      1  C   UNL     1      -4.812  12.514  19.686  0.00  0.00    +0.000 A 
ATOM      2  C   UNL     1      -3.909  12.097  18.702  0.00  0.00    +0.000 A 
ATOM      3  C   UNL     1      -2.569  11.868  19.015  0.00  0.00    +0.000 A 
ATOM      4  C   UNL     1      -2.119  12.054  20.328  0.00  0.00    +0.000 A 
ATOM      5  C   UNL     1      -3.014  12.492  21.311  0.00  0.00    +0.000 A 
ATOM      6  C   UNL     1      -4.368  12.710  21.009  0.00  0.00    +0.000 A 
ATOM      7  C   UNL     1      -0.663  11.795  20.637  0.00  0.00    +0.000 C 
ATOM      8  N   UNL     1      -0.137  10.627  19.929  0.00  0.00    +0.000 N 
ATOM      9  C   UNL     1       0.913   9.917  20.530  0.00  0.00    +0.000 C 
ATOM     10  O   UNL     1       1.380  10.300  21.606  0.00  0.00    +0.000 OA
ATOM     11  C   UNL     1      -0.682  10.319  18.598  0.00  0.00    +0.000 C 
ATOM     12  C   UNL     1      -1.567  11.413  17.994  0.00  0.00    +0.000 C 
ENDROOT
BRANCH   9  13
ATOM     13  C   UNL     1       1.484   8.761  19.852  0.00  0.00    +0.000 A 
ATOM     14  C   UNL     1       2.143   8.691  18.639  0.00  0.00    +0.000 A 
ATOM     15  C   UNL     1       2.427   7.324  18.402  0.00  0.00    +0.000 A 
ATOM     16  C   UNL     1       1.975   6.631  19.505  0.00  0.00    +0.000 A 
ATOM     17  O   UNL     1       1.436   7.508  20.402  0.00  0.00    +0.000 OA
BRANCH  16  18
ATOM     18  C   UNL     1       1.911   5.224  19.870  0.00  0.00    +0.000 A 
ATOM     19  C   UNL     1       2.169   4.804  21.185  0.00  0.00    +0.000 A 
ATOM     20  C   UNL     1       2.088   3.450  21.531  0.00  0.00    +0.000 A 
ATOM     21  C   UNL     1       1.743   2.499  20.573  0.00  0.00    +0.000 A 
ATOM     22  C   UNL     1       1.486   2.901  19.263  0.00  0.00    +0.000 A 
ATOM     23  C   UNL     1       1.577   4.249  18.922  0.00  0.00    +0.000 A 
ATOM     24  F   UNL     1       1.310   4.596  17.652  0.00  0.00    +0.000 F 
ENDBRANCH  16  18
ENDBRANCH   9  13
BRANCH   1  26
ATOM     25  C   UNL     1      -6.832  11.407  19.083  0.00  0.00    +0.000 C 
ATOM     26  O   UNL     1      -6.097  12.615  19.218  0.00  0.00    +0.000 OA
ENDBRANCH   1  26
BRANCH   6  27
ATOM     27  O   UNL     1      -5.296  13.075  21.948  0.00  0.00    +0.000 OA
ATOM     28  C   UNL     1      -5.005  14.183  22.788  0.00  0.00    +0.000 C 
ENDBRANCH   6  27
TORSDOF 4
ENDMDL
MODEL 6
REMARK VINA RESULT:      -7.4      3.185      5.026
REMARK  Name = 
REMARK  6 active torsions:
REMARK  status: ('A' for Active; 'I' for Inactive)
REMARK    1  A    between atoms: C_1  and  O_2
REMARK    2  A    between atoms: O_2  and  C_3
REMARK    3  A    between atoms: C_8  and  O_9
REMARK    4  A    between atoms: O_9  and  C_10
REMARK    5  A    between atoms: C_13  and  C_15
REMARK    6  A    between atoms: C_18  and  C_19
REMARK                            x       y       z     vdW  Elec       q    Type
REMARK                         _______ _______ _______ _____ _____    ______ ____
ROOT
ATOM      1  C   UNL     1      -0.664  11.870  19.711  0.00  0.00    +0.000 A 
ATOM      2  C   UNL     1       0.397  11.388  18.937  0.00  0.00    +0.000 A 
ATOM      3  C   UNL     1       1.107  10.252  19.328  0.00  0.00    +0.000 A 
ATOM      4  C   UNL     1       0.757   9.584  20.508  0.00  0.00    +0.000 A 
ATOM      5  C   UNL     1      -0.290  10.076  21.297  0.00  0.00    +0.000 A 
ATOM      6  C   UNL     1      -1.021  11.208  20.902  0.00  0.00    +0.000 A 
ATOM      7  C   UNL     1       1.543   8.356  20.904  0.00  0.00    +0.000 C 
ATOM      8  N   UNL     1       1.886   7.514  19.757  0.00  0.00    +0.000 N 
ATOM      9  C   UNL     1       2.038   6.138  19.980  0.00  0.00    +0.000 C 
ATOM     10  O   UNL     1       1.910   5.679  21.118  0.00  0.00    +0.000 OA
ATOM     11  C   UNL     1       2.132   8.170  18.464  0.00  0.00    +0.000 C 
ATOM     12  C   UNL     1       2.247   9.696  18.525  0.00  0.00    +0.000 C 
ENDROOT
BRANCH   9  13
ATOM     13  C   UNL     1       2.402   5.264  18.873  0.00  0.00    +0.000 A 
ATOM     14  C   UNL     1       1.743   4.156  18.372  0.00  0.00    +0.000 A 
ATOM     15  C   UNL     1       2.555   3.622  17.344  0.00  0.00    +0.000 A 
ATOM     16  C   UNL     1       3.646   4.458  17.229  0.00  0.00    +0.000 A 
ATOM     17  O   UNL     1       3.534   5.477  18.131  0.00  0.00    +0.000 OA
BRANCH  16  18
ATOM     18  C   UNL     1       4.856   4.452  16.419  0.00  0.00    +0.000 A 
ATOM     19  C   UNL     1       4.788   4.455  15.016  0.00  0.00    +0.000 A 
ATOM     20  C   UNL     1       5.956   4.466  14.245  0.00  0.00    +0.000 A 
ATOM     21  C   UNL     1       7.205   4.480  14.863  0.00  0.00    +0.000 A 
ATOM     22  C   UNL     1       7.288   4.475  16.254  0.00  0.00    +0.000 A 
ATOM     23  C   UNL     1       6.121   4.456  17.016  0.00  0.00    +0.000 A 
ATOM     24  F   UNL     1       6.244   4.463  18.354  0.00  0.00    +0.000 F 
ENDBRANCH  16  18
ENDBRANCH   9  13
BRANCH   1  26
ATOM     25  C   UNL     1      -0.468  13.947  18.562  0.00  0.00    +0.000 C 
ATOM     26  O   UNL     1      -1.294  12.944  19.136  0.00  0.00    +0.000 OA
ENDBRANCH   1  26
BRANCH   6  27
ATOM     27  O   UNL     1      -2.094  11.689  21.605  0.00  0.00    +0.000 OA
ATOM     28  C   UNL     1      -1.935  11.933  22.995  0.00  0.00    +0.000 C 
ENDBRANCH   6  27
TORSDOF 4
ENDMDL
MODEL 7
REMARK VINA RESULT:      -7.4      1.572      1.983
REMARK  Name = 
REMARK  6 active torsions:
REMARK  status: ('A' for Active; 'I' for Inactive)
REMARK    1  A    between atoms: C_1  and  O_2
REMARK    2  A    between atoms: O_2  and  C_3
REMARK    3  A    between atoms: C_8  and  O_9
REMARK    4  A    between atoms: O_9  and  C_10
REMARK    5  A    between atoms: C_13  and  C_15
REMARK    6  A    between atoms: C_18  and  C_19
REMARK                            x       y       z     vdW  Elec       q    Type
REMARK                         _______ _______ _______ _____ _____    ______ ____
ROOT
ATOM      1  C   UNL     1      -5.530  12.426  20.510  0.00  0.00    +0.000 A 
ATOM      2  C   UNL     1      -4.778  12.102  19.375  0.00  0.00    +0.000 A 
ATOM      3  C   UNL     1      -3.384  12.130  19.412  0.00  0.00    +0.000 A 
ATOM      4  C   UNL     1      -2.726  12.484  20.596  0.00  0.00    +0.000 A 
ATOM      5  C   UNL     1      -3.475  12.829  21.728  0.00  0.00    +0.000 A 
ATOM      6  C   UNL     1      -4.878  12.788  21.705  0.00  0.00    +0.000 A 
ATOM      7  C   UNL     1      -1.215  12.502  20.606  0.00  0.00    +0.000 C 
ATOM      8  N   UNL     1      -0.635  11.395  19.845  0.00  0.00    +0.000 N 
ATOM      9  C   UNL     1       0.625  10.921  20.240  0.00  0.00    +0.000 C 
ATOM     10  O   UNL     1       1.217  11.453  21.183  0.00  0.00    +0.000 OA
ATOM     11  C   UNL     1      -1.365  10.905  18.667  0.00  0.00    +0.000 C 
ATOM     12  C   UNL     1      -2.537  11.784  18.222  0.00  0.00    +0.000 C 
ENDROOT
BRANCH   9  13
ATOM     13  C   UNL     1       1.252   9.836  19.498  0.00  0.00    +0.000 A 
ATOM     14  C   UNL     1       1.639   9.786  18.171  0.00  0.00    +0.000 A 
ATOM     15  C   UNL     1       2.127   8.479  17.932  0.00  0.00    +0.000 A 
ATOM     16  C   UNL     1       2.065   7.809  19.136  0.00  0.00    +0.000 A 
ATOM     17  O   UNL     1       1.570   8.645  20.095  0.00  0.00    +0.000 OA
BRANCH  16  18
ATOM     18  C   UNL     1       2.357   6.448  19.562  0.00  0.00    +0.000 A 
ATOM     19  C   UNL     1       1.577   5.813  20.542  0.00  0.00    +0.000 A 
ATOM     20  C   UNL     1       1.853   4.499  20.935  0.00  0.00    +0.000 A 
ATOM     21  C   UNL     1       2.907   3.799  20.351  0.00  0.00    +0.000 A 
ATOM     22  C   UNL     1       3.692   4.416  19.378  0.00  0.00    +0.000 A 
ATOM     23  C   UNL     1       3.417   5.729  18.998  0.00  0.00    +0.000 A 
ATOM     24  F   UNL     1       4.189   6.284  18.049  0.00  0.00    +0.000 F 
ENDBRANCH  16  18
ENDBRANCH   9  13
BRANCH   1  26
ATOM     25  C   UNL     1      -7.561  13.325  19.650  0.00  0.00    +0.000 C 
ATOM     26  O   UNL     1      -6.879  12.270  20.313  0.00  0.00    +0.000 OA
ENDBRANCH   1  26
BRANCH   6  27
ATOM     27  O   UNL     1      -5.653  13.053  22.802  0.00  0.00    +0.000 OA
ATOM     28  C   UNL     1      -5.074  12.899  24.090  0.00  0.00    +0.000 C 
ENDBRANCH   6  27
TORSDOF 4
ENDMDL
MODEL 8
REMARK VINA RESULT:      -7.3      1.307      1.607
REMARK  Name = 
REMARK  6 active torsions:
REMARK  status: ('A' for Active; 'I' for Inactive)
REMARK    1  A    between atoms: C_1  and  O_2
REMARK    2  A    between atoms: O_2  and  C_3
REMARK    3  A    between atoms: C_8  and  O_9
REMARK    4  A    between atoms: O_9  and  C_10
REMARK    5  A    between atoms: C_13  and  C_15
REMARK    6  A    between atoms: C_18  and  C_19
REMARK                            x       y       z     vdW  Elec       q    Type
REMARK                         _______ _______ _______ _____ _____    ______ ____
ROOT
ATOM      1  C   UNL     1      -5.515  11.975  19.321  0.00  0.00    +0.000 A 
ATOM      2  C   UNL     1      -4.685  11.570  18.270  0.00  0.00    +0.000 A 
ATOM      3  C   UNL     1      -3.298  11.674  18.377  0.00  0.00    +0.000 A 
ATOM      4  C   UNL     1      -2.726  12.188  19.547  0.00  0.00    +0.000 A 
ATOM      5  C   UNL     1      -3.555  12.615  20.592  0.00  0.00    +0.000 A 
ATOM      6  C   UNL     1      -4.951  12.499  20.500  0.00  0.00    +0.000 A 
ATOM      7  C   UNL     1      -1.221  12.286  19.634  0.00  0.00    +0.000 C 
ATOM      8  N   UNL     1      -0.547  11.135  19.033  0.00  0.00    +0.000 N 
ATOM      9  C   UNL     1       0.708  10.773  19.544  0.00  0.00    +0.000 C 
ATOM     10  O   UNL     1       1.219  11.435  20.451  0.00  0.00    +0.000 OA
ATOM     11  C   UNL     1      -1.185  10.482  17.880  0.00  0.00    +0.000 C 
ATOM     12  C   UNL     1      -2.368  11.245  17.279  0.00  0.00    +0.000 C 
ENDROOT
BRANCH   9  13
ATOM     13  C   UNL     1       1.427   9.648  18.962  0.00  0.00    +0.000 A 
ATOM     14  C   UNL     1       2.212   9.599  17.825  0.00  0.00    +0.000 A 
ATOM     15  C   UNL     1       2.615   8.253  17.658  0.00  0.00    +0.000 A 
ATOM     16  C   UNL     1       2.102   7.553  18.730  0.00  0.00    +0.000 A 
ATOM     17  O   UNL     1       1.412   8.407  19.541  0.00  0.00    +0.000 OA
BRANCH  16  18
ATOM     18  C   UNL     1       2.100   6.152  19.127  0.00  0.00    +0.000 A 
ATOM     19  C   UNL     1       2.380   5.136  18.200  0.00  0.00    +0.000 A 
ATOM     20  C   UNL     1       2.393   3.793  18.594  0.00  0.00    +0.000 A 
ATOM     21  C   UNL     1       2.135   3.448  19.919  0.00  0.00    +0.000 A 
ATOM     22  C   UNL     1       1.854   4.445  20.850  0.00  0.00    +0.000 A 
ATOM     23  C   UNL     1       1.833   5.780  20.450  0.00  0.00    +0.000 A 
ATOM     24  F   UNL     1       1.569   6.712  21.381  0.00  0.00    +0.000 F 
ENDBRANCH  16  18
ENDBRANCH   9  13
BRANCH   1  26
ATOM     25  C   UNL     1      -7.542  12.687  18.291  0.00  0.00    +0.000 C 
ATOM     26  O   UNL     1      -6.842  11.729  19.072  0.00  0.00    +0.000 OA
ENDBRANCH   1  26
BRANCH   6  27
ATOM     27  O   UNL     1      -5.800  12.841  21.519  0.00  0.00    +0.000 OA
ATOM     28  C   UNL     1      -5.238  13.193  22.776  0.00  0.00    +0.000 C 
ENDBRANCH   6  27
TORSDOF 4
ENDMDL
MODEL 9
REMARK VINA RESULT:      -7.3      2.106      2.702
REMARK  Name = 
REMARK  6 active torsions:
REMARK  status: ('A' for Active; 'I' for Inactive)
REMARK    1  A    between atoms: C_1  and  O_2
REMARK    2  A    between atoms: O_2  and  C_3
REMARK    3  A    between atoms: C_8  and  O_9
REMARK    4  A    between atoms: O_9  and  C_10
REMARK    5  A    between atoms: C_13  and  C_15
REMARK    6  A    between atoms: C_18  and  C_19
REMARK                            x       y       z     vdW  Elec       q    Type
REMARK                         _______ _______ _______ _____ _____    ______ ____
ROOT
ATOM      1  C   UNL     1      -3.720  12.812  21.106  0.00  0.00    +0.000 A 
ATOM      2  C   UNL     1      -2.799  12.659  20.064  0.00  0.00    +0.000 A 
ATOM      3  C   UNL     1      -1.556  12.067  20.293  0.00  0.00    +0.000 A 
ATOM      4  C   UNL     1      -1.223  11.621  21.578  0.00  0.00    +0.000 A 
ATOM      5  C   UNL     1      -2.133  11.792  22.628  0.00  0.00    +0.000 A 
ATOM      6  C   UNL     1      -3.393  12.371  22.404  0.00  0.00    +0.000 A 
ATOM      7  C   UNL     1       0.129  10.982  21.793  0.00  0.00    +0.000 C 
ATOM      8  N   UNL     1       0.527  10.119  20.681  0.00  0.00    +0.000 N 
ATOM      9  C   UNL     1       1.375   9.038  20.964  0.00  0.00    +0.000 C 
ATOM     10  O   UNL     1       1.782   8.859  22.115  0.00  0.00    +0.000 OA
ATOM     11  C   UNL     1       0.083  10.482  19.327  0.00  0.00    +0.000 C 
ATOM     12  C   UNL     1      -0.540  11.875  19.205  0.00  0.00    +0.000 C 
ENDROOT
BRANCH   9  13
ATOM     13  C   UNL     1       1.816   8.165  19.885  0.00  0.00    +0.000 A 
ATOM     14  C   UNL     1       2.095   8.469  18.565  0.00  0.00    +0.000 A 
ATOM     15  C   UNL     1       2.410   7.251  17.918  0.00  0.00    +0.000 A 
ATOM     16  C   UNL     1       2.360   6.268  18.883  0.00  0.00    +0.000 A 
ATOM     17  O   UNL     1       2.037   6.828  20.086  0.00  0.00    +0.000 OA
BRANCH  16  18
ATOM     18  C   UNL     1       2.523   4.821  18.876  0.00  0.00    +0.000 A 
ATOM     19  C   UNL     1       1.490   3.978  18.437  0.00  0.00    +0.000 A 
ATOM     20  C   UNL     1       1.661   2.588  18.417  0.00  0.00    +0.000 A 
ATOM     21  C   UNL     1       2.866   2.024  18.829  0.00  0.00    +0.000 A 
ATOM     22  C   UNL     1       3.901   2.848  19.268  0.00  0.00    +0.000 A 
ATOM     23  C   UNL     1       3.721   4.230  19.294  0.00  0.00    +0.000 A 
ATOM     24  F   UNL     1       4.747   4.989  19.714  0.00  0.00    +0.000 F 
ENDBRANCH  16  18
ENDBRANCH   9  13
BRANCH   1  26
ATOM     25  C   UNL     1      -5.875  12.431  20.168  0.00  0.00    +0.000 C 
ATOM     26  O   UNL     1      -4.914  13.340  20.685  0.00  0.00    +0.000 OA
ENDBRANCH   1  26
BRANCH   6  27
ATOM     27  O   UNL     1      -4.342  12.501  23.382  0.00  0.00    +0.000 OA
ATOM     28  C   UNL     1      -3.977  13.146  24.594  0.00  0.00    +0.000 C 
ENDBRANCH   6  27
TORSDOF 4
ENDMDL
