MODEL 1
REMARK VINA RESULT:      -6.6      0.000      0.000
REMARK  Name = 
REMARK  8 active torsions:
REMARK  status: ('A' for Active; 'I' for Inactive)
REMARK    1  A    between atoms: C_1  and  C_2
REMARK    2  A    between atoms: C_2  and  N_3
REMARK    3  A    between atoms: C_6  and  C_7
REMARK    4  A    between atoms: C_7  and  C_8
REMARK    5  A    between atoms: N_10  and  C_11
REMARK    6  A    between atoms: C_15  and  C_16
REMARK    7  A    between atoms: N_24  and  C_25
REMARK    8  A    between atoms: C_25  and  C_26
REMARK                            x       y       z     vdW  Elec       q    Type
REMARK                         _______ _______ _______ _____ _____    ______ ____
ROOT
ATOM      1  C   UNL     1       1.756   8.920  18.504  0.00  0.00    +0.000 C 
ATOM      2  O   UNL     1       1.546   8.536  19.651  0.00  0.00    +0.000 OA
ATOM      3  N   UNL     1       1.262  10.095  17.952  0.00  0.00    +0.000 N 
ATOM      4  H   UNL     1       1.016  10.066  16.970  0.00  0.00    +0.000 HD
ENDROOT
BRANCH   3   5
ATOM      5  C   UNL     1       0.474  10.911  18.745  0.00  0.00    +0.000 A 
ATOM      6  S   UNL     1       1.333  11.880  19.847  0.00  0.00    +0.000 S 
ATOM      7  C   UNL     1      -0.093  12.694  20.312  0.00  0.00    +0.000 A 
ATOM      8  C   UNL     1      -1.226  12.141  19.741  0.00  0.00    +0.000 A 
ATOM      9  C   UNL     1      -0.889  11.093  18.822  0.00  0.00    +0.000 A 
ATOM     10  C   UNL     1      -2.607  12.607  20.103  0.00  0.00    +0.000 C 
ATOM     11  C   UNL     1      -2.596  13.978  20.795  0.00  0.00    +0.000 C 
ATOM     12  C   UNL     1      -1.483  14.084  21.847  0.00  0.00    +0.000 C 
ATOM     13  C   UNL     1      -0.087  13.874  21.237  0.00  0.00    +0.000 C 
BRANCH   9  14
ATOM     14  C   UNL     1      -1.847  10.278  18.130  0.00  0.00    +0.000 C 
ATOM     15  N   UNL     1      -2.672   9.686  17.576  0.00  0.00    +0.000 NA
ENDBRANCH   9  14
ENDBRANCH   3   5
BRANCH   1  16
ATOM     16  C   UNL     1       2.556   8.075  17.533  0.00  0.00    +0.000 C 
BRANCH  16  20
ATOM     17  N   UNL     1       3.484   3.366  17.040  0.00  0.00    +0.000 NA
ATOM     18  C   UNL     1       3.576   4.598  17.374  0.00  0.00    +0.000 C 
ATOM     19  S   UNL     1       2.533   5.462  18.465  0.00  0.00    +0.000 S 
ATOM     20  C   UNL     1       3.417   7.037  18.248  0.00  0.00    +0.000 C 
ATOM     21  C   UNL     1       4.626   6.690  17.396  0.00  0.00    +0.000 C 
ATOM     22  O   UNL     1       5.537   7.482  17.180  0.00  0.00    +0.000 OA
ATOM     23  N   UNL     1       4.551   5.414  16.876  0.00  0.00    +0.000 N 
BRANCH  17  25
ATOM     24  C   UNL     1       3.111   1.681  18.719  0.00  0.00    +0.000 C 
ATOM     25  C   UNL     1       2.454   2.527  17.641  0.00  0.00    +0.000 C 
ENDBRANCH  17  25
BRANCH  23  26
ATOM     26  C   UNL     1       5.526   4.937  15.898  0.00  0.00    +0.000 C 
ATOM     27  C   UNL     1       6.835   4.482  16.521  0.00  0.00    +0.000 C 
ENDBRANCH  23  26
ENDBRANCH  16  20
ENDBRANCH   1  16
TORSDOF 6
ENDMDL
MODEL 2
REMARK VINA RESULT:      -6.5      1.880      2.257
REMARK  Name = 
REMARK  8 active torsions:
REMARK  status: ('A' for Active; 'I' for Inactive)
REMARK    1  A    between atoms: C_1  and  C_2
REMARK    2  A    between atoms: C_2  and  N_3
REMARK    3  A    between atoms: C_6  and  C_7
REMARK    4  A    between atoms: C_7  and  C_8
REMARK    5  A    between atoms: N_10  and  C_11
REMARK    6  A    between atoms: C_15  and  C_16
REMARK    7  A    between atoms: N_24  and  C_25
REMARK    8  A    between atoms: C_25  and  C_26
REMARK                            x       y       z     vdW  Elec       q    Type
REMARK                         _______ _______ _______ _____ _____    ______ ____
ROOT
ATOM      1  C   UNL     1       1.618   8.835  18.062  0.00  0.00    +0.000 C 
ATOM      2  O   UNL     1       0.594   9.241  17.519  0.00  0.00    +0.000 OA
ATOM      3  N   UNL     1       2.006   9.136  19.362  0.00  0.00    +0.000 N 
ATOM      4  H   UNL     1       3.000   9.241  19.525  0.00  0.00    +0.000 HD
ENDROOT
BRANCH   3   5
ATOM      5  C   UNL     1       1.182   9.952  20.119  0.00  0.00    +0.000 A 
ATOM      6  S   UNL     1       0.207   9.132  21.245  0.00  0.00    +0.000 S 
ATOM      7  C   UNL     1      -0.347  10.605  21.904  0.00  0.00    +0.000 A 
ATOM      8  C   UNL     1       0.095  11.703  21.188  0.00  0.00    +0.000 A 
ATOM      9  C   UNL     1       0.993  11.315  20.139  0.00  0.00    +0.000 A 
ATOM     10  C   UNL     1      -0.367  13.097  21.503  0.00  0.00    +0.000 C 
ATOM     11  C   UNL     1      -0.993  13.201  22.902  0.00  0.00    +0.000 C 
ATOM     12  C   UNL     1      -1.936  12.026  23.200  0.00  0.00    +0.000 C 
ATOM     13  C   UNL     1      -1.214  10.670  23.126  0.00  0.00    +0.000 C 
BRANCH   9  14
ATOM     14  C   UNL     1       1.559  12.218  19.177  0.00  0.00    +0.000 C 
ATOM     15  N   UNL     1       2.077  12.891  18.392  0.00  0.00    +0.000 NA
ENDBRANCH   9  14
ENDBRANCH   3   5
BRANCH   1  16
ATOM     16  C   UNL     1       2.618   7.986  17.305  0.00  0.00    +0.000 C 
BRANCH  16  20
ATOM     17  N   UNL     1       3.328   3.214  17.343  0.00  0.00    +0.000 NA
ATOM     18  C   UNL     1       3.447   4.465  17.580  0.00  0.00    +0.000 C 
ATOM     19  S   UNL     1       2.328   5.474  18.447  0.00  0.00    +0.000 S 
ATOM     20  C   UNL     1       3.321   6.980  18.213  0.00  0.00    +0.000 C 
ATOM     21  C   UNL     1       4.606   6.499  17.559  0.00  0.00    +0.000 C 
ATOM     22  O   UNL     1       5.582   7.225  17.397  0.00  0.00    +0.000 OA
ATOM     23  N   UNL     1       4.524   5.185  17.145  0.00  0.00    +0.000 N 
BRANCH  17  25
ATOM     24  C   UNL     1       2.599   1.859  19.197  0.00  0.00    +0.000 C 
ATOM     25  C   UNL     1       2.183   2.482  17.875  0.00  0.00    +0.000 C 
ENDBRANCH  17  25
BRANCH  23  26
ATOM     26  C   UNL     1       5.584   4.575  16.347  0.00  0.00    +0.000 C 
ATOM     27  C   UNL     1       5.524   4.950  14.875  0.00  0.00    +0.000 C 
ENDBRANCH  23  26
ENDBRANCH  16  20
ENDBRANCH   1  16
TORSDOF 6
ENDMDL
MODEL 3
REMARK VINA RESULT:      -6.5      2.464      8.457
REMARK  Name = 
REMARK  8 active torsions:
REMARK  status: ('A' for Active; 'I' for Inactive)
REMARK    1  A    between atoms: C_1  and  C_2
REMARK    2  A    between atoms: C_2  and  N_3
REMARK    3  A    between atoms: C_6  and  C_7
REMARK    4  A    between atoms: C_7  and  C_8
REMARK    5  A    between atoms: N_10  and  C_11
REMARK    6  A    between atoms: C_15  and  C_16
REMARK    7  A    between atoms: N_24  and  C_25
REMARK    8  A    between atoms: C_25  and  C_26
REMARK                            x       y       z     vdW  Elec       q    Type
REMARK                         _______ _______ _______ _____ _____    ______ ____
ROOT
ATOM      1  C   UNL     1       1.777   8.955  18.153  0.00  0.00    +0.000 C 
ATOM      2  O   UNL     1       1.015   8.446  17.336  0.00  0.00    +0.000 OA
ATOM      3  N   UNL     1       2.595   8.254  19.029  0.00  0.00    +0.000 N 
ATOM      4  H   UNL     1       2.734   8.663  19.945  0.00  0.00    +0.000 HD
ENDROOT
BRANCH   3   5
ATOM      5  C   UNL     1       2.565   6.870  18.988  0.00  0.00    +0.000 A 
ATOM      6  S   UNL     1       1.605   6.141  20.187  0.00  0.00    +0.000 S 
ATOM      7  C   UNL     1       1.835   4.598  19.497  0.00  0.00    +0.000 A 
ATOM      8  C   UNL     1       2.742   4.617  18.452  0.00  0.00    +0.000 A 
ATOM      9  C   UNL     1       3.169   5.955  18.156  0.00  0.00    +0.000 A 
ATOM     10  C   UNL     1       3.202   3.358  17.773  0.00  0.00    +0.000 C 
ATOM     11  C   UNL     1       2.270   2.171  18.057  0.00  0.00    +0.000 C 
ATOM     12  C   UNL     1       1.855   2.103  19.534  0.00  0.00    +0.000 C 
ATOM     13  C   UNL     1       1.119   3.376  19.988  0.00  0.00    +0.000 C 
BRANCH   9  14
ATOM     14  C   UNL     1       4.162   6.293  17.177  0.00  0.00    +0.000 C 
ATOM     15  N   UNL     1       4.936   6.501  16.342  0.00  0.00    +0.000 NA
ENDBRANCH   9  14
ENDBRANCH   3   5
BRANCH   1  16
ATOM     16  C   UNL     1       1.843  10.460  18.324  0.00  0.00    +0.000 C 
BRANCH  16  20
ATOM     17  N   UNL     1      -0.387  11.660  22.431  0.00  0.00    +0.000 NA
ATOM     18  C   UNL     1      -0.066  11.588  21.195  0.00  0.00    +0.000 C 
ATOM     19  S   UNL     1      -0.226  10.203  20.156  0.00  0.00    +0.000 S 
ATOM     20  C   UNL     1       0.493  11.054  18.717  0.00  0.00    +0.000 C 
ATOM     21  C   UNL     1       0.670  12.494  19.166  0.00  0.00    +0.000 C 
ATOM     22  O   UNL     1       0.986  13.397  18.397  0.00  0.00    +0.000 OA
ATOM     23  N   UNL     1       0.474  12.648  20.523  0.00  0.00    +0.000 N 
BRANCH  17  25
ATOM     24  C   UNL     1       0.095   9.541  23.470  0.00  0.00    +0.000 C 
ATOM     25  C   UNL     1      -1.007  10.514  23.087  0.00  0.00    +0.000 C 
ENDBRANCH  17  25
BRANCH  23  26
ATOM     26  C   UNL     1       0.756  13.916  21.190  0.00  0.00    +0.000 C 
ATOM     27  C   UNL     1       2.240  14.181  21.384  0.00  0.00    +0.000 C 
ENDBRANCH  23  26
ENDBRANCH  16  20
ENDBRANCH   1  16
TORSDOF 6
ENDMDL
MODEL 4
REMARK VINA RESULT:      -6.5      2.204      2.693
REMARK  Name = 
REMARK  8 active torsions:
REMARK  status: ('A' for Active; 'I' for Inactive)
REMARK    1  A    between atoms: C_1  and  C_2
REMARK    2  A    between atoms: C_2  and  N_3
REMARK    3  A    between atoms: C_6  and  C_7
REMARK    4  A    between atoms: C_7  and  C_8
REMARK    5  A    between atoms: N_10  and  C_11
REMARK    6  A    between atoms: C_15  and  C_16
REMARK    7  A    between atoms: N_24  and  C_25
REMARK    8  A    between atoms: C_25  and  C_26
REMARK                            x       y       z     vdW  Elec       q    Type
REMARK                         _______ _______ _______ _____ _____    ______ ____
ROOT
ATOM      1  C   UNL     1       1.276   9.809  18.531  0.00  0.00    +0.000 C 
ATOM      2  O   UNL     1       1.898  10.856  18.684  0.00  0.00    +0.000 OA
ATOM      3  N   UNL     1       0.036   9.526  19.091  0.00  0.00    +0.000 N 
ATOM      4  H   UNL     1      -0.126   8.566  19.371  0.00  0.00    +0.000 HD
ENDROOT
BRANCH   3   5
ATOM      5  C   UNL     1      -0.560  10.492  19.884  0.00  0.00    +0.000 A 
ATOM      6  S   UNL     1      -1.567  11.577  19.048  0.00  0.00    +0.000 S 
ATOM      7  C   UNL     1      -2.078  12.298  20.508  0.00  0.00    +0.000 A 
ATOM      8  C   UNL     1      -1.388  11.813  21.605  0.00  0.00    +0.000 A 
ATOM      9  C   UNL     1      -0.495  10.753  21.234  0.00  0.00    +0.000 A 
ATOM     10  C   UNL     1      -1.574  12.388  22.980  0.00  0.00    +0.000 C 
ATOM     11  C   UNL     1      -2.863  13.215  23.094  0.00  0.00    +0.000 C 
ATOM     12  C   UNL     1      -3.071  14.130  21.879  0.00  0.00    +0.000 C 
ATOM     13  C   UNL     1      -3.159  13.335  20.564  0.00  0.00    +0.000 C 
BRANCH   9  14
ATOM     14  C   UNL     1       0.411  10.100  22.135  0.00  0.00    +0.000 C 
ATOM     15  N   UNL     1       1.175   9.535  22.795  0.00  0.00    +0.000 NA
ENDBRANCH   9  14
ENDBRANCH   3   5
BRANCH   1  16
ATOM     16  C   UNL     1       1.863   8.662  17.733  0.00  0.00    +0.000 C 
BRANCH  16  20
ATOM     17  N   UNL     1       2.069   4.177  19.500  0.00  0.00    +0.000 NA
ATOM     18  C   UNL     1       2.404   5.342  19.088  0.00  0.00    +0.000 C 
ATOM     19  S   UNL     1       2.021   6.862  19.838  0.00  0.00    +0.000 S 
ATOM     20  C   UNL     1       2.855   7.841  18.552  0.00  0.00    +0.000 C 
ATOM     21  C   UNL     1       3.537   6.814  17.664  0.00  0.00    +0.000 C 
ATOM     22  O   UNL     1       4.329   7.121  16.778  0.00  0.00    +0.000 OA
ATOM     23  N   UNL     1       3.132   5.525  17.947  0.00  0.00    +0.000 N 
BRANCH  17  25
ATOM     24  C   UNL     1       2.142   3.129  21.667  0.00  0.00    +0.000 C 
ATOM     25  C   UNL     1       1.335   4.035  20.752  0.00  0.00    +0.000 C 
ENDBRANCH  17  25
BRANCH  23  26
ATOM     26  C   UNL     1       3.537   4.402  17.105  0.00  0.00    +0.000 C 
ATOM     27  C   UNL     1       4.936   3.891  17.411  0.00  0.00    +0.000 C 
ENDBRANCH  23  26
ENDBRANCH  16  20
ENDBRANCH   1  16
TORSDOF 6
ENDMDL
MODEL 5
REMARK VINA RESULT:      -6.4      2.154      9.073
REMARK  Name = 
REMARK  8 active torsions:
REMARK  status: ('A' for Active; 'I' for Inactive)
REMARK    1  A    between atoms: C_1  and  C_2
REMARK    2  A    between atoms: C_2  and  N_3
REMARK    3  A    between atoms: C_6  and  C_7
REMARK    4  A    between atoms: C_7  and  C_8
REMARK    5  A    between atoms: N_10  and  C_11
REMARK    6  A    between atoms: C_15  and  C_16
REMARK    7  A    between atoms: N_24  and  C_25
REMARK    8  A    between atoms: C_25  and  C_26
REMARK                            x       y       z     vdW  Elec       q    Type
REMARK                         _______ _______ _______ _____ _____    ______ ____
ROOT
ATOM      1  C   UNL     1       1.981   8.467  18.609  0.00  0.00    +0.000 C 
ATOM      2  O   UNL     1       2.132   8.933  17.484  0.00  0.00    +0.000 OA
ATOM      3  N   UNL     1       2.567   7.296  19.075  0.00  0.00    +0.000 N 
ATOM      4  H   UNL     1       2.015   6.736  19.713  0.00  0.00    +0.000 HD
ENDROOT
BRANCH   3   5
ATOM      5  C   UNL     1       3.394   6.591  18.216  0.00  0.00    +0.000 A 
ATOM      6  S   UNL     1       4.826   7.399  17.782  0.00  0.00    +0.000 S 
ATOM      7  C   UNL     1       5.405   6.022  16.957  0.00  0.00    +0.000 A 
ATOM      8  C   UNL     1       4.463   5.010  16.894  0.00  0.00    +0.000 A 
ATOM      9  C   UNL     1       3.282   5.349  17.634  0.00  0.00    +0.000 A 
ATOM     10  C   UNL     1       4.699   3.752  16.108  0.00  0.00    +0.000 C 
ATOM     11  C   UNL     1       6.184   3.542  15.778  0.00  0.00    +0.000 C 
ATOM     12  C   UNL     1       6.861   4.839  15.312  0.00  0.00    +0.000 C 
ATOM     13  C   UNL     1       6.786   5.946  16.378  0.00  0.00    +0.000 C 
BRANCH   9  14
ATOM     14  C   UNL     1       2.100   4.537  17.695  0.00  0.00    +0.000 C 
ATOM     15  N   UNL     1       1.121   3.931  17.807  0.00  0.00    +0.000 NA
ENDBRANCH   9  14
ENDBRANCH   3   5
BRANCH   1  16
ATOM     16  C   UNL     1       1.051   9.125  19.608  0.00  0.00    +0.000 C 
BRANCH  16  20
ATOM     17  N   UNL     1      -2.851  11.963  19.616  0.00  0.00    +0.000 NA
ATOM     18  C   UNL     1      -1.636  11.561  19.604  0.00  0.00    +0.000 C 
ATOM     19  S   UNL     1      -0.836  10.701  18.322  0.00  0.00    +0.000 S 
ATOM     20  C   UNL     1       0.734  10.570  19.232  0.00  0.00    +0.000 C 
ATOM     21  C   UNL     1       0.525  11.399  20.488  0.00  0.00    +0.000 C 
ATOM     22  O   UNL     1       1.435  11.669  21.266  0.00  0.00    +0.000 OA
ATOM     23  N   UNL     1      -0.793  11.769  20.658  0.00  0.00    +0.000 N 
BRANCH  17  25
ATOM     24  C   UNL     1      -5.143  11.773  18.899  0.00  0.00    +0.000 C 
ATOM     25  C   UNL     1      -3.694  11.759  18.443  0.00  0.00    +0.000 C 
ENDBRANCH  17  25
BRANCH  23  26
ATOM     26  C   UNL     1      -1.243  12.428  21.882  0.00  0.00    +0.000 C 
ATOM     27  C   UNL     1      -1.573  11.458  23.005  0.00  0.00    +0.000 C 
ENDBRANCH  23  26
ENDBRANCH  16  20
ENDBRANCH   1  16
TORSDOF 6
ENDMDL
MODEL 6
REMARK VINA RESULT:      -6.4      2.263      3.485
REMARK  Name = 
REMARK  8 active torsions:
REMARK  status: ('A' for Active; 'I' for Inactive)
REMARK    1  A    between atoms: C_1  and  C_2
REMARK    2  A    between atoms: C_2  and  N_3
REMARK    3  A    between atoms: C_6  and  C_7
REMARK    4  A    between atoms: C_7  and  C_8
REMARK    5  A    between atoms: N_10  and  C_11
REMARK    6  A    between atoms: C_15  and  C_16
REMARK    7  A    between atoms: N_24  and  C_25
REMARK    8  A    between atoms: C_25  and  C_26
REMARK                            x       y       z     vdW  Elec       q    Type
REMARK                         _______ _______ _______ _____ _____    ______ ____
ROOT
ATOM      1  C   UNL     1       1.805   7.214  20.108  0.00  0.00    +0.000 C 
ATOM      2  O   UNL     1       0.908   6.865  20.870  0.00  0.00    +0.000 OA
ATOM      3  N   UNL     1       1.937   8.483  19.557  0.00  0.00    +0.000 N 
ATOM      4  H   UNL     1       2.302   8.531  18.613  0.00  0.00    +0.000 HD
ENDROOT
BRANCH   3   5
ATOM      5  C   UNL     1       0.994   9.441  19.886  0.00  0.00    +0.000 A 
ATOM      6  S   UNL     1       0.241  10.187  18.557  0.00  0.00    +0.000 S 
ATOM      7  C   UNL     1      -0.835  11.027  19.581  0.00  0.00    +0.000 A 
ATOM      8  C   UNL     1      -0.535  10.850  20.920  0.00  0.00    +0.000 A 
ATOM      9  C   UNL     1       0.541   9.918  21.095  0.00  0.00    +0.000 A 
ATOM     10  C   UNL     1      -1.265  11.593  22.003  0.00  0.00    +0.000 C 
ATOM     11  C   UNL     1      -2.591  12.188  21.509  0.00  0.00    +0.000 C 
ATOM     12  C   UNL     1      -2.448  12.849  20.130  0.00  0.00    +0.000 C 
ATOM     13  C   UNL     1      -1.971  11.854  19.058  0.00  0.00    +0.000 C 
BRANCH   9  14
ATOM     14  C   UNL     1       1.130   9.585  22.361  0.00  0.00    +0.000 C 
ATOM     15  N   UNL     1       1.648   9.388  23.376  0.00  0.00    +0.000 NA
ENDBRANCH   9  14
ENDBRANCH   3   5
BRANCH   1  16
ATOM     16  C   UNL     1       2.854   6.229  19.634  0.00  0.00    +0.000 C 
BRANCH  16  20
ATOM     17  N   UNL     1       5.283   3.644  16.364  0.00  0.00    +0.000 NA
ATOM     18  C   UNL     1       4.350   4.278  16.967  0.00  0.00    +0.000 C 
ATOM     19  S   UNL     1       4.275   5.989  17.263  0.00  0.00    +0.000 S 
ATOM     20  C   UNL     1       2.693   5.884  18.156  0.00  0.00    +0.000 C 
ATOM     21  C   UNL     1       2.257   4.437  18.004  0.00  0.00    +0.000 C 
ATOM     22  O   UNL     1       1.150   4.037  18.347  0.00  0.00    +0.000 OA
ATOM     23  N   UNL     1       3.255   3.641  17.480  0.00  0.00    +0.000 N 
BRANCH  17  25
ATOM     24  C   UNL     1       6.355   4.206  14.282  0.00  0.00    +0.000 C 
ATOM     25  C   UNL     1       6.405   4.379  15.791  0.00  0.00    +0.000 C 
ENDBRANCH  17  25
BRANCH  23  26
ATOM     26  C   UNL     1       3.106   2.190  17.405  0.00  0.00    +0.000 C 
ATOM     27  C   UNL     1       3.560   1.470  18.664  0.00  0.00    +0.000 C 
ENDBRANCH  23  26
ENDBRANCH  16  20
ENDBRANCH   1  16
TORSDOF 6
ENDMDL
MODEL 7
REMARK VINA RESULT:      -6.4      1.214      1.289
REMARK  Name = 
REMARK  8 active torsions:
REMARK  status: ('A' for Active; 'I' for Inactive)
REMARK    1  A    between atoms: C_1  and  C_2
REMARK    2  A    between atoms: C_2  and  N_3
REMARK    3  A    between atoms: C_6  and  C_7
REMARK    4  A    between atoms: C_7  and  C_8
REMARK    5  A    between atoms: N_10  and  C_11
REMARK    6  A    between atoms: C_15  and  C_16
REMARK    7  A    between atoms: N_24  and  C_25
REMARK    8  A    between atoms: C_25  and  C_26
REMARK                            x       y       z     vdW  Elec       q    Type
REMARK                         _______ _______ _______ _____ _____    ______ ____
ROOT
ATOM      1  C   UNL     1       1.941   9.120  17.900  0.00  0.00    +0.000 C 
ATOM      2  O   UNL     1       2.296  10.267  17.643  0.00  0.00    +0.000 OA
ATOM      3  N   UNL     1       0.892   8.779  18.744  0.00  0.00    +0.000 N 
ATOM      4  H   UNL     1       1.011   7.939  19.298  0.00  0.00    +0.000 HD
ENDROOT
BRANCH   3   5
ATOM      5  C   UNL     1       0.176   9.800  19.346  0.00  0.00    +0.000 A 
ATOM      6  S   UNL     1       0.723  10.236  20.895  0.00  0.00    +0.000 S 
ATOM      7  C   UNL     1      -0.366  11.549  20.959  0.00  0.00    +0.000 A 
ATOM      8  C   UNL     1      -1.229  11.570  19.877  0.00  0.00    +0.000 A 
ATOM      9  C   UNL     1      -0.908  10.540  18.932  0.00  0.00    +0.000 A 
ATOM     10  C   UNL     1      -2.358  12.557  19.780  0.00  0.00    +0.000 C 
ATOM     11  C   UNL     1      -2.177  13.744  20.737  0.00  0.00    +0.000 C 
ATOM     12  C   UNL     1      -1.707  13.297  22.129  0.00  0.00    +0.000 C 
ATOM     13  C   UNL     1      -0.363  12.551  22.074  0.00  0.00    +0.000 C 
BRANCH   9  14
ATOM     14  C   UNL     1      -1.666  10.259  17.746  0.00  0.00    +0.000 C 
ATOM     15  N   UNL     1      -2.220   9.976  16.771  0.00  0.00    +0.000 NA
ENDBRANCH   9  14
ENDBRANCH   3   5
BRANCH   1  16
ATOM     16  C   UNL     1       2.693   7.928  17.344  0.00  0.00    +0.000 C 
BRANCH  16  20
ATOM     17  N   UNL     1       3.406   3.362  18.729  0.00  0.00    +0.000 NA
ATOM     18  C   UNL     1       3.555   4.621  18.560  0.00  0.00    +0.000 C 
ATOM     19  S   UNL     1       2.558   5.886  19.217  0.00  0.00    +0.000 S 
ATOM     20  C   UNL     1       3.511   7.213  18.416  0.00  0.00    +0.000 C 
ATOM     21  C   UNL     1       4.698   6.509  17.780  0.00  0.00    +0.000 C 
ATOM     22  O   UNL     1       5.643   7.115  17.285  0.00  0.00    +0.000 OA
ATOM     23  N   UNL     1       4.563   5.136  17.796  0.00  0.00    +0.000 N 
BRANCH  17  25
ATOM     24  C   UNL     1       1.238   2.313  18.714  0.00  0.00    +0.000 C 
ATOM     25  C   UNL     1       2.343   2.868  19.597  0.00  0.00    +0.000 C 
ENDBRANCH  17  25
BRANCH  23  26
ATOM     26  C   UNL     1       5.509   4.274  17.092  0.00  0.00    +0.000 C 
ATOM     27  C   UNL     1       5.266   4.208  15.593  0.00  0.00    +0.000 C 
ENDBRANCH  23  26
ENDBRANCH  16  20
ENDBRANCH   1  16
TORSDOF 6
ENDMDL
MODEL 8
REMARK VINA RESULT:      -6.3      1.184      2.123
REMARK  Name = 
REMARK  8 active torsions:
REMARK  status: ('A' for Active; 'I' for Inactive)
REMARK    1  A    between atoms: C_1  and  C_2
REMARK    2  A    between atoms: C_2  and  N_3
REMARK    3  A    between atoms: C_6  and  C_7
REMARK    4  A    between atoms: C_7  and  C_8
REMARK    5  A    between atoms: N_10  and  C_11
REMARK    6  A    between atoms: C_15  and  C_16
REMARK    7  A    between atoms: N_24  and  C_25
REMARK    8  A    between atoms: C_25  and  C_26
REMARK                            x       y       z     vdW  Elec       q    Type
REMARK                         _______ _______ _______ _____ _____    ______ ____
ROOT
ATOM      1  C   UNL     1       1.780   8.883  18.400  0.00  0.00    +0.000 C 
ATOM      2  O   UNL     1       1.678   8.717  19.612  0.00  0.00    +0.000 OA
ATOM      3  N   UNL     1       1.266   9.964  17.695  0.00  0.00    +0.000 N 
ATOM      4  H   UNL     1       0.919   9.773  16.763  0.00  0.00    +0.000 HD
ENDROOT
BRANCH   3   5
ATOM      5  C   UNL     1       0.589  10.944  18.401  0.00  0.00    +0.000 A 
ATOM      6  S   UNL     1      -1.033  10.575  18.754  0.00  0.00    +0.000 S 
ATOM      7  C   UNL     1      -1.191  11.978  19.712  0.00  0.00    +0.000 A 
ATOM      8  C   UNL     1      -0.070  12.788  19.650  0.00  0.00    +0.000 A 
ATOM      9  C   UNL     1       0.973  12.177  18.877  0.00  0.00    +0.000 A 
ATOM     10  C   UNL     1      -0.026  14.138  20.306  0.00  0.00    +0.000 C 
ATOM     11  C   UNL     1      -1.130  14.308  21.361  0.00  0.00    +0.000 C 
ATOM     12  C   UNL     1      -2.482  13.770  20.871  0.00  0.00    +0.000 C 
ATOM     13  C   UNL     1      -2.418  12.274  20.520  0.00  0.00    +0.000 C 
BRANCH   9  14
ATOM     14  C   UNL     1       2.228  12.801  18.568  0.00  0.00    +0.000 C 
ATOM     15  N   UNL     1       3.200  13.349  18.260  0.00  0.00    +0.000 NA
ENDBRANCH   9  14
ENDBRANCH   3   5
BRANCH   1  16
ATOM     16  C   UNL     1       2.449   7.843  17.525  0.00  0.00    +0.000 C 
BRANCH  16  20
ATOM     17  N   UNL     1       3.677   3.188  17.199  0.00  0.00    +0.000 NA
ATOM     18  C   UNL     1       3.667   4.426  17.522  0.00  0.00    +0.000 C 
ATOM     19  S   UNL     1       2.475   5.241  18.490  0.00  0.00    +0.000 S 
ATOM     20  C   UNL     1       3.289   6.861  18.338  0.00  0.00    +0.000 C 
ATOM     21  C   UNL     1       4.595   6.573  17.617  0.00  0.00    +0.000 C 
ATOM     22  O   UNL     1       5.479   7.413  17.482  0.00  0.00    +0.000 OA
ATOM     23  N   UNL     1       4.642   5.290  17.112  0.00  0.00    +0.000 N 
BRANCH  17  25
ATOM     24  C   UNL     1       3.269   1.392  18.752  0.00  0.00    +0.000 C 
ATOM     25  C   UNL     1       2.639   2.298  17.708  0.00  0.00    +0.000 C 
ENDBRANCH  17  25
BRANCH  23  26
ATOM     26  C   UNL     1       5.735   4.858  16.243  0.00  0.00    +0.000 C 
ATOM     27  C   UNL     1       5.501   5.175  14.775  0.00  0.00    +0.000 C 
ENDBRANCH  23  26
ENDBRANCH  16  20
ENDBRANCH   1  16
TORSDOF 6
ENDMDL
MODEL 9
REMARK VINA RESULT:      -6.2      2.056      3.397
REMARK  Name = 
REMARK  8 active torsions:
REMARK  status: ('A' for Active; 'I' for Inactive)
REMARK    1  A    between atoms: C_1  and  C_2
REMARK    2  A    between atoms: C_2  and  N_3
REMARK    3  A    between atoms: C_6  and  C_7
REMARK    4  A    between atoms: C_7  and  C_8
REMARK    5  A    between atoms: N_10  and  C_11
REMARK    6  A    between atoms: C_15  and  C_16
REMARK    7  A    between atoms: N_24  and  C_25
REMARK    8  A    between atoms: C_25  and  C_26
REMARK                            x       y       z     vdW  Elec       q    Type
REMARK                         _______ _______ _______ _____ _____    ______ ____
ROOT
ATOM      1  C   UNL     1       1.593   8.229  19.666  0.00  0.00    +0.000 C 
ATOM      2  O   UNL     1       0.855   8.013  20.624  0.00  0.00    +0.000 OA
ATOM      3  N   UNL     1       1.366   9.183  18.682  0.00  0.00    +0.000 N 
ATOM      4  H   UNL     1       1.658   8.943  17.742  0.00  0.00    +0.000 HD
ENDROOT
BRANCH   3   5
ATOM      5  C   UNL     1       0.226   9.963  18.777  0.00  0.00    +0.000 A 
ATOM      6  S   UNL     1      -0.992   9.585  17.653  0.00  0.00    +0.000 S 
ATOM      7  C   UNL     1      -2.074  10.681  18.388  0.00  0.00    +0.000 A 
ATOM      8  C   UNL     1      -1.472  11.425  19.387  0.00  0.00    +0.000 A 
ATOM      9  C   UNL     1      -0.120  11.001  19.612  0.00  0.00    +0.000 A 
ATOM     10  C   UNL     1      -2.189  12.543  20.089  0.00  0.00    +0.000 C 
ATOM     11  C   UNL     1      -3.711  12.469  19.895  0.00  0.00    +0.000 C 
ATOM     12  C   UNL     1      -4.092  12.146  18.443  0.00  0.00    +0.000 C 
ATOM     13  C   UNL     1      -3.511  10.800  17.977  0.00  0.00    +0.000 C 
BRANCH   9  14
ATOM     14  C   UNL     1       0.788  11.629  20.530  0.00  0.00    +0.000 C 
ATOM     15  N   UNL     1       1.565  12.066  21.267  0.00  0.00    +0.000 NA
ENDBRANCH   9  14
ENDBRANCH   3   5
BRANCH   1  16
ATOM     16  C   UNL     1       2.835   7.392  19.433  0.00  0.00    +0.000 C 
BRANCH  16  20
ATOM     17  N   UNL     1       5.778   4.495  16.939  0.00  0.00    +0.000 NA
ATOM     18  C   UNL     1       4.732   5.101  17.357  0.00  0.00    +0.000 C 
ATOM     19  S   UNL     1       4.380   6.797  17.207  0.00  0.00    +0.000 S 
ATOM     20  C   UNL     1       2.795   6.666  18.091  0.00  0.00    +0.000 C 
ATOM     21  C   UNL     1       2.596   5.176  18.312  0.00  0.00    +0.000 C 
ATOM     22  O   UNL     1       1.550   4.702  18.742  0.00  0.00    +0.000 OA
ATOM     23  N   UNL     1       3.728   4.446  18.012  0.00  0.00    +0.000 N 
BRANCH  17  25
ATOM     24  C   UNL     1       6.782   4.741  14.764  0.00  0.00    +0.000 C 
ATOM     25  C   UNL     1       6.797   5.234  16.201  0.00  0.00    +0.000 C 
ENDBRANCH  17  25
BRANCH  23  26
ATOM     26  C   UNL     1       3.809   3.018  18.309  0.00  0.00    +0.000 C 
ATOM     27  C   UNL     1       4.300   2.721  19.716  0.00  0.00    +0.000 C 
ENDBRANCH  23  26
ENDBRANCH  16  20
ENDBRANCH   1  16
TORSDOF 6
ENDMDL
