MODEL 1
REMARK VINA RESULT:      -7.2      0.000      0.000
REMARK  Name = 
REMARK  7 active torsions:
REMARK  status: ('A' for Active; 'I' for Inactive)
REMARK    1  A    between atoms: C_1  and  O_2
REMARK    2  A    between atoms: O_2  and  C_3
REMARK    3  A    between atoms: C_3  and  C_4
REMARK    4  A    between atoms: C_4  and  N_5
REMARK    5  A    between atoms: N_5  and  C_6
REMARK    6  A    between atoms: C_7  and  C_8
REMARK    7  A    between atoms: C_11  and  C_12
REMARK                            x       y       z     vdW  Elec       q    Type
REMARK                         _______ _______ _______ _____ _____    ______ ____
ROOT
ATOM      1  C   UNL     1       4.395   3.853  17.939  0.00  0.00    +0.000 A 
ATOM      2  C   UNL     1       4.854   4.825  18.822  0.00  0.00    +0.000 A 
ATOM      3  N   UNL     1       3.958   5.063  19.839  0.00  0.00    +0.000 NA
ATOM      4  C   UNL     1       2.960   4.239  19.610  0.00  0.00    +0.000 A 
ATOM      5  C   UNL     1       1.748   4.044  20.334  0.00  0.00    +0.000 A 
ATOM      6  C   UNL     1       0.861   3.117  19.926  0.00  0.00    +0.000 A 
ATOM      7  C   UNL     1       1.121   2.287  18.764  0.00  0.00    +0.000 A 
ATOM      8  C   UNL     1       2.263   2.464  18.079  0.00  0.00    +0.000 A 
ATOM      9  N   UNL     1       3.176   3.450  18.476  0.00  0.00    +0.000 N 
ENDROOT
BRANCH   2  10
ATOM     10  C   UNL     1       6.096   5.600  18.760  0.00  0.00    +0.000 A 
ATOM     11  C   UNL     1       7.239   5.411  19.504  0.00  0.00    +0.000 A 
ATOM     12  N   UNL     1       8.099   6.390  19.099  0.00  0.00    +0.000 N 
ATOM     13  C   UNL     1       7.460   7.142  18.141  0.00  0.00    +0.000 A 
ATOM     14  C   UNL     1       8.097   8.314  17.497  0.00  0.00    +0.000 C 
ATOM     15  N   UNL     1       6.247   6.681  17.914  0.00  0.00    +0.000 NA
ATOM     16  H   UNL     1       9.034   6.546  19.447  0.00  0.00    +0.000 HD
ENDBRANCH   2  10
BRANCH   1  17
ATOM     17  N   UNL     1       5.002   3.355  16.817  0.00  0.00    +0.000 N 
ATOM     18  H   UNL     1       5.726   2.647  16.991  0.00  0.00    +0.000 HD
BRANCH  17  19
ATOM     19  C   UNL     1       5.198   4.107  15.585  0.00  0.00    +0.000 C 
BRANCH  19  20
ATOM     20  C   UNL     1       6.676   4.160  15.179  0.00  0.00    +0.000 C 
BRANCH  20  22
ATOM     21  C   UNL     1       6.264   3.654  12.913  0.00  0.00    +0.000 C 
ATOM     22  O   UNL     1       6.789   4.604  13.825  0.00  0.00    +0.000 OA
ENDBRANCH  20  22
ENDBRANCH  19  20
ENDBRANCH  17  19
ENDBRANCH   1  17
TORSDOF 5
ENDMDL
MODEL 2
REMARK VINA RESULT:      -7.1      1.659      3.593
REMARK  Name = 
REMARK  7 active torsions:
REMARK  status: ('A' for Active; 'I' for Inactive)
REMARK    1  A    between atoms: C_1  and  O_2
REMARK    2  A    between atoms: O_2  and  C_3
REMARK    3  A    between atoms: C_3  and  C_4
REMARK    4  A    between atoms: C_4  and  N_5
REMARK    5  A    between atoms: N_5  and  C_6
REMARK    6  A    between atoms: C_7  and  C_8
REMARK    7  A    between atoms: C_11  and  C_12
REMARK                            x       y       z     vdW  Elec       q    Type
REMARK                         _______ _______ _______ _____ _____    ______ ____
ROOT
ATOM      1  C   UNL     1       4.528   3.943  18.749  0.00  0.00    +0.000 A 
ATOM      2  C   UNL     1       4.092   4.166  17.447  0.00  0.00    +0.000 A 
ATOM      3  N   UNL     1       2.765   3.838  17.284  0.00  0.00    +0.000 NA
ATOM      4  C   UNL     1       2.369   3.434  18.470  0.00  0.00    +0.000 A 
ATOM      5  C   UNL     1       1.092   2.970  18.901  0.00  0.00    +0.000 A 
ATOM      6  C   UNL     1       0.899   2.622  20.187  0.00  0.00    +0.000 A 
ATOM      7  C   UNL     1       1.969   2.727  21.162  0.00  0.00    +0.000 A 
ATOM      8  C   UNL     1       3.174   3.166  20.764  0.00  0.00    +0.000 A 
ATOM      9  N   UNL     1       3.392   3.499  19.420  0.00  0.00    +0.000 N 
ENDROOT
BRANCH   2  10
ATOM     10  C   UNL     1       4.862   4.644  16.296  0.00  0.00    +0.000 A 
ATOM     11  C   UNL     1       5.077   5.950  15.917  0.00  0.00    +0.000 A 
ATOM     12  N   UNL     1       5.830   5.876  14.781  0.00  0.00    +0.000 N 
ATOM     13  C   UNL     1       6.040   4.546  14.501  0.00  0.00    +0.000 A 
ATOM     14  C   UNL     1       6.804   4.097  13.313  0.00  0.00    +0.000 C 
ATOM     15  N   UNL     1       5.468   3.779  15.406  0.00  0.00    +0.000 NA
ATOM     16  H   UNL     1       6.165   6.656  14.235  0.00  0.00    +0.000 HD
ENDBRANCH   2  10
BRANCH   1  17
ATOM     17  N   UNL     1       5.771   4.148  19.287  0.00  0.00    +0.000 N 
ATOM     18  H   UNL     1       6.032   3.499  20.040  0.00  0.00    +0.000 HD
BRANCH  17  19
ATOM     19  C   UNL     1       6.425   5.447  19.375  0.00  0.00    +0.000 C 
BRANCH  19  20
ATOM     20  C   UNL     1       7.802   5.439  18.700  0.00  0.00    +0.000 C 
BRANCH  20  22
ATOM     21  C   UNL     1       7.755   7.590  17.737  0.00  0.00    +0.000 C 
ATOM     22  O   UNL     1       7.750   6.194  17.488  0.00  0.00    +0.000 OA
ENDBRANCH  20  22
ENDBRANCH  19  20
ENDBRANCH  17  19
ENDBRANCH   1  17
TORSDOF 5
ENDMDL
MODEL 3
REMARK VINA RESULT:      -6.9      2.879      4.027
REMARK  Name = 
REMARK  7 active torsions:
REMARK  status: ('A' for Active; 'I' for Inactive)
REMARK    1  A    between atoms: C_1  and  O_2
REMARK    2  A    between atoms: O_2  and  C_3
REMARK    3  A    between atoms: C_3  and  C_4
REMARK    4  A    between atoms: C_4  and  N_5
REMARK    5  A    between atoms: N_5  and  C_6
REMARK    6  A    between atoms: C_7  and  C_8
REMARK    7  A    between atoms: C_11  and  C_12
REMARK                            x       y       z     vdW  Elec       q    Type
REMARK                         _______ _______ _______ _____ _____    ______ ____
ROOT
ATOM      1  C   UNL     1       3.426   4.718  18.488  0.00  0.00    +0.000 A 
ATOM      2  C   UNL     1       4.658   4.080  18.383  0.00  0.00    +0.000 A 
ATOM      3  N   UNL     1       4.818   3.104  19.341  0.00  0.00    +0.000 NA
ATOM      4  C   UNL     1       3.696   3.115  20.024  0.00  0.00    +0.000 A 
ATOM      5  C   UNL     1       3.293   2.322  21.138  0.00  0.00    +0.000 A 
ATOM      6  C   UNL     1       2.071   2.489  21.677  0.00  0.00    +0.000 A 
ATOM      7  C   UNL     1       1.134   3.455  21.135  0.00  0.00    +0.000 A 
ATOM      8  C   UNL     1       1.507   4.204  20.084  0.00  0.00    +0.000 A 
ATOM      9  N   UNL     1       2.789   4.061  19.537  0.00  0.00    +0.000 N 
ENDROOT
BRANCH   2  10
ATOM     10  C   UNL     1       5.749   4.353  17.444  0.00  0.00    +0.000 A 
ATOM     11  C   UNL     1       7.063   4.631  17.746  0.00  0.00    +0.000 A 
ATOM     12  N   UNL     1       7.676   4.829  16.543  0.00  0.00    +0.000 N 
ATOM     13  C   UNL     1       6.728   4.678  15.558  0.00  0.00    +0.000 A 
ATOM     14  C   UNL     1       7.043   4.851  14.120  0.00  0.00    +0.000 C 
ATOM     15  N   UNL     1       5.553   4.384  16.077  0.00  0.00    +0.000 NA
ATOM     16  H   UNL     1       8.648   5.059  16.398  0.00  0.00    +0.000 HD
ENDBRANCH   2  10
BRANCH   1  17
ATOM     17  N   UNL     1       2.913   5.729  17.720  0.00  0.00    +0.000 N 
ATOM     18  H   UNL     1       2.837   5.519  16.717  0.00  0.00    +0.000 HD
BRANCH  17  19
ATOM     19  C   UNL     1       3.072   7.147  18.015  0.00  0.00    +0.000 C 
BRANCH  19  20
ATOM     20  C   UNL     1       2.313   7.554  19.283  0.00  0.00    +0.000 C 
BRANCH  20  22
ATOM     21  C   UNL     1       1.942   9.345  17.795  0.00  0.00    +0.000 C 
ATOM     22  O   UNL     1       1.627   8.788  19.060  0.00  0.00    +0.000 OA
ENDBRANCH  20  22
ENDBRANCH  19  20
ENDBRANCH  17  19
ENDBRANCH   1  17
TORSDOF 5
ENDMDL
MODEL 4
REMARK VINA RESULT:      -6.9      2.755      4.257
REMARK  Name = 
REMARK  7 active torsions:
REMARK  status: ('A' for Active; 'I' for Inactive)
REMARK    1  A    between atoms: C_1  and  O_2
REMARK    2  A    between atoms: O_2  and  C_3
REMARK    3  A    between atoms: C_3  and  C_4
REMARK    4  A    between atoms: C_4  and  N_5
REMARK    5  A    between atoms: N_5  and  C_6
REMARK    6  A    between atoms: C_7  and  C_8
REMARK    7  A    between atoms: C_11  and  C_12
REMARK                            x       y       z     vdW  Elec       q    Type
REMARK                         _______ _______ _______ _____ _____    ______ ____
ROOT
ATOM      1  C   UNL     1       3.813   5.063  18.304  0.00  0.00    +0.000 A 
ATOM      2  C   UNL     1       4.376   4.120  17.450  0.00  0.00    +0.000 A 
ATOM      3  N   UNL     1       3.783   2.884  17.581  0.00  0.00    +0.000 NA
ATOM      4  C   UNL     1       2.848   3.054  18.489  0.00  0.00    +0.000 A 
ATOM      5  C   UNL     1       1.917   2.121  19.032  0.00  0.00    +0.000 A 
ATOM      6  C   UNL     1       1.019   2.521  19.951  0.00  0.00    +0.000 A 
ATOM      7  C   UNL     1       0.961   3.902  20.394  0.00  0.00    +0.000 A 
ATOM      8  C   UNL     1       1.834   4.787  19.885  0.00  0.00    +0.000 A 
ATOM      9  N   UNL     1       2.794   4.372  18.953  0.00  0.00    +0.000 N 
ENDROOT
BRANCH   2  10
ATOM     10  C   UNL     1       5.493   4.286  16.516  0.00  0.00    +0.000 A 
ATOM     11  C   UNL     1       6.795   4.615  16.819  0.00  0.00    +0.000 A 
ATOM     12  N   UNL     1       7.442   4.670  15.618  0.00  0.00    +0.000 N 
ATOM     13  C   UNL     1       6.525   4.386  14.633  0.00  0.00    +0.000 A 
ATOM     14  C   UNL     1       6.882   4.383  13.195  0.00  0.00    +0.000 C 
ATOM     15  N   UNL     1       5.338   4.145  15.151  0.00  0.00    +0.000 NA
ATOM     16  H   UNL     1       8.417   4.890  15.475  0.00  0.00    +0.000 HD
ENDBRANCH   2  10
BRANCH   1  17
ATOM     17  N   UNL     1       4.135   6.385  18.457  0.00  0.00    +0.000 N 
ATOM     18  H   UNL     1       4.300   6.684  19.426  0.00  0.00    +0.000 HD
BRANCH  17  19
ATOM     19  C   UNL     1       3.665   7.452  17.584  0.00  0.00    +0.000 C 
BRANCH  19  20
ATOM     20  C   UNL     1       2.279   7.959  17.998  0.00  0.00    +0.000 C 
BRANCH  20  22
ATOM     21  C   UNL     1       1.584  10.190  18.315  0.00  0.00    +0.000 C 
ATOM     22  O   UNL     1       2.020   9.220  17.376  0.00  0.00    +0.000 OA
ENDBRANCH  20  22
ENDBRANCH  19  20
ENDBRANCH  17  19
ENDBRANCH   1  17
TORSDOF 5
ENDMDL
MODEL 5
REMARK VINA RESULT:      -6.9      2.686      3.883
REMARK  Name = 
REMARK  7 active torsions:
REMARK  status: ('A' for Active; 'I' for Inactive)
REMARK    1  A    between atoms: C_1  and  O_2
REMARK    2  A    between atoms: O_2  and  C_3
REMARK    3  A    between atoms: C_3  and  C_4
REMARK    4  A    between atoms: C_4  and  N_5
REMARK    5  A    between atoms: N_5  and  C_6
REMARK    6  A    between atoms: C_7  and  C_8
REMARK    7  A    between atoms: C_11  and  C_12
REMARK                            x       y       z     vdW  Elec       q    Type
REMARK                         _______ _______ _______ _____ _____    ______ ____
ROOT
ATOM      1  C   UNL     1       3.460   5.380  18.820  0.00  0.00    +0.000 A 
ATOM      2  C   UNL     1       4.437   4.953  17.926  0.00  0.00    +0.000 A 
ATOM      3  N   UNL     1       4.227   3.656  17.513  0.00  0.00    +0.000 NA
ATOM      4  C   UNL     1       3.125   3.283  18.123  0.00  0.00    +0.000 A 
ATOM      5  C   UNL     1       2.429   2.039  18.078  0.00  0.00    +0.000 A 
ATOM      6  C   UNL     1       1.290   1.878  18.776  0.00  0.00    +0.000 A 
ATOM      7  C   UNL     1       0.735   2.959  19.570  0.00  0.00    +0.000 A 
ATOM      8  C   UNL     1       1.385   4.134  19.615  0.00  0.00    +0.000 A 
ATOM      9  N   UNL     1       2.589   4.300  18.918  0.00  0.00    +0.000 N 
ENDROOT
BRANCH   2  10
ATOM     10  C   UNL     1       5.613   5.681  17.443  0.00  0.00    +0.000 A 
ATOM     11  C   UNL     1       6.411   5.363  16.367  0.00  0.00    +0.000 A 
ATOM     12  N   UNL     1       7.379   6.324  16.339  0.00  0.00    +0.000 N 
ATOM     13  C   UNL     1       7.152   7.181  17.389  0.00  0.00    +0.000 A 
ATOM     14  C   UNL     1       8.034   8.336  17.676  0.00  0.00    +0.000 C 
ATOM     15  N   UNL     1       6.085   6.817  18.071  0.00  0.00    +0.000 NA
ATOM     16  H   UNL     1       8.136   6.390  15.674  0.00  0.00    +0.000 HD
ENDBRANCH   2  10
BRANCH   1  17
ATOM     17  N   UNL     1       3.335   6.595  19.441  0.00  0.00    +0.000 N 
ATOM     18  H   UNL     1       3.570   6.599  20.441  0.00  0.00    +0.000 HD
BRANCH  17  19
ATOM     19  C   UNL     1       2.371   7.618  19.057  0.00  0.00    +0.000 C 
BRANCH  19  20
ATOM     20  C   UNL     1       2.627   8.139  17.638  0.00  0.00    +0.000 C 
BRANCH  20  22
ATOM     21  C   UNL     1       0.969   9.667  18.329  0.00  0.00    +0.000 C 
ATOM     22  O   UNL     1       2.109   9.465  17.510  0.00  0.00    +0.000 OA
ENDBRANCH  20  22
ENDBRANCH  19  20
ENDBRANCH  17  19
ENDBRANCH   1  17
TORSDOF 5
ENDMDL
MODEL 6
REMARK VINA RESULT:      -6.8      3.813      6.193
REMARK  Name = 
REMARK  7 active torsions:
REMARK  status: ('A' for Active; 'I' for Inactive)
REMARK    1  A    between atoms: C_1  and  O_2
REMARK    2  A    between atoms: O_2  and  C_3
REMARK    3  A    between atoms: C_3  and  C_4
REMARK    4  A    between atoms: C_4  and  N_5
REMARK    5  A    between atoms: N_5  and  C_6
REMARK    6  A    between atoms: C_7  and  C_8
REMARK    7  A    between atoms: C_11  and  C_12
REMARK                            x       y       z     vdW  Elec       q    Type
REMARK                         _______ _______ _______ _____ _____    ______ ____
ROOT
ATOM      1  C   UNL     1       2.785   6.065  19.563  0.00  0.00    +0.000 A 
ATOM      2  C   UNL     1       2.450   7.372  19.226  0.00  0.00    +0.000 A 
ATOM      3  N   UNL     1       3.081   7.787  18.075  0.00  0.00    +0.000 NA
ATOM      4  C   UNL     1       3.786   6.749  17.684  0.00  0.00    +0.000 A 
ATOM      5  C   UNL     1       4.642   6.595  16.555  0.00  0.00    +0.000 A 
ATOM      6  C   UNL     1       5.259   5.420  16.332  0.00  0.00    +0.000 A 
ATOM      7  C   UNL     1       5.056   4.284  17.213  0.00  0.00    +0.000 A 
ATOM      8  C   UNL     1       4.249   4.422  18.277  0.00  0.00    +0.000 A 
ATOM      9  N   UNL     1       3.629   5.652  18.536  0.00  0.00    +0.000 N 
ENDROOT
BRANCH   2  10
ATOM     10  C   UNL     1       1.582   8.307  19.948  0.00  0.00    +0.000 A 
ATOM     11  C   UNL     1       1.030   9.474  19.471  0.00  0.00    +0.000 A 
ATOM     12  N   UNL     1       0.325   9.994  20.518  0.00  0.00    +0.000 N 
ATOM     13  C   UNL     1       0.474   9.144  21.589  0.00  0.00    +0.000 A 
ATOM     14  C   UNL     1      -0.141   9.416  22.908  0.00  0.00    +0.000 C 
ATOM     15  N   UNL     1       1.227   8.112  21.268  0.00  0.00    +0.000 NA
ATOM     16  H   UNL     1      -0.203  10.854  20.514  0.00  0.00    +0.000 HD
ENDBRANCH   2  10
BRANCH   1  17
ATOM     17  N   UNL     1       2.362   5.316  20.629  0.00  0.00    +0.000 N 
ATOM     18  H   UNL     1       3.105   5.008  21.268  0.00  0.00    +0.000 HD
BRANCH  17  19
ATOM     19  C   UNL     1       1.203   4.434  20.605  0.00  0.00    +0.000 C 
BRANCH  19  20
ATOM     20  C   UNL     1       1.564   3.006  21.030  0.00  0.00    +0.000 C 
BRANCH  20  22
ATOM     21  C   UNL     1       0.933   2.476  18.821  0.00  0.00    +0.000 C 
ATOM     22  O   UNL     1       1.846   2.214  19.874  0.00  0.00    +0.000 OA
ENDBRANCH  20  22
ENDBRANCH  19  20
ENDBRANCH  17  19
ENDBRANCH   1  17
TORSDOF 5
ENDMDL
MODEL 7
REMARK VINA RESULT:      -6.8      2.483      4.343
REMARK  Name = 
REMARK  7 active torsions:
REMARK  status: ('A' for Active; 'I' for Inactive)
REMARK    1  A    between atoms: C_1  and  O_2
REMARK    2  A    between atoms: O_2  and  C_3
REMARK    3  A    between atoms: C_3  and  C_4
REMARK    4  A    between atoms: C_4  and  N_5
REMARK    5  A    between atoms: N_5  and  C_6
REMARK    6  A    between atoms: C_7  and  C_8
REMARK    7  A    between atoms: C_11  and  C_12
REMARK                            x       y       z     vdW  Elec       q    Type
REMARK                         _______ _______ _______ _____ _____    ______ ____
ROOT
ATOM      1  C   UNL     1       4.271   4.592  18.237  0.00  0.00    +0.000 A 
ATOM      2  C   UNL     1       4.719   5.388  17.188  0.00  0.00    +0.000 A 
ATOM      3  N   UNL     1       4.152   6.643  17.213  0.00  0.00    +0.000 NA
ATOM      4  C   UNL     1       3.375   6.640  18.272  0.00  0.00    +0.000 A 
ATOM      5  C   UNL     1       2.536   7.667  18.796  0.00  0.00    +0.000 A 
ATOM      6  C   UNL     1       1.831   7.453  19.923  0.00  0.00    +0.000 A 
ATOM      7  C   UNL     1       1.920   6.193  20.637  0.00  0.00    +0.000 A 
ATOM      8  C   UNL     1       2.710   5.222  20.151  0.00  0.00    +0.000 A 
ATOM      9  N   UNL     1       3.421   5.424  18.960  0.00  0.00    +0.000 N 
ENDROOT
BRANCH   2  10
ATOM     10  C   UNL     1       5.642   5.037  16.106  0.00  0.00    +0.000 A 
ATOM     11  C   UNL     1       6.995   5.288  16.044  0.00  0.00    +0.000 A 
ATOM     12  N   UNL     1       7.399   4.791  14.840  0.00  0.00    +0.000 N 
ATOM     13  C   UNL     1       6.296   4.269  14.207  0.00  0.00    +0.000 A 
ATOM     14  C   UNL     1       6.367   3.664  12.857  0.00  0.00    +0.000 C 
ATOM     15  N   UNL     1       5.219   4.400  14.956  0.00  0.00    +0.000 NA
ATOM     16  H   UNL     1       8.339   4.813  14.470  0.00  0.00    +0.000 HD
ENDBRANCH   2  10
BRANCH   1  17
ATOM     17  N   UNL     1       4.606   3.299  18.539  0.00  0.00    +0.000 N 
ATOM     18  H   UNL     1       5.535   3.002  18.214  0.00  0.00    +0.000 HD
BRANCH  17  19
ATOM     19  C   UNL     1       3.649   2.208  18.662  0.00  0.00    +0.000 C 
BRANCH  19  20
ATOM     20  C   UNL     1       2.687   2.157  17.468  0.00  0.00    +0.000 C 
BRANCH  20  22
ATOM     21  C   UNL     1       0.824   2.307  18.905  0.00  0.00    +0.000 C 
ATOM     22  O   UNL     1       1.487   2.866  17.784  0.00  0.00    +0.000 OA
ENDBRANCH  20  22
ENDBRANCH  19  20
ENDBRANCH  17  19
ENDBRANCH   1  17
TORSDOF 5
ENDMDL
MODEL 8
REMARK VINA RESULT:      -6.6      3.412      5.080
REMARK  Name = 
REMARK  7 active torsions:
REMARK  status: ('A' for Active; 'I' for Inactive)
REMARK    1  A    between atoms: C_1  and  O_2
REMARK    2  A    between atoms: O_2  and  C_3
REMARK    3  A    between atoms: C_3  and  C_4
REMARK    4  A    between atoms: C_4  and  N_5
REMARK    5  A    between atoms: N_5  and  C_6
REMARK    6  A    between atoms: C_7  and  C_8
REMARK    7  A    between atoms: C_11  and  C_12
REMARK                            x       y       z     vdW  Elec       q    Type
REMARK                         _______ _______ _______ _____ _____    ______ ____
ROOT
ATOM      1  C   UNL     1       2.801   6.526  19.628  0.00  0.00    +0.000 A 
ATOM      2  C   UNL     1       3.564   6.523  18.465  0.00  0.00    +0.000 A 
ATOM      3  N   UNL     1       3.302   7.619  17.674  0.00  0.00    +0.000 NA
ATOM      4  C   UNL     1       2.404   8.309  18.340  0.00  0.00    +0.000 A 
ATOM      5  C   UNL     1       1.758   9.536  18.007  0.00  0.00    +0.000 A 
ATOM      6  C   UNL     1       0.871  10.084  18.858  0.00  0.00    +0.000 A 
ATOM      7  C   UNL     1       0.567   9.459  20.132  0.00  0.00    +0.000 A 
ATOM      8  C   UNL     1       1.173   8.304  20.453  0.00  0.00    +0.000 A 
ATOM      9  N   UNL     1       2.073   7.709  19.558  0.00  0.00    +0.000 N 
ENDROOT
BRANCH   2  10
ATOM     10  C   UNL     1       4.525   5.517  18.006  0.00  0.00    +0.000 A 
ATOM     11  C   UNL     1       5.427   4.811  18.770  0.00  0.00    +0.000 A 
ATOM     12  N   UNL     1       6.104   4.020  17.889  0.00  0.00    +0.000 N 
ATOM     13  C   UNL     1       5.610   4.271  16.630  0.00  0.00    +0.000 A 
ATOM     14  C   UNL     1       6.139   3.599  15.421  0.00  0.00    +0.000 C 
ATOM     15  N   UNL     1       4.648   5.171  16.675  0.00  0.00    +0.000 NA
ATOM     16  H   UNL     1       6.846   3.373  18.115  0.00  0.00    +0.000 HD
ENDBRANCH   2  10
BRANCH   1  17
ATOM     17  N   UNL     1       2.785   5.611  20.647  0.00  0.00    +0.000 N 
ATOM     18  H   UNL     1       3.698   5.427  21.082  0.00  0.00    +0.000 HD
BRANCH  17  19
ATOM     19  C   UNL     1       1.855   4.493  20.734  0.00  0.00    +0.000 C 
BRANCH  19  20
ATOM     20  C   UNL     1       2.511   3.171  20.318  0.00  0.00    +0.000 C 
BRANCH  20  22
ATOM     21  C   UNL     1       3.118   1.899  18.428  0.00  0.00    +0.000 C 
ATOM     22  O   UNL     1       2.300   2.946  18.923  0.00  0.00    +0.000 OA
ENDBRANCH  20  22
ENDBRANCH  19  20
ENDBRANCH  17  19
ENDBRANCH   1  17
TORSDOF 5
ENDMDL
MODEL 9
REMARK VINA RESULT:      -6.6      2.878      4.330
REMARK  Name = 
REMARK  7 active torsions:
REMARK  status: ('A' for Active; 'I' for Inactive)
REMARK    1  A    between atoms: C_1  and  O_2
REMARK    2  A    between atoms: O_2  and  C_3
REMARK    3  A    between atoms: C_3  and  C_4
REMARK    4  A    between atoms: C_4  and  N_5
REMARK    5  A    between atoms: N_5  and  C_6
REMARK    6  A    between atoms: C_7  and  C_8
REMARK    7  A    between atoms: C_11  and  C_12
REMARK                            x       y       z     vdW  Elec       q    Type
REMARK                         _______ _______ _______ _____ _____    ______ ____
ROOT
ATOM      1  C   UNL     1       3.441   5.407  18.570  0.00  0.00    +0.000 A 
ATOM      2  C   UNL     1       4.523   4.955  17.822  0.00  0.00    +0.000 A 
ATOM      3  N   UNL     1       4.431   3.611  17.539  0.00  0.00    +0.000 NA
ATOM      4  C   UNL     1       3.298   3.229  18.085  0.00  0.00    +0.000 A 
ATOM      5  C   UNL     1       2.683   1.943  18.116  0.00  0.00    +0.000 A 
ATOM      6  C   UNL     1       1.493   1.779  18.722  0.00  0.00    +0.000 A 
ATOM      7  C   UNL     1       0.802   2.897  19.337  0.00  0.00    +0.000 A 
ATOM      8  C   UNL     1       1.374   4.112  19.309  0.00  0.00    +0.000 A 
ATOM      9  N   UNL     1       2.629   4.285  18.709  0.00  0.00    +0.000 N 
ENDROOT
BRANCH   2  10
ATOM     10  C   UNL     1       5.696   5.707  17.368  0.00  0.00    +0.000 A 
ATOM     11  C   UNL     1       6.531   5.402  16.317  0.00  0.00    +0.000 A 
ATOM     12  N   UNL     1       7.478   6.384  16.311  0.00  0.00    +0.000 N 
ATOM     13  C   UNL     1       7.202   7.241  17.350  0.00  0.00    +0.000 A 
ATOM     14  C   UNL     1       8.050   8.417  17.656  0.00  0.00    +0.000 C 
ATOM     15  N   UNL     1       6.125   6.856  18.003  0.00  0.00    +0.000 NA
ATOM     16  H   UNL     1       8.252   6.464  15.667  0.00  0.00    +0.000 HD
ENDBRANCH   2  10
BRANCH   1  17
ATOM     17  N   UNL     1       3.185   6.668  19.037  0.00  0.00    +0.000 N 
ATOM     18  H   UNL     1       2.985   6.729  20.044  0.00  0.00    +0.000 HD
BRANCH  17  19
ATOM     19  C   UNL     1       2.566   7.727  18.250  0.00  0.00    +0.000 C 
BRANCH  19  20
ATOM     20  C   UNL     1       1.674   8.630  19.110  0.00  0.00    +0.000 C 
BRANCH  20  22
ATOM     21  C   UNL     1       0.631   8.762  21.221  0.00  0.00    +0.000 C 
ATOM     22  O   UNL     1       1.658   8.152  20.457  0.00  0.00    +0.000 OA
ENDBRANCH  20  22
ENDBRANCH  19  20
ENDBRANCH  17  19
ENDBRANCH   1  17
TORSDOF 5
ENDMDL
