MODEL 1
REMARK VINA RESULT:      -8.1      0.000      0.000
REMARK  Name = 
REMARK  6 active torsions:
REMARK  status: ('A' for Active; 'I' for Inactive)
REMARK    1  A    between atoms: C_1  and  C_2
REMARK    2  A    between atoms: C_6  and  N_7
REMARK    3  A    between atoms: C_8  and  C_10
REMARK    4  A    between atoms: C_10  and  C_11
REMARK    5  A    between atoms: C_11  and  N_12
REMARK    6  A    between atoms: C_15  and  C_16
REMARK                            x       y       z     vdW  Elec       q    Type
REMARK                         _______ _______ _______ _____ _____    ______ ____
ROOT
ATOM      1  C   UNL     1       6.776   5.926  19.009  0.00  0.00    +0.000 C 
ENDROOT
BRANCH   1   2
ATOM      2  N   UNL     1       5.676   5.510  18.102  0.00  0.00    +0.000 NA
ATOM      3  C   UNL     1       5.559   4.040  18.056  0.00  0.00    +0.000 C 
ATOM      4  C   UNL     1       4.355   3.562  17.248  0.00  0.00    +0.000 C 
ATOM      5  C   UNL     1       3.047   4.212  17.697  0.00  0.00    +0.000 C 
ATOM      6  C   UNL     1       3.219   5.735  17.702  0.00  0.00    +0.000 C 
ATOM      7  C   UNL     1       4.434   6.187  18.511  0.00  0.00    +0.000 C 
BRANCH   5   8
ATOM      8  C   UNL     1       2.557   3.678  19.037  0.00  0.00    +0.000 A 
ATOM      9  C   UNL     1       1.265   3.952  19.472  0.00  0.00    +0.000 A 
ATOM     10  C   UNL     1       0.850   3.450  20.704  0.00  0.00    +0.000 A 
ATOM     11  C   UNL     1       1.723   2.687  21.467  0.00  0.00    +0.000 A 
ATOM     12  C   UNL     1       2.988   2.459  20.964  0.00  0.00    +0.000 A 
ATOM     13  N   UNL     1       3.415   2.936  19.774  0.00  0.00    +0.000 NA
ENDBRANCH   5   8
ENDBRANCH   1   2
BRANCH   1  14
ATOM     14  C   UNL     1       8.005   6.448  18.262  0.00  0.00    +0.000 C 
BRANCH  14  16
ATOM     15  N   UNL     1       8.819   8.625  18.980  0.00  0.00    +0.000 N 
ATOM     16  C   UNL     1       8.019   7.957  18.077  0.00  0.00    +0.000 C 
ATOM     17  O   UNL     1       7.290   8.473  17.235  0.00  0.00    +0.000 OA
ATOM     18  H   UNL     1       9.277   8.039  19.681  0.00  0.00    +0.000 HD
BRANCH  15  24
ATOM     19  C   UNL     1       9.573  12.573  21.809  0.00  0.00    +0.000 C 
ATOM     20  C   UNL     1       9.497  11.951  20.446  0.00  0.00    +0.000 A 
ATOM     21  C   UNL     1       9.671  12.722  19.295  0.00  0.00    +0.000 A 
ATOM     22  C   UNL     1       9.579  12.133  18.033  0.00  0.00    +0.000 A 
ATOM     23  C   UNL     1       9.293  10.778  17.907  0.00  0.00    +0.000 A 
ATOM     24  C   UNL     1       9.103   9.994  19.044  0.00  0.00    +0.000 A 
ATOM     25  C   UNL     1       9.227  10.580  20.312  0.00  0.00    +0.000 A 
ENDBRANCH  15  24
ENDBRANCH  14  16
ENDBRANCH   1  14
TORSDOF 5
ENDMDL
MODEL 2
REMARK VINA RESULT:      -8.0      1.963      3.127
REMARK  Name = 
REMARK  6 active torsions:
REMARK  status: ('A' for Active; 'I' for Inactive)
REMARK    1  A    between atoms: C_1  and  C_2
REMARK    2  A    between atoms: C_6  and  N_7
REMARK    3  A    between atoms: C_8  and  C_10
REMARK    4  A    between atoms: C_10  and  C_11
REMARK    5  A    between atoms: C_11  and  N_12
REMARK    6  A    between atoms: C_15  and  C_16
REMARK                            x       y       z     vdW  Elec       q    Type
REMARK                         _______ _______ _______ _____ _____    ______ ____
ROOT
ATOM      1  C   UNL     1       7.145   5.913  17.162  0.00  0.00    +0.000 C 
ENDROOT
BRANCH   1   2
ATOM      2  N   UNL     1       5.987   5.103  17.622  0.00  0.00    +0.000 NA
ATOM      3  C   UNL     1       5.686   5.372  19.040  0.00  0.00    +0.000 C 
ATOM      4  C   UNL     1       4.420   4.672  19.526  0.00  0.00    +0.000 C 
ATOM      5  C   UNL     1       3.210   4.957  18.635  0.00  0.00    +0.000 C 
ATOM      6  C   UNL     1       3.571   4.637  17.181  0.00  0.00    +0.000 C 
ATOM      7  C   UNL     1       4.846   5.344  16.722  0.00  0.00    +0.000 C 
BRANCH   5   8
ATOM      8  C   UNL     1       2.679   6.374  18.805  0.00  0.00    +0.000 A 
ATOM      9  C   UNL     1       2.695   7.262  17.736  0.00  0.00    +0.000 A 
ATOM     10  C   UNL     1       2.204   8.553  17.926  0.00  0.00    +0.000 A 
ATOM     11  C   UNL     1       1.707   8.925  19.169  0.00  0.00    +0.000 A 
ATOM     12  C   UNL     1       1.726   7.984  20.178  0.00  0.00    +0.000 A 
ATOM     13  N   UNL     1       2.198   6.729  20.019  0.00  0.00    +0.000 NA
ENDBRANCH   5   8
ENDBRANCH   1   2
BRANCH   1  14
ATOM     14  C   UNL     1       6.952   7.414  17.382  0.00  0.00    +0.000 C 
BRANCH  14  16
ATOM     15  N   UNL     1       8.259   9.389  17.942  0.00  0.00    +0.000 N 
ATOM     16  C   UNL     1       8.038   8.058  18.229  0.00  0.00    +0.000 C 
ATOM     17  O   UNL     1       8.680   7.372  19.018  0.00  0.00    +0.000 OA
ATOM     18  H   UNL     1       7.697   9.774  17.180  0.00  0.00    +0.000 HD
BRANCH  15  24
ATOM     19  C   UNL     1      11.829  12.733  17.466  0.00  0.00    +0.000 C 
ATOM     20  C   UNL     1      10.889  11.957  18.340  0.00  0.00    +0.000 A 
ATOM     21  C   UNL     1      10.914  12.103  19.728  0.00  0.00    +0.000 A 
ATOM     22  C   UNL     1      10.046  11.361  20.531  0.00  0.00    +0.000 A 
ATOM     23  C   UNL     1       9.162  10.452  19.959  0.00  0.00    +0.000 A 
ATOM     24  C   UNL     1       9.130  10.283  18.575  0.00  0.00    +0.000 A 
ATOM     25  C   UNL     1       9.980  11.052  17.768  0.00  0.00    +0.000 A 
ENDBRANCH  15  24
ENDBRANCH  14  16
ENDBRANCH   1  14
TORSDOF 5
ENDMDL
MODEL 3
REMARK VINA RESULT:      -7.9      4.394      6.971
REMARK  Name = 
REMARK  6 active torsions:
REMARK  status: ('A' for Active; 'I' for Inactive)
REMARK    1  A    between atoms: C_1  and  C_2
REMARK    2  A    between atoms: C_6  and  N_7
REMARK    3  A    between atoms: C_8  and  C_10
REMARK    4  A    between atoms: C_10  and  C_11
REMARK    5  A    between atoms: C_11  and  N_12
REMARK    6  A    between atoms: C_15  and  C_16
REMARK                            x       y       z     vdW  Elec       q    Type
REMARK                         _______ _______ _______ _____ _____    ______ ____
ROOT
ATOM      1  C   UNL     1       4.529   3.381  18.732  0.00  0.00    +0.000 C 
ENDROOT
BRANCH   1   2
ATOM      2  N   UNL     1       5.125   4.654  18.251  0.00  0.00    +0.000 NA
ATOM      3  C   UNL     1       6.542   4.468  17.888  0.00  0.00    +0.000 C 
ATOM      4  C   UNL     1       7.165   5.710  17.257  0.00  0.00    +0.000 C 
ATOM      5  C   UNL     1       6.352   6.243  16.076  0.00  0.00    +0.000 C 
ATOM      6  C   UNL     1       4.898   6.440  16.517  0.00  0.00    +0.000 C 
ATOM      7  C   UNL     1       4.300   5.185  17.153  0.00  0.00    +0.000 C 
BRANCH   5   8
ATOM      8  C   UNL     1       6.471   5.363  14.839  0.00  0.00    +0.000 A 
ATOM      9  C   UNL     1       5.455   4.474  14.509  0.00  0.00    +0.000 A 
ATOM     10  C   UNL     1       5.597   3.682  13.372  0.00  0.00    +0.000 A 
ATOM     11  C   UNL     1       6.740   3.796  12.591  0.00  0.00    +0.000 A 
ATOM     12  C   UNL     1       7.701   4.702  12.986  0.00  0.00    +0.000 A 
ATOM     13  N   UNL     1       7.588   5.480  14.084  0.00  0.00    +0.000 NA
ENDBRANCH   5   8
ENDBRANCH   1   2
BRANCH   1  14
ATOM     14  C   UNL     1       3.504   3.583  19.850  0.00  0.00    +0.000 C 
BRANCH  14  16
ATOM     15  N   UNL     1       2.862   5.923  20.031  0.00  0.00    +0.000 N 
ATOM     16  C   UNL     1       2.490   4.680  19.566  0.00  0.00    +0.000 C 
ATOM     17  O   UNL     1       1.417   4.394  19.042  0.00  0.00    +0.000 OA
ATOM     18  H   UNL     1       3.750   5.956  20.536  0.00  0.00    +0.000 HD
BRANCH  15  24
ATOM     19  C   UNL     1      -0.034   9.343  22.049  0.00  0.00    +0.000 C 
ATOM     20  C   UNL     1       0.775   8.853  20.885  0.00  0.00    +0.000 A 
ATOM     21  C   UNL     1       0.827   9.576  19.692  0.00  0.00    +0.000 A 
ATOM     22  C   UNL     1       1.569   9.099  18.610  0.00  0.00    +0.000 A 
ATOM     23  C   UNL     1       2.247   7.888  18.701  0.00  0.00    +0.000 A 
ATOM     24  C   UNL     1       2.196   7.145  19.879  0.00  0.00    +0.000 A 
ATOM     25  C   UNL     1       1.478   7.640  20.975  0.00  0.00    +0.000 A 
ENDBRANCH  15  24
ENDBRANCH  14  16
ENDBRANCH   1  14
TORSDOF 5
ENDMDL
MODEL 4
REMARK VINA RESULT:      -7.9      1.065      1.614
REMARK  Name = 
REMARK  6 active torsions:
REMARK  status: ('A' for Active; 'I' for Inactive)
REMARK    1  A    between atoms: C_1  and  C_2
REMARK    2  A    between atoms: C_6  and  N_7
REMARK    3  A    between atoms: C_8  and  C_10
REMARK    4  A    between atoms: C_10  and  C_11
REMARK    5  A    between atoms: C_11  and  N_12
REMARK    6  A    between atoms: C_15  and  C_16
REMARK                            x       y       z     vdW  Elec       q    Type
REMARK                         _______ _______ _______ _____ _____    ______ ____
ROOT
ATOM      1  C   UNL     1       6.372   5.921  17.682  0.00  0.00    +0.000 C 
ENDROOT
BRANCH   1   2
ATOM      2  N   UNL     1       4.993   5.605  17.229  0.00  0.00    +0.000 NA
ATOM      3  C   UNL     1       4.791   4.147  17.136  0.00  0.00    +0.000 C 
ATOM      4  C   UNL     1       3.350   3.764  16.809  0.00  0.00    +0.000 C 
ATOM      5  C   UNL     1       2.338   4.408  17.757  0.00  0.00    +0.000 C 
ATOM      6  C   UNL     1       2.579   5.920  17.794  0.00  0.00    +0.000 C 
ATOM      7  C   UNL     1       4.030   6.278  18.116  0.00  0.00    +0.000 C 
BRANCH   5   8
ATOM      8  C   UNL     1       2.355   3.781  19.145  0.00  0.00    +0.000 A 
ATOM      9  C   UNL     1       1.303   4.001  20.027  0.00  0.00    +0.000 A 
ATOM     10  C   UNL     1       1.351   3.415  21.290  0.00  0.00    +0.000 A 
ATOM     11  C   UNL     1       2.437   2.624  21.642  0.00  0.00    +0.000 A 
ATOM     12  C   UNL     1       3.439   2.455  20.709  0.00  0.00    +0.000 A 
ATOM     13  N   UNL     1       3.417   3.013  19.480  0.00  0.00    +0.000 NA
ENDBRANCH   5   8
ENDBRANCH   1   2
BRANCH   1  14
ATOM     14  C   UNL     1       6.918   7.218  17.081  0.00  0.00    +0.000 C 
BRANCH  14  16
ATOM     15  N   UNL     1       7.995   9.306  17.712  0.00  0.00    +0.000 N 
ATOM     16  C   UNL     1       7.884   7.960  17.990  0.00  0.00    +0.000 C 
ATOM     17  O   UNL     1       8.540   7.336  18.819  0.00  0.00    +0.000 OA
ATOM     18  H   UNL     1       7.447   9.638  16.917  0.00  0.00    +0.000 HD
BRANCH  15  24
ATOM     19  C   UNL     1       9.938  13.821  17.672  0.00  0.00    +0.000 C 
ATOM     20  C   UNL     1       9.686  12.525  18.384  0.00  0.00    +0.000 A 
ATOM     21  C   UNL     1      10.205  12.294  19.660  0.00  0.00    +0.000 A 
ATOM     22  C   UNL     1       9.979  11.077  20.303  0.00  0.00    +0.000 A 
ATOM     23  C   UNL     1       9.253  10.071  19.673  0.00  0.00    +0.000 A 
ATOM     24  C   UNL     1       8.738  10.277  18.394  0.00  0.00    +0.000 A 
ATOM     25  C   UNL     1       8.938  11.512  17.762  0.00  0.00    +0.000 A 
ENDBRANCH  15  24
ENDBRANCH  14  16
ENDBRANCH   1  14
TORSDOF 5
ENDMDL
MODEL 5
REMARK VINA RESULT:      -7.8      1.996      2.884
REMARK  Name = 
REMARK  6 active torsions:
REMARK  status: ('A' for Active; 'I' for Inactive)
REMARK    1  A    between atoms: C_1  and  C_2
REMARK    2  A    between atoms: C_6  and  N_7
REMARK    3  A    between atoms: C_8  and  C_10
REMARK    4  A    between atoms: C_10  and  C_11
REMARK    5  A    between atoms: C_11  and  N_12
REMARK    6  A    between atoms: C_15  and  C_16
REMARK                            x       y       z     vdW  Elec       q    Type
REMARK                         _______ _______ _______ _____ _____    ______ ____
ROOT
ATOM      1  C   UNL     1       8.031   7.590  18.047  0.00  0.00    +0.000 C 
ENDROOT
BRANCH   1   2
ATOM      2  N   UNL     1       7.321   6.722  17.072  0.00  0.00    +0.000 NA
ATOM      3  C   UNL     1       7.388   5.307  17.480  0.00  0.00    +0.000 C 
ATOM      4  C   UNL     1       6.557   4.388  16.589  0.00  0.00    +0.000 C 
ATOM      5  C   UNL     1       5.110   4.858  16.443  0.00  0.00    +0.000 C 
ATOM      6  C   UNL     1       5.101   6.323  15.994  0.00  0.00    +0.000 C 
ATOM      7  C   UNL     1       5.946   7.220  16.898  0.00  0.00    +0.000 C 
BRANCH   5   8
ATOM      8  C   UNL     1       4.290   4.631  17.706  0.00  0.00    +0.000 A 
ATOM      9  C   UNL     1       4.530   3.521  18.508  0.00  0.00    +0.000 A 
ATOM     10  C   UNL     1       3.760   3.341  19.656  0.00  0.00    +0.000 A 
ATOM     11  C   UNL     1       2.778   4.269  19.979  0.00  0.00    +0.000 A 
ATOM     12  C   UNL     1       2.604   5.344  19.132  0.00  0.00    +0.000 A 
ATOM     13  N   UNL     1       3.335   5.539  18.013  0.00  0.00    +0.000 NA
ENDBRANCH   5   8
ENDBRANCH   1   2
BRANCH   1  14
ATOM     14  C   UNL     1       7.843   9.082  17.769  0.00  0.00    +0.000 C 
BRANCH  14  16
ATOM     15  N   UNL     1       9.339  11.001  17.752  0.00  0.00    +0.000 N 
ATOM     16  C   UNL     1       8.821   9.976  18.515  0.00  0.00    +0.000 C 
ATOM     17  O   UNL     1       9.141   9.698  19.667  0.00  0.00    +0.000 OA
ATOM     18  H   UNL     1       9.034  11.021  16.777  0.00  0.00    +0.000 HD
BRANCH  15  24
ATOM     19  C   UNL     1      10.000  15.823  18.441  0.00  0.00    +0.000 C 
ATOM     20  C   UNL     1      10.526  14.420  18.508  0.00  0.00    +0.000 A 
ATOM     21  C   UNL     1      11.837  14.165  18.916  0.00  0.00    +0.000 A 
ATOM     22  C   UNL     1      12.321  12.856  18.956  0.00  0.00    +0.000 A 
ATOM     23  C   UNL     1      11.510  11.794  18.570  0.00  0.00    +0.000 A 
ATOM     24  C   UNL     1      10.203  12.029  18.147  0.00  0.00    +0.000 A 
ATOM     25  C   UNL     1       9.708  13.341  18.138  0.00  0.00    +0.000 A 
ENDBRANCH  15  24
ENDBRANCH  14  16
ENDBRANCH   1  14
TORSDOF 5
ENDMDL
MODEL 6
REMARK VINA RESULT:      -7.8      4.497      7.078
REMARK  Name = 
REMARK  6 active torsions:
REMARK  status: ('A' for Active; 'I' for Inactive)
REMARK    1  A    between atoms: C_1  and  C_2
REMARK    2  A    between atoms: C_6  and  N_7
REMARK    3  A    between atoms: C_8  and  C_10
REMARK    4  A    between atoms: C_10  and  C_11
REMARK    5  A    between atoms: C_11  and  N_12
REMARK    6  A    between atoms: C_15  and  C_16
REMARK                            x       y       z     vdW  Elec       q    Type
REMARK                         _______ _______ _______ _____ _____    ______ ____
ROOT
ATOM      1  C   UNL     1       1.766   5.739  20.441  0.00  0.00    +0.000 C 
ENDROOT
BRANCH   1   2
ATOM      2  N   UNL     1       2.086   4.520  19.654  0.00  0.00    +0.000 NA
ATOM      3  C   UNL     1       2.048   4.802  18.207  0.00  0.00    +0.000 C 
ATOM      4  C   UNL     1       2.505   3.621  17.356  0.00  0.00    +0.000 C 
ATOM      5  C   UNL     1       3.869   3.078  17.783  0.00  0.00    +0.000 C 
ATOM      6  C   UNL     1       3.843   2.780  19.285  0.00  0.00    +0.000 C 
ATOM      7  C   UNL     1       3.375   3.976  20.115  0.00  0.00    +0.000 C 
BRANCH   5   8
ATOM      8  C   UNL     1       5.015   4.003  17.393  0.00  0.00    +0.000 A 
ATOM      9  C   UNL     1       4.998   4.663  16.169  0.00  0.00    +0.000 A 
ATOM     10  C   UNL     1       6.064   5.499  15.842  0.00  0.00    +0.000 A 
ATOM     11  C   UNL     1       7.112   5.662  16.738  0.00  0.00    +0.000 A 
ATOM     12  C   UNL     1       7.053   4.972  17.931  0.00  0.00    +0.000 A 
ATOM     13  N   UNL     1       6.033   4.154  18.271  0.00  0.00    +0.000 NA
ENDBRANCH   5   8
ENDBRANCH   1   2
BRANCH   1  14
ATOM     14  C   UNL     1       2.369   7.013  19.845  0.00  0.00    +0.000 C 
BRANCH  14  16
ATOM     15  N   UNL     1       1.411   9.076  18.981  0.00  0.00    +0.000 N 
ATOM     16  C   UNL     1       1.535   8.261  20.086  0.00  0.00    +0.000 C 
ATOM     17  O   UNL     1       1.114   8.502  21.214  0.00  0.00    +0.000 OA
ATOM     18  H   UNL     1       1.916   8.767  18.147  0.00  0.00    +0.000 HD
BRANCH  15  24
ATOM     19  C   UNL     1      -2.748  11.191  17.437  0.00  0.00    +0.000 C 
ATOM     20  C   UNL     1      -1.406  11.301  18.098  0.00  0.00    +0.000 A 
ATOM     21  C   UNL     1      -0.917  12.537  18.526  0.00  0.00    +0.000 A 
ATOM     22  C   UNL     1       0.341  12.628  19.124  0.00  0.00    +0.000 A 
ATOM     23  C   UNL     1       1.131  11.493  19.279  0.00  0.00    +0.000 A 
ATOM     24  C   UNL     1       0.666  10.253  18.846  0.00  0.00    +0.000 A 
ATOM     25  C   UNL     1      -0.611  10.157  18.276  0.00  0.00    +0.000 A 
ENDBRANCH  15  24
ENDBRANCH  14  16
ENDBRANCH   1  14
TORSDOF 5
ENDMDL
MODEL 7
REMARK VINA RESULT:      -7.8      0.621      1.482
REMARK  Name = 
REMARK  6 active torsions:
REMARK  status: ('A' for Active; 'I' for Inactive)
REMARK    1  A    between atoms: C_1  and  C_2
REMARK    2  A    between atoms: C_6  and  N_7
REMARK    3  A    between atoms: C_8  and  C_10
REMARK    4  A    between atoms: C_10  and  C_11
REMARK    5  A    between atoms: C_11  and  N_12
REMARK    6  A    between atoms: C_15  and  C_16
REMARK                            x       y       z     vdW  Elec       q    Type
REMARK                         _______ _______ _______ _____ _____    ______ ____
ROOT
ATOM      1  C   UNL     1       6.814   6.063  18.860  0.00  0.00    +0.000 C 
ENDROOT
BRANCH   1   2
ATOM      2  N   UNL     1       5.707   5.708  17.934  0.00  0.00    +0.000 NA
ATOM      3  C   UNL     1       5.522   4.246  17.872  0.00  0.00    +0.000 C 
ATOM      4  C   UNL     1       4.308   3.833  17.044  0.00  0.00    +0.000 C 
ATOM      5  C   UNL     1       3.026   4.540  17.483  0.00  0.00    +0.000 C 
ATOM      6  C   UNL     1       3.269   6.052  17.505  0.00  0.00    +0.000 C 
ATOM      7  C   UNL     1       4.494   6.439  18.334  0.00  0.00    +0.000 C 
BRANCH   5   8
ATOM      8  C   UNL     1       2.493   4.017  18.811  0.00  0.00    +0.000 A 
ATOM      9  C   UNL     1       1.849   4.874  19.695  0.00  0.00    +0.000 A 
ATOM     10  C   UNL     1       1.377   4.363  20.903  0.00  0.00    +0.000 A 
ATOM     11  C   UNL     1       1.552   3.017  21.197  0.00  0.00    +0.000 A 
ATOM     12  C   UNL     1       2.201   2.233  20.266  0.00  0.00    +0.000 A 
ATOM     13  N   UNL     1       2.669   2.704  19.090  0.00  0.00    +0.000 NA
ENDBRANCH   5   8
ENDBRANCH   1   2
BRANCH   1  14
ATOM     14  C   UNL     1       8.032   6.648  18.142  0.00  0.00    +0.000 C 
BRANCH  14  16
ATOM     15  N   UNL     1       8.939   8.710  19.061  0.00  0.00    +0.000 N 
ATOM     16  C   UNL     1       8.072   8.168  18.136  0.00  0.00    +0.000 C 
ATOM     17  O   UNL     1       7.308   8.794  17.406  0.00  0.00    +0.000 OA
ATOM     18  H   UNL     1       9.423   8.037  19.658  0.00  0.00    +0.000 HD
BRANCH  15  24
ATOM     19  C   UNL     1      10.575  12.924  17.131  0.00  0.00    +0.000 C 
ATOM     20  C   UNL     1      10.054  12.154  18.308  0.00  0.00    +0.000 A 
ATOM     21  C   UNL     1       9.930  12.757  19.562  0.00  0.00    +0.000 A 
ATOM     22  C   UNL     1       9.461  12.024  20.653  0.00  0.00    +0.000 A 
ATOM     23  C   UNL     1       9.132  10.680  20.509  0.00  0.00    +0.000 A 
ATOM     24  C   UNL     1       9.260  10.057  19.269  0.00  0.00    +0.000 A 
ATOM     25  C   UNL     1       9.701  10.802  18.166  0.00  0.00    +0.000 A 
ENDBRANCH  15  24
ENDBRANCH  14  16
ENDBRANCH   1  14
TORSDOF 5
ENDMDL
MODEL 8
REMARK VINA RESULT:      -7.7      1.613      2.268
REMARK  Name = 
REMARK  6 active torsions:
REMARK  status: ('A' for Active; 'I' for Inactive)
REMARK    1  A    between atoms: C_1  and  C_2
REMARK    2  A    between atoms: C_6  and  N_7
REMARK    3  A    between atoms: C_8  and  C_10
REMARK    4  A    between atoms: C_10  and  C_11
REMARK    5  A    between atoms: C_11  and  N_12
REMARK    6  A    between atoms: C_15  and  C_16
REMARK                            x       y       z     vdW  Elec       q    Type
REMARK                         _______ _______ _______ _____ _____    ______ ____
ROOT
ATOM      1  C   UNL     1       7.123   6.154  17.001  0.00  0.00    +0.000 C 
ENDROOT
BRANCH   1   2
ATOM      2  N   UNL     1       6.135   5.114  17.388  0.00  0.00    +0.000 NA
ATOM      3  C   UNL     1       5.973   5.061  18.853  0.00  0.00    +0.000 C 
ATOM      4  C   UNL     1       4.869   4.106  19.297  0.00  0.00    +0.000 C 
ATOM      5  C   UNL     1       3.537   4.378  18.598  0.00  0.00    +0.000 C 
ATOM      6  C   UNL     1       3.760   4.397  17.083  0.00  0.00    +0.000 C 
ATOM      7  C   UNL     1       4.876   5.355  16.665  0.00  0.00    +0.000 C 
BRANCH   5   8
ATOM      8  C   UNL     1       2.859   5.645  19.103  0.00  0.00    +0.000 A 
ATOM      9  C   UNL     1       2.183   5.643  20.318  0.00  0.00    +0.000 A 
ATOM     10  C   UNL     1       1.571   6.818  20.749  0.00  0.00    +0.000 A 
ATOM     11  C   UNL     1       1.650   7.963  19.967  0.00  0.00    +0.000 A 
ATOM     12  C   UNL     1       2.340   7.882  18.775  0.00  0.00    +0.000 A 
ATOM     13  N   UNL     1       2.940   6.755  18.334  0.00  0.00    +0.000 NA
ENDBRANCH   5   8
ENDBRANCH   1   2
BRANCH   1  14
ATOM     14  C   UNL     1       7.814   6.801  18.203  0.00  0.00    +0.000 C 
BRANCH  14  16
ATOM     15  N   UNL     1       8.868   8.839  19.015  0.00  0.00    +0.000 N 
ATOM     16  C   UNL     1       8.043   8.297  18.052  0.00  0.00    +0.000 C 
ATOM     17  O   UNL     1       7.443   8.918  17.179  0.00  0.00    +0.000 OA
ATOM     18  H   UNL     1       9.199   8.187  19.728  0.00  0.00    +0.000 HD
BRANCH  15  24
ATOM     19  C   UNL     1       9.553  12.763  21.893  0.00  0.00    +0.000 C 
ATOM     20  C   UNL     1       9.688  12.098  20.556  0.00  0.00    +0.000 A 
ATOM     21  C   UNL     1      10.223  12.784  19.464  0.00  0.00    +0.000 A 
ATOM     22  C   UNL     1      10.326  12.159  18.220  0.00  0.00    +0.000 A 
ATOM     23  C   UNL     1       9.878  10.853  18.049  0.00  0.00    +0.000 A 
ATOM     24  C   UNL     1       9.329  10.156  19.124  0.00  0.00    +0.000 A 
ATOM     25  C   UNL     1       9.256  10.773  20.380  0.00  0.00    +0.000 A 
ENDBRANCH  15  24
ENDBRANCH  14  16
ENDBRANCH   1  14
TORSDOF 5
ENDMDL
MODEL 9
REMARK VINA RESULT:      -7.7      2.382      9.970
REMARK  Name = 
REMARK  6 active torsions:
REMARK  status: ('A' for Active; 'I' for Inactive)
REMARK    1  A    between atoms: C_1  and  C_2
REMARK    2  A    between atoms: C_6  and  N_7
REMARK    3  A    between atoms: C_8  and  C_10
REMARK    4  A    between atoms: C_10  and  C_11
REMARK    5  A    between atoms: C_11  and  N_12
REMARK    6  A    between atoms: C_15  and  C_16
REMARK                            x       y       z     vdW  Elec       q    Type
REMARK                         _______ _______ _______ _____ _____    ______ ____
ROOT
ATOM      1  C   UNL     1       8.535   9.874  18.895  0.00  0.00    +0.000 C 
ENDROOT
BRANCH   1   2
ATOM      2  N   UNL     1       9.861  10.532  19.022  0.00  0.00    +0.000 NA
ATOM      3  C   UNL     1      10.162  11.346  17.829  0.00  0.00    +0.000 C 
ATOM      4  C   UNL     1      11.449  12.154  17.967  0.00  0.00    +0.000 C 
ATOM      5  C   UNL     1      11.483  12.998  19.241  0.00  0.00    +0.000 C 
ATOM      6  C   UNL     1      11.190  12.099  20.446  0.00  0.00    +0.000 C 
ATOM      7  C   UNL     1       9.900  11.295  20.281  0.00  0.00    +0.000 C 
BRANCH   5   8
ATOM      8  C   UNL     1      10.552  14.201  19.171  0.00  0.00    +0.000 A 
ATOM      9  C   UNL     1       9.810  14.579  20.284  0.00  0.00    +0.000 A 
ATOM     10  C   UNL     1       8.964  15.683  20.186  0.00  0.00    +0.000 A 
ATOM     11  C   UNL     1       8.882  16.383  18.989  0.00  0.00    +0.000 A 
ATOM     12  C   UNL     1       9.651  15.943  17.932  0.00  0.00    +0.000 A 
ATOM     13  N   UNL     1      10.476  14.876  18.001  0.00  0.00    +0.000 NA
ENDBRANCH   5   8
ENDBRANCH   1   2
BRANCH   1  14
ATOM     14  C   UNL     1       8.381   9.082  17.596  0.00  0.00    +0.000 C 
BRANCH  14  16
ATOM     15  N   UNL     1       6.699   7.449  16.944  0.00  0.00    +0.000 N 
ATOM     16  C   UNL     1       7.763   7.705  17.782  0.00  0.00    +0.000 C 
ATOM     17  O   UNL     1       8.170   6.973  18.680  0.00  0.00    +0.000 OA
ATOM     18  H   UNL     1       6.432   8.217  16.325  0.00  0.00    +0.000 HD
BRANCH  15  24
ATOM     19  C   UNL     1       2.548   5.026  17.974  0.00  0.00    +0.000 C 
ATOM     20  C   UNL     1       3.891   5.071  17.307  0.00  0.00    +0.000 A 
ATOM     21  C   UNL     1       4.386   3.963  16.615  0.00  0.00    +0.000 A 
ATOM     22  C   UNL     1       5.645   4.013  16.014  0.00  0.00    +0.000 A 
ATOM     23  C   UNL     1       6.430   5.157  16.116  0.00  0.00    +0.000 A 
ATOM     24  C   UNL     1       5.958   6.269  16.813  0.00  0.00    +0.000 A 
ATOM     25  C   UNL     1       4.681   6.230  17.388  0.00  0.00    +0.000 A 
ENDBRANCH  15  24
ENDBRANCH  14  16
ENDBRANCH   1  14
TORSDOF 5
ENDMDL
