MODEL 1
REMARK VINA RESULT:      -7.8      0.000      0.000
REMARK  Name = 
REMARK  7 active torsions:
REMARK  status: ('A' for Active; 'I' for Inactive)
REMARK    1  A    between atoms: C_1  and  C_2
REMARK    2  A    between atoms: C_2  and  C_3
REMARK    3  A    between atoms: C_3  and  C_4
REMARK    4  A    between atoms: C_3  and  N_5
REMARK    5  A    between atoms: C_6  and  C_8
REMARK    6  A    between atoms: C_11  and  C_12
REMARK    7  A    between atoms: C_12  and  N_13
REMARK                            x       y       z     vdW  Elec       q    Type
REMARK                         _______ _______ _______ _____ _____    ______ ____
ROOT
ATOM      1  C   UNL     1       0.835  11.438  19.062  0.00  0.00    +0.000 C 
ENDROOT
BRANCH   1   2
ATOM      2  N   UNL     1      -0.431  11.633  19.754  0.00  0.00    +0.000 N 
ATOM      3  C   UNL     1      -0.428  12.089  21.069  0.00  0.00    +0.000 A 
ATOM      4  O   UNL     1       0.605  12.194  21.735  0.00  0.00    +0.000 OA
ATOM      5  C   UNL     1      -1.716  12.456  21.599  0.00  0.00    +0.000 A 
ATOM      6  C   UNL     1      -2.052  12.958  22.842  0.00  0.00    +0.000 A 
ATOM      7  C   UNL     1      -3.439  13.230  22.833  0.00  0.00    +0.000 A 
ATOM      8  C   UNL     1      -3.915  12.872  21.590  0.00  0.00    +0.000 A 
ATOM      9  N   UNL     1      -2.863  12.389  20.845  0.00  0.00    +0.000 N 
ATOM     10  C   UNL     1      -2.851  11.917  19.525  0.00  0.00    +0.000 A 
ATOM     11  C   UNL     1      -3.988  11.910  18.716  0.00  0.00    +0.000 A 
ATOM     12  C   UNL     1      -3.869  11.479  17.399  0.00  0.00    +0.000 A 
ATOM     13  C   UNL     1      -2.635  11.033  16.964  0.00  0.00    +0.000 A 
ATOM     14  N   UNL     1      -1.532  11.017  17.739  0.00  0.00    +0.000 NA
ATOM     15  C   UNL     1      -1.627  11.500  19.000  0.00  0.00    +0.000 A 
ENDBRANCH   1   2
BRANCH   1  19
ATOM     16  C   UNL     1       2.299   7.366  18.968  0.00  0.00    +0.000 A 
ATOM     17  C   UNL     1       2.331   8.159  17.818  0.00  0.00    +0.000 A 
ATOM     18  C   UNL     1       1.829   9.457  17.848  0.00  0.00    +0.000 A 
ATOM     19  C   UNL     1       1.279   9.983  19.023  0.00  0.00    +0.000 A 
ATOM     20  C   UNL     1       1.186   9.154  20.155  0.00  0.00    +0.000 A 
ATOM     21  C   UNL     1       1.696   7.852  20.132  0.00  0.00    +0.000 A 
BRANCH  16  23
ATOM     22  N   UNL     1       3.153   5.460  17.737  0.00  0.00    +0.000 N 
ATOM     23  C   UNL     1       2.913   6.017  18.978  0.00  0.00    +0.000 C 
ATOM     24  O   UNL     1       3.200   5.470  20.039  0.00  0.00    +0.000 OA
ATOM     25  H   UNL     1       3.049   6.041  16.911  0.00  0.00    +0.000 HD
BRANCH  22  26
ATOM     26  C   UNL     1       3.753   4.148  17.581  0.00  0.00    +0.000 C 
ATOM     27  C   UNL     1       4.802   4.171  16.468  0.00  0.00    +0.000 C 
BRANCH  26  29
ATOM     28  C   UNL     1       2.401   2.176  18.482  0.00  0.00    +0.000 C 
ATOM     29  C   UNL     1       2.674   3.092  17.292  0.00  0.00    +0.000 C 
ENDBRANCH  26  29
ENDBRANCH  22  26
ENDBRANCH  16  23
ENDBRANCH   1  19
TORSDOF 5
ENDMDL
MODEL 2
REMARK VINA RESULT:      -7.8      0.996      1.247
REMARK  Name = 
REMARK  7 active torsions:
REMARK  status: ('A' for Active; 'I' for Inactive)
REMARK    1  A    between atoms: C_1  and  C_2
REMARK    2  A    between atoms: C_2  and  C_3
REMARK    3  A    between atoms: C_3  and  C_4
REMARK    4  A    between atoms: C_3  and  N_5
REMARK    5  A    between atoms: C_6  and  C_8
REMARK    6  A    between atoms: C_11  and  C_12
REMARK    7  A    between atoms: C_12  and  N_13
REMARK                            x       y       z     vdW  Elec       q    Type
REMARK                         _______ _______ _______ _____ _____    ______ ____
ROOT
ATOM      1  C   UNL     1       0.633  11.511  19.384  0.00  0.00    +0.000 C 
ENDROOT
BRANCH   1   2
ATOM      2  N   UNL     1      -0.712  11.673  19.918  0.00  0.00    +0.000 N 
ATOM      3  C   UNL     1      -0.879  12.114  21.227  0.00  0.00    +0.000 A 
ATOM      4  O   UNL     1       0.062  12.234  22.015  0.00  0.00    +0.000 OA
ATOM      5  C   UNL     1      -2.230  12.448  21.599  0.00  0.00    +0.000 A 
ATOM      6  C   UNL     1      -2.726  12.931  22.795  0.00  0.00    +0.000 A 
ATOM      7  C   UNL     1      -4.107  13.174  22.619  0.00  0.00    +0.000 A 
ATOM      8  C   UNL     1      -4.420  12.819  21.324  0.00  0.00    +0.000 A 
ATOM      9  N   UNL     1      -3.274  12.366  20.710  0.00  0.00    +0.000 N 
ATOM     10  C   UNL     1      -3.091  11.908  19.397  0.00  0.00    +0.000 A 
ATOM     11  C   UNL     1      -4.121  11.886  18.455  0.00  0.00    +0.000 A 
ATOM     12  C   UNL     1      -3.832  11.471  17.159  0.00  0.00    +0.000 A 
ATOM     13  C   UNL     1      -2.545  11.055  16.875  0.00  0.00    +0.000 A 
ATOM     14  N   UNL     1      -1.545  11.055  17.779  0.00  0.00    +0.000 NA
ATOM     15  C   UNL     1      -1.804  11.523  19.023  0.00  0.00    +0.000 A 
ENDBRANCH   1   2
BRANCH   1  19
ATOM     16  C   UNL     1       2.133   7.453  19.273  0.00  0.00    +0.000 A 
ATOM     17  C   UNL     1       2.165   8.253  18.127  0.00  0.00    +0.000 A 
ATOM     18  C   UNL     1       1.651   9.547  18.163  0.00  0.00    +0.000 A 
ATOM     19  C   UNL     1       1.090  10.061  19.339  0.00  0.00    +0.000 A 
ATOM     20  C   UNL     1       0.998   9.223  20.465  0.00  0.00    +0.000 A 
ATOM     21  C   UNL     1       1.519   7.926  20.437  0.00  0.00    +0.000 A 
BRANCH  16  23
ATOM     22  N   UNL     1       1.884   5.042  19.342  0.00  0.00    +0.000 N 
ATOM     23  C   UNL     1       2.759   6.109  19.278  0.00  0.00    +0.000 C 
ATOM     24  O   UNL     1       3.979   5.989  19.203  0.00  0.00    +0.000 OA
ATOM     25  H   UNL     1       0.890   5.215  19.228  0.00  0.00    +0.000 HD
BRANCH  22  26
ATOM     26  C   UNL     1       2.342   3.665  19.352  0.00  0.00    +0.000 C 
ATOM     27  C   UNL     1       2.560   3.166  17.923  0.00  0.00    +0.000 C 
BRANCH  26  29
ATOM     28  C   UNL     1       1.622   2.674  21.594  0.00  0.00    +0.000 C 
ATOM     29  C   UNL     1       1.341   2.768  20.097  0.00  0.00    +0.000 C 
ENDBRANCH  26  29
ENDBRANCH  22  26
ENDBRANCH  16  23
ENDBRANCH   1  19
TORSDOF 5
ENDMDL
MODEL 3
REMARK VINA RESULT:      -7.7      1.010      1.152
REMARK  Name = 
REMARK  7 active torsions:
REMARK  status: ('A' for Active; 'I' for Inactive)
REMARK    1  A    between atoms: C_1  and  C_2
REMARK    2  A    between atoms: C_2  and  C_3
REMARK    3  A    between atoms: C_3  and  C_4
REMARK    4  A    between atoms: C_3  and  N_5
REMARK    5  A    between atoms: C_6  and  C_8
REMARK    6  A    between atoms: C_11  and  C_12
REMARK    7  A    between atoms: C_12  and  N_13
REMARK                            x       y       z     vdW  Elec       q    Type
REMARK                         _______ _______ _______ _____ _____    ______ ____
ROOT
ATOM      1  C   UNL     1       0.474  11.451  18.776  0.00  0.00    +0.000 C 
ENDROOT
BRANCH   1   2
ATOM      2  N   UNL     1      -0.895  11.616  19.243  0.00  0.00    +0.000 N 
ATOM      3  C   UNL     1      -1.129  12.202  20.483  0.00  0.00    +0.000 A 
ATOM      4  O   UNL     1      -0.223  12.457  21.281  0.00  0.00    +0.000 OA
ATOM      5  C   UNL     1      -2.504  12.518  20.768  0.00  0.00    +0.000 A 
ATOM      6  C   UNL     1      -3.064  13.117  21.881  0.00  0.00    +0.000 A 
ATOM      7  C   UNL     1      -4.446  13.276  21.632  0.00  0.00    +0.000 A 
ATOM      8  C   UNL     1      -4.696  12.756  20.380  0.00  0.00    +0.000 A 
ATOM      9  N   UNL     1      -3.511  12.285  19.862  0.00  0.00    +0.000 N 
ATOM     10  C   UNL     1      -3.260  11.682  18.621  0.00  0.00    +0.000 A 
ATOM     11  C   UNL     1      -4.253  11.503  17.656  0.00  0.00    +0.000 A 
ATOM     12  C   UNL     1      -3.899  10.950  16.429  0.00  0.00    +0.000 A 
ATOM     13  C   UNL     1      -2.587  10.561  16.239  0.00  0.00    +0.000 A 
ATOM     14  N   UNL     1      -1.622  10.712  17.168  0.00  0.00    +0.000 NA
ATOM     15  C   UNL     1      -1.946  11.312  18.337  0.00  0.00    +0.000 A 
ENDBRANCH   1   2
BRANCH   1  19
ATOM     16  C   UNL     1       2.176   7.507  19.301  0.00  0.00    +0.000 A 
ATOM     17  C   UNL     1       2.203   8.131  18.051  0.00  0.00    +0.000 A 
ATOM     18  C   UNL     1       1.625   9.387  17.884  0.00  0.00    +0.000 A 
ATOM     19  C   UNL     1       1.004  10.037  18.957  0.00  0.00    +0.000 A 
ATOM     20  C   UNL     1       0.918   9.370  20.191  0.00  0.00    +0.000 A 
ATOM     21  C   UNL     1       1.504   8.112  20.368  0.00  0.00    +0.000 A 
BRANCH  16  23
ATOM     22  N   UNL     1       3.910   5.940  18.655  0.00  0.00    +0.000 N 
ATOM     23  C   UNL     1       2.867   6.214  19.519  0.00  0.00    +0.000 C 
ATOM     24  O   UNL     1       2.524   5.470  20.434  0.00  0.00    +0.000 OA
ATOM     25  H   UNL     1       4.242   6.675  18.040  0.00  0.00    +0.000 HD
BRANCH  22  26
ATOM     26  C   UNL     1       4.686   4.717  18.743  0.00  0.00    +0.000 C 
ATOM     27  C   UNL     1       6.174   5.040  18.889  0.00  0.00    +0.000 C 
BRANCH  26  29
ATOM     28  C   UNL     1       3.632   2.576  17.831  0.00  0.00    +0.000 C 
ATOM     29  C   UNL     1       4.439   3.831  17.511  0.00  0.00    +0.000 C 
ENDBRANCH  26  29
ENDBRANCH  22  26
ENDBRANCH  16  23
ENDBRANCH   1  19
TORSDOF 5
ENDMDL
MODEL 4
REMARK VINA RESULT:      -7.7      2.393      8.549
REMARK  Name = 
REMARK  7 active torsions:
REMARK  status: ('A' for Active; 'I' for Inactive)
REMARK    1  A    between atoms: C_1  and  C_2
REMARK    2  A    between atoms: C_2  and  C_3
REMARK    3  A    between atoms: C_3  and  C_4
REMARK    4  A    between atoms: C_3  and  N_5
REMARK    5  A    between atoms: C_6  and  C_8
REMARK    6  A    between atoms: C_11  and  C_12
REMARK    7  A    between atoms: C_12  and  N_13
REMARK                            x       y       z     vdW  Elec       q    Type
REMARK                         _______ _______ _______ _____ _____    ______ ____
ROOT
ATOM      1  C   UNL     1       3.076   7.525  19.753  0.00  0.00    +0.000 C 
ENDROOT
BRANCH   1   2
ATOM      2  N   UNL     1       2.978   6.126  19.363  0.00  0.00    +0.000 N 
ATOM      3  C   UNL     1       2.014   5.316  19.957  0.00  0.00    +0.000 A 
ATOM      4  O   UNL     1       1.330   5.688  20.914  0.00  0.00    +0.000 OA
ATOM      5  C   UNL     1       1.848   4.015  19.363  0.00  0.00    +0.000 A 
ATOM      6  C   UNL     1       0.975   2.995  19.692  0.00  0.00    +0.000 A 
ATOM      7  C   UNL     1       1.155   1.957  18.750  0.00  0.00    +0.000 A 
ATOM      8  C   UNL     1       2.144   2.365  17.880  0.00  0.00    +0.000 A 
ATOM      9  N   UNL     1       2.571   3.615  18.265  0.00  0.00    +0.000 N 
ATOM     10  C   UNL     1       3.547   4.438  17.685  0.00  0.00    +0.000 A 
ATOM     11  C   UNL     1       4.241   4.085  16.526  0.00  0.00    +0.000 A 
ATOM     12  C   UNL     1       5.149   4.991  15.989  0.00  0.00    +0.000 A 
ATOM     13  C   UNL     1       5.356   6.185  16.654  0.00  0.00    +0.000 A 
ATOM     14  N   UNL     1       4.706   6.532  17.783  0.00  0.00    +0.000 NA
ATOM     15  C   UNL     1       3.772   5.684  18.272  0.00  0.00    +0.000 A 
ENDBRANCH   1   2
BRANCH   1  19
ATOM     16  C   UNL     1      -0.235  10.054  18.582  0.00  0.00    +0.000 A 
ATOM     17  C   UNL     1       0.009   9.784  19.931  0.00  0.00    +0.000 A 
ATOM     18  C   UNL     1       1.057   8.944  20.298  0.00  0.00    +0.000 A 
ATOM     19  C   UNL     1       1.873   8.353  19.326  0.00  0.00    +0.000 A 
ATOM     20  C   UNL     1       1.575   8.574  17.970  0.00  0.00    +0.000 A 
ATOM     21  C   UNL     1       0.529   9.423  17.596  0.00  0.00    +0.000 A 
BRANCH  16  23
ATOM     22  N   UNL     1      -2.412  10.469  17.597  0.00  0.00    +0.000 N 
ATOM     23  C   UNL     1      -1.285  11.019  18.179  0.00  0.00    +0.000 C 
ATOM     24  O   UNL     1      -1.141  12.221  18.386  0.00  0.00    +0.000 OA
ATOM     25  H   UNL     1      -2.530   9.461  17.618  0.00  0.00    +0.000 HD
BRANCH  22  26
ATOM     26  C   UNL     1      -3.528  11.282  17.153  0.00  0.00    +0.000 C 
ATOM     27  C   UNL     1      -4.783  10.951  17.962  0.00  0.00    +0.000 C 
BRANCH  26  29
ATOM     28  C   UNL     1      -2.929   9.964  15.048  0.00  0.00    +0.000 C 
ATOM     29  C   UNL     1      -3.779  11.079  15.650  0.00  0.00    +0.000 C 
ENDBRANCH  26  29
ENDBRANCH  22  26
ENDBRANCH  16  23
ENDBRANCH   1  19
TORSDOF 5
ENDMDL
MODEL 5
REMARK VINA RESULT:      -7.7      2.427      8.879
REMARK  Name = 
REMARK  7 active torsions:
REMARK  status: ('A' for Active; 'I' for Inactive)
REMARK    1  A    between atoms: C_1  and  C_2
REMARK    2  A    between atoms: C_2  and  C_3
REMARK    3  A    between atoms: C_3  and  C_4
REMARK    4  A    between atoms: C_3  and  N_5
REMARK    5  A    between atoms: C_6  and  C_8
REMARK    6  A    between atoms: C_11  and  C_12
REMARK    7  A    between atoms: C_12  and  N_13
REMARK                            x       y       z     vdW  Elec       q    Type
REMARK                         _______ _______ _______ _____ _____    ______ ____
ROOT
ATOM      1  C   UNL     1       3.117   6.772  19.683  0.00  0.00    +0.000 C 
ENDROOT
BRANCH   1   2
ATOM      2  N   UNL     1       3.449   5.970  18.514  0.00  0.00    +0.000 N 
ATOM      3  C   UNL     1       4.495   6.367  17.687  0.00  0.00    +0.000 A 
ATOM      4  O   UNL     1       5.066   7.454  17.809  0.00  0.00    +0.000 OA
ATOM      5  C   UNL     1       4.889   5.409  16.686  0.00  0.00    +0.000 A 
ATOM      6  C   UNL     1       5.891   5.480  15.737  0.00  0.00    +0.000 A 
ATOM      7  C   UNL     1       5.921   4.245  15.051  0.00  0.00    +0.000 A 
ATOM      8  C   UNL     1       4.926   3.458  15.591  0.00  0.00    +0.000 A 
ATOM      9  N   UNL     1       4.292   4.176  16.579  0.00  0.00    +0.000 N 
ATOM     10  C   UNL     1       3.231   3.796  17.413  0.00  0.00    +0.000 A 
ATOM     11  C   UNL     1       2.659   2.523  17.373  0.00  0.00    +0.000 A 
ATOM     12  C   UNL     1       1.650   2.215  18.279  0.00  0.00    +0.000 A 
ATOM     13  C   UNL     1       1.228   3.202  19.151  0.00  0.00    +0.000 A 
ATOM     14  N   UNL     1       1.760   4.440  19.190  0.00  0.00    +0.000 NA
ATOM     15  C   UNL     1       2.788   4.723  18.356  0.00  0.00    +0.000 A 
ENDBRANCH   1   2
BRANCH   1  19
ATOM     16  C   UNL     1       0.253   9.875  18.738  0.00  0.00    +0.000 A 
ATOM     17  C   UNL     1       1.042   9.309  17.734  0.00  0.00    +0.000 A 
ATOM     18  C   UNL     1       1.984   8.333  18.051  0.00  0.00    +0.000 A 
ATOM     19  C   UNL     1       2.160   7.913  19.375  0.00  0.00    +0.000 A 
ATOM     20  C   UNL     1       1.411   8.540  20.387  0.00  0.00    +0.000 A 
ATOM     21  C   UNL     1       0.458   9.514  20.073  0.00  0.00    +0.000 A 
BRANCH  16  23
ATOM     22  N   UNL     1      -1.686  10.457  17.403  0.00  0.00    +0.000 N 
ATOM     23  C   UNL     1      -0.818  10.845  18.405  0.00  0.00    +0.000 C 
ATOM     24  O   UNL     1      -0.912  11.905  19.018  0.00  0.00    +0.000 OA
ATOM     25  H   UNL     1      -1.648   9.501  17.065  0.00  0.00    +0.000 HD
BRANCH  22  26
ATOM     26  C   UNL     1      -2.787  11.295  16.966  0.00  0.00    +0.000 C 
ATOM     27  C   UNL     1      -4.046  10.988  17.779  0.00  0.00    +0.000 C 
BRANCH  26  29
ATOM     28  C   UNL     1      -2.987   9.643  15.027  0.00  0.00    +0.000 C 
ATOM     29  C   UNL     1      -3.048  11.105  15.463  0.00  0.00    +0.000 C 
ENDBRANCH  26  29
ENDBRANCH  22  26
ENDBRANCH  16  23
ENDBRANCH   1  19
TORSDOF 5
ENDMDL
MODEL 6
REMARK VINA RESULT:      -7.7      0.829      1.289
REMARK  Name = 
REMARK  7 active torsions:
REMARK  status: ('A' for Active; 'I' for Inactive)
REMARK    1  A    between atoms: C_1  and  C_2
REMARK    2  A    between atoms: C_2  and  C_3
REMARK    3  A    between atoms: C_3  and  C_4
REMARK    4  A    between atoms: C_3  and  N_5
REMARK    5  A    between atoms: C_6  and  C_8
REMARK    6  A    between atoms: C_11  and  C_12
REMARK    7  A    between atoms: C_12  and  N_13
REMARK                            x       y       z     vdW  Elec       q    Type
REMARK                         _______ _______ _______ _____ _____    ______ ____
ROOT
ATOM      1  C   UNL     1       0.630  11.464  18.764  0.00  0.00    +0.000 C 
ENDROOT
BRANCH   1   2
ATOM      2  N   UNL     1      -0.733  11.627  19.249  0.00  0.00    +0.000 N 
ATOM      3  C   UNL     1      -0.954  12.260  20.469  0.00  0.00    +0.000 A 
ATOM      4  O   UNL     1      -0.038  12.560  21.239  0.00  0.00    +0.000 OA
ATOM      5  C   UNL     1      -2.329  12.567  20.766  0.00  0.00    +0.000 A 
ATOM      6  C   UNL     1      -2.878  13.202  21.864  0.00  0.00    +0.000 A 
ATOM      7  C   UNL     1      -4.266  13.330  21.635  0.00  0.00    +0.000 A 
ATOM      8  C   UNL     1      -4.530  12.756  20.409  0.00  0.00    +0.000 A 
ATOM      9  N   UNL     1      -3.347  12.281  19.889  0.00  0.00    +0.000 N 
ATOM     10  C   UNL     1      -3.110  11.633  18.669  0.00  0.00    +0.000 A 
ATOM     11  C   UNL     1      -4.116  11.399  17.730  0.00  0.00    +0.000 A 
ATOM     12  C   UNL     1      -3.776  10.802  16.521  0.00  0.00    +0.000 A 
ATOM     13  C   UNL     1      -2.461  10.426  16.322  0.00  0.00    +0.000 A 
ATOM     14  N   UNL     1      -1.482  10.629  17.226  0.00  0.00    +0.000 NA
ATOM     15  C   UNL     1      -1.795  11.271  18.376  0.00  0.00    +0.000 A 
ENDBRANCH   1   2
BRANCH   1  19
ATOM     16  C   UNL     1       2.005   7.407  19.377  0.00  0.00    +0.000 A 
ATOM     17  C   UNL     1       1.440   8.131  20.430  0.00  0.00    +0.000 A 
ATOM     18  C   UNL     1       1.029   9.447  20.232  0.00  0.00    +0.000 A 
ATOM     19  C   UNL     1       1.183  10.064  18.985  0.00  0.00    +0.000 A 
ATOM     20  C   UNL     1       1.818   9.351  17.953  0.00  0.00    +0.000 A 
ATOM     21  C   UNL     1       2.225   8.027  18.144  0.00  0.00    +0.000 A 
BRANCH  16  23
ATOM     22  N   UNL     1       2.769   5.325  18.396  0.00  0.00    +0.000 N 
ATOM     23  C   UNL     1       2.361   5.977  19.544  0.00  0.00    +0.000 C 
ATOM     24  O   UNL     1       2.308   5.447  20.650  0.00  0.00    +0.000 OA
ATOM     25  H   UNL     1       2.951   5.871  17.561  0.00  0.00    +0.000 HD
BRANCH  22  26
ATOM     26  C   UNL     1       3.154   3.926  18.398  0.00  0.00    +0.000 C 
ATOM     27  C   UNL     1       4.448   3.728  17.608  0.00  0.00    +0.000 C 
BRANCH  26  29
ATOM     28  C   UNL     1       1.056   2.551  18.888  0.00  0.00    +0.000 C 
ATOM     29  C   UNL     1       2.025   3.055  17.822  0.00  0.00    +0.000 C 
ENDBRANCH  26  29
ENDBRANCH  22  26
ENDBRANCH  16  23
ENDBRANCH   1  19
TORSDOF 5
ENDMDL
MODEL 7
REMARK VINA RESULT:      -7.7      2.120      9.101
REMARK  Name = 
REMARK  7 active torsions:
REMARK  status: ('A' for Active; 'I' for Inactive)
REMARK    1  A    between atoms: C_1  and  C_2
REMARK    2  A    between atoms: C_2  and  C_3
REMARK    3  A    between atoms: C_3  and  C_4
REMARK    4  A    between atoms: C_3  and  N_5
REMARK    5  A    between atoms: C_6  and  C_8
REMARK    6  A    between atoms: C_11  and  C_12
REMARK    7  A    between atoms: C_12  and  N_13
REMARK                            x       y       z     vdW  Elec       q    Type
REMARK                         _______ _______ _______ _____ _____    ______ ____
ROOT
ATOM      1  C   UNL     1       3.335   6.746  19.531  0.00  0.00    +0.000 C 
ENDROOT
BRANCH   1   2
ATOM      2  N   UNL     1       3.675   5.910  18.389  0.00  0.00    +0.000 N 
ATOM      3  C   UNL     1       4.722   6.286  17.553  0.00  0.00    +0.000 A 
ATOM      4  O   UNL     1       5.286   7.379  17.643  0.00  0.00    +0.000 OA
ATOM      5  C   UNL     1       5.124   5.300  16.584  0.00  0.00    +0.000 A 
ATOM      6  C   UNL     1       6.129   5.347  15.636  0.00  0.00    +0.000 A 
ATOM      7  C   UNL     1       6.167   4.091  14.989  0.00  0.00    +0.000 A 
ATOM      8  C   UNL     1       5.174   3.316  15.549  0.00  0.00    +0.000 A 
ATOM      9  N   UNL     1       4.533   4.061  16.512  0.00  0.00    +0.000 N 
ATOM     10  C   UNL     1       3.471   3.702  17.354  0.00  0.00    +0.000 A 
ATOM     11  C   UNL     1       2.905   2.425  17.352  0.00  0.00    +0.000 A 
ATOM     12  C   UNL     1       1.894   2.141  18.264  0.00  0.00    +0.000 A 
ATOM     13  C   UNL     1       1.465   3.152  19.103  0.00  0.00    +0.000 A 
ATOM     14  N   UNL     1       1.990   4.393  19.105  0.00  0.00    +0.000 NA
ATOM     15  C   UNL     1       3.020   4.655  18.267  0.00  0.00    +0.000 A 
ENDBRANCH   1   2
BRANCH   1  19
ATOM     16  C   UNL     1       0.363   9.790  18.735  0.00  0.00    +0.000 A 
ATOM     17  C   UNL     1       0.551   9.304  20.031  0.00  0.00    +0.000 A 
ATOM     18  C   UNL     1       1.488   8.302  20.274  0.00  0.00    +0.000 A 
ATOM     19  C   UNL     1       2.245   7.763  19.227  0.00  0.00    +0.000 A 
ATOM     20  C   UNL     1       1.997   8.208  17.916  0.00  0.00    +0.000 A 
ATOM     21  C   UNL     1       1.064   9.219  17.668  0.00  0.00    +0.000 A 
BRANCH  16  23
ATOM     22  N   UNL     1      -1.783  10.579  17.926  0.00  0.00    +0.000 N 
ATOM     23  C   UNL     1      -0.561  10.920  18.475  0.00  0.00    +0.000 C 
ATOM     24  O   UNL     1      -0.237  12.069  18.762  0.00  0.00    +0.000 OA
ATOM     25  H   UNL     1      -2.041   9.599  17.877  0.00  0.00    +0.000 HD
BRANCH  22  26
ATOM     26  C   UNL     1      -2.795  11.571  17.617  0.00  0.00    +0.000 C 
ATOM     27  C   UNL     1      -3.728  11.771  18.813  0.00  0.00    +0.000 C 
BRANCH  26  29
ATOM     28  C   UNL     1      -2.830  10.191  15.468  0.00  0.00    +0.000 C 
ATOM     29  C   UNL     1      -3.591  11.160  16.368  0.00  0.00    +0.000 C 
ENDBRANCH  26  29
ENDBRANCH  22  26
ENDBRANCH  16  23
ENDBRANCH   1  19
TORSDOF 5
ENDMDL
MODEL 8
REMARK VINA RESULT:      -7.5      1.495      2.058
REMARK  Name = 
REMARK  7 active torsions:
REMARK  status: ('A' for Active; 'I' for Inactive)
REMARK    1  A    between atoms: C_1  and  C_2
REMARK    2  A    between atoms: C_2  and  C_3
REMARK    3  A    between atoms: C_3  and  C_4
REMARK    4  A    between atoms: C_3  and  N_5
REMARK    5  A    between atoms: C_6  and  C_8
REMARK    6  A    between atoms: C_11  and  C_12
REMARK    7  A    between atoms: C_12  and  N_13
REMARK                            x       y       z     vdW  Elec       q    Type
REMARK                         _______ _______ _______ _____ _____    ______ ____
ROOT
ATOM      1  C   UNL     1       0.165  12.125  19.022  0.00  0.00    +0.000 C 
ENDROOT
BRANCH   1   2
ATOM      2  N   UNL     1      -1.231  12.041  19.424  0.00  0.00    +0.000 N 
ATOM      3  C   UNL     1      -1.607  12.486  20.688  0.00  0.00    +0.000 A 
ATOM      4  O   UNL     1      -0.787  12.814  21.550  0.00  0.00    +0.000 OA
ATOM      5  C   UNL     1      -3.026  12.564  20.920  0.00  0.00    +0.000 A 
ATOM      6  C   UNL     1      -3.720  12.981  22.040  0.00  0.00    +0.000 A 
ATOM      7  C   UNL     1      -5.097  12.945  21.729  0.00  0.00    +0.000 A 
ATOM      8  C   UNL     1      -5.209  12.491  20.432  0.00  0.00    +0.000 A 
ATOM      9  N   UNL     1      -3.944  12.249  19.947  0.00  0.00    +0.000 N 
ATOM     10  C   UNL     1      -3.549  11.790  18.682  0.00  0.00    +0.000 A 
ATOM     11  C   UNL     1      -4.459  11.535  17.654  0.00  0.00    +0.000 A 
ATOM     12  C   UNL     1      -3.971  11.140  16.413  0.00  0.00    +0.000 A 
ATOM     13  C   UNL     1      -2.607  10.974  16.267  0.00  0.00    +0.000 A 
ATOM     14  N   UNL     1      -1.718  11.199  17.255  0.00  0.00    +0.000 NA
ATOM     15  C   UNL     1      -2.182  11.650  18.445  0.00  0.00    +0.000 A 
ENDBRANCH   1   2
BRANCH   1  19
ATOM     16  C   UNL     1       2.014   8.213  19.061  0.00  0.00    +0.000 A 
ATOM     17  C   UNL     1       1.321   8.681  20.180  0.00  0.00    +0.000 A 
ATOM     18  C   UNL     1       0.757   9.954  20.171  0.00  0.00    +0.000 A 
ATOM     19  C   UNL     1       0.880  10.783  19.050  0.00  0.00    +0.000 A 
ATOM     20  C   UNL     1       1.640  10.330  17.957  0.00  0.00    +0.000 A 
ATOM     21  C   UNL     1       2.203   9.050  17.957  0.00  0.00    +0.000 A 
BRANCH  16  23
ATOM     22  N   UNL     1       1.960   5.940  19.905  0.00  0.00    +0.000 N 
ATOM     23  C   UNL     1       2.540   6.827  19.018  0.00  0.00    +0.000 C 
ATOM     24  O   UNL     1       3.418   6.518  18.218  0.00  0.00    +0.000 OA
ATOM     25  H   UNL     1       1.128   6.227  20.410  0.00  0.00    +0.000 HD
BRANCH  22  26
ATOM     26  C   UNL     1       2.364   4.548  19.982  0.00  0.00    +0.000 C 
ATOM     27  C   UNL     1       1.569   3.707  18.982  0.00  0.00    +0.000 C 
BRANCH  26  29
ATOM     28  C   UNL     1       1.430   2.686  21.460  0.00  0.00    +0.000 C 
ATOM     29  C   UNL     1       2.183   4.012  21.411  0.00  0.00    +0.000 C 
ENDBRANCH  26  29
ENDBRANCH  22  26
ENDBRANCH  16  23
ENDBRANCH   1  19
TORSDOF 5
ENDMDL
MODEL 9
REMARK VINA RESULT:      -7.5      1.196      1.734
REMARK  Name = 
REMARK  7 active torsions:
REMARK  status: ('A' for Active; 'I' for Inactive)
REMARK    1  A    between atoms: C_1  and  C_2
REMARK    2  A    between atoms: C_2  and  C_3
REMARK    3  A    between atoms: C_3  and  C_4
REMARK    4  A    between atoms: C_3  and  N_5
REMARK    5  A    between atoms: C_6  and  C_8
REMARK    6  A    between atoms: C_11  and  C_12
REMARK    7  A    between atoms: C_12  and  N_13
REMARK                            x       y       z     vdW  Elec       q    Type
REMARK                         _______ _______ _______ _____ _____    ______ ____
ROOT
ATOM      1  C   UNL     1       1.233  10.483  18.669  0.00  0.00    +0.000 C 
ENDROOT
BRANCH   1   2
ATOM      2  N   UNL     1       0.006  10.985  19.271  0.00  0.00    +0.000 N 
ATOM      3  C   UNL     1       0.078  11.769  20.419  0.00  0.00    +0.000 A 
ATOM      4  O   UNL     1       1.127  11.939  21.045  0.00  0.00    +0.000 OA
ATOM      5  C   UNL     1      -1.156  12.394  20.819  0.00  0.00    +0.000 A 
ATOM      6  C   UNL     1      -1.418  13.239  21.881  0.00  0.00    +0.000 A 
ATOM      7  C   UNL     1      -2.769  13.642  21.785  0.00  0.00    +0.000 A 
ATOM      8  C   UNL     1      -3.300  13.020  20.676  0.00  0.00    +0.000 A 
ATOM      9  N   UNL     1      -2.316  12.251  20.097  0.00  0.00    +0.000 N 
ATOM     10  C   UNL     1      -2.375  11.448  18.949  0.00  0.00    +0.000 A 
ATOM     11  C   UNL     1      -3.521  11.346  18.157  0.00  0.00    +0.000 A 
ATOM     12  C   UNL     1      -3.469  10.572  17.003  0.00  0.00    +0.000 A 
ATOM     13  C   UNL     1      -2.295   9.902  16.715  0.00  0.00    +0.000 A 
ATOM     14  N   UNL     1      -1.187   9.977  17.479  0.00  0.00    +0.000 NA
ATOM     15  C   UNL     1      -1.210  10.783  18.566  0.00  0.00    +0.000 A 
ENDBRANCH   1   2
BRANCH   1  19
ATOM     16  C   UNL     1       2.115   6.463  20.005  0.00  0.00    +0.000 A 
ATOM     17  C   UNL     1       1.467   7.365  20.852  0.00  0.00    +0.000 A 
ATOM     18  C   UNL     1       1.216   8.667  20.426  0.00  0.00    +0.000 A 
ATOM     19  C   UNL     1       1.612   9.092  19.152  0.00  0.00    +0.000 A 
ATOM     20  C   UNL     1       2.326   8.198  18.335  0.00  0.00    +0.000 A 
ATOM     21  C   UNL     1       2.575   6.887  18.755  0.00  0.00    +0.000 A 
BRANCH  16  23
ATOM     22  N   UNL     1       2.737   4.196  19.407  0.00  0.00    +0.000 N 
ATOM     23  C   UNL     1       2.307   5.049  20.406  0.00  0.00    +0.000 C 
ATOM     24  O   UNL     1       2.110   4.697  21.566  0.00  0.00    +0.000 OA
ATOM     25  H   UNL     1       3.041   4.592  18.524  0.00  0.00    +0.000 HD
BRANCH  22  26
ATOM     26  C   UNL     1       2.974   2.784  19.644  0.00  0.00    +0.000 C 
ATOM     27  C   UNL     1       4.469   2.518  19.824  0.00  0.00    +0.000 C 
BRANCH  26  29
ATOM     28  C   UNL     1       2.748   2.499  17.115  0.00  0.00    +0.000 C 
ATOM     29  C   UNL     1       2.403   1.941  18.493  0.00  0.00    +0.000 C 
ENDBRANCH  26  29
ENDBRANCH  22  26
ENDBRANCH  16  23
ENDBRANCH   1  19
TORSDOF 5
ENDMDL
