MODEL 1
REMARK VINA RESULT:      -8.6      0.000      0.000
REMARK  Name = 
REMARK  4 active torsions:
REMARK  status: ('A' for Active; 'I' for Inactive)
REMARK    1  A    between atoms: C_1  and  C_2
REMARK    2  A    between atoms: C_9  and  O_10
REMARK    3  A    between atoms: O_10  and  C_11
REMARK    4  A    between atoms: C_16  and  C_17
REMARK                            x       y       z     vdW  Elec       q    Type
REMARK                         _______ _______ _______ _____ _____    ______ ____
ROOT
ATOM      1  C   UNL     1      -1.572  12.052  22.802  0.00  0.00    +0.000 C 
ATOM      2  C   UNL     1      -0.829  11.136  21.894  0.00  0.00    +0.000 A 
ATOM      3  C   UNL     1      -0.797  11.298  20.511  0.00  0.00    +0.000 A 
ATOM      4  C   UNL     1      -0.040  10.420  19.727  0.00  0.00    +0.000 A 
ATOM      5  C   UNL     1       0.666   9.378  20.326  0.00  0.00    +0.000 A 
ATOM      6  N   UNL     1       1.498   8.517  19.632  0.00  0.00    +0.000 N 
ATOM      7  C   UNL     1       1.606   7.164  20.193  0.00  0.00    +0.000 C 
ATOM      8  C   UNL     1       2.996   6.608  19.910  0.00  0.00    +0.000 C 
ATOM      9  C   UNL     1       3.273   6.625  18.407  0.00  0.00    +0.000 C 
ATOM     10  C   UNL     1       3.148   8.062  17.894  0.00  0.00    +0.000 C 
ATOM     11  C   UNL     1       1.770   8.649  18.203  0.00  0.00    +0.000 C 
ATOM     12  N   UNL     1       0.598   9.208  21.666  0.00  0.00    +0.000 NA
ATOM     13  C   UNL     1      -0.123  10.068  22.410  0.00  0.00    +0.000 A 
ENDROOT
BRANCH   9  14
ATOM     14  O   UNL     1       2.306   5.818  17.704  0.00  0.00    +0.000 OA
BRANCH  14  15
ATOM     15  C   UNL     1       2.443   4.456  17.872  0.00  0.00    +0.000 A 
ATOM     16  N   UNL     1       1.364   3.765  18.306  0.00  0.00    +0.000 NA
ATOM     17  C   UNL     1       1.512   2.443  18.491  0.00  0.00    +0.000 A 
ATOM     18  C   UNL     1       2.704   1.775  18.293  0.00  0.00    +0.000 A 
ATOM     19  C   UNL     1       3.800   2.499  17.832  0.00  0.00    +0.000 A 
ATOM     20  C   UNL     1       3.687   3.875  17.584  0.00  0.00    +0.000 A 
BRANCH  20  21
ATOM     21  C   UNL     1       4.801   4.656  16.898  0.00  0.00    +0.000 C 
ATOM     22  C   UNL     1       5.207   3.929  15.601  0.00  0.00    +0.000 C 
ATOM     23  C   UNL     1       6.328   4.663  14.875  0.00  0.00    +0.000 C 
ATOM     24  O   UNL     1       7.446   4.890  15.732  0.00  0.00    +0.000 OA
ATOM     25  C   UNL     1       7.108   5.648  16.893  0.00  0.00    +0.000 C 
ATOM     26  C   UNL     1       6.074   4.899  17.732  0.00  0.00    +0.000 C 
ENDBRANCH  20  21
ENDBRANCH  14  15
ENDBRANCH   9  14
TORSDOF 3
ENDMDL
MODEL 2
REMARK VINA RESULT:      -7.6      3.349      8.780
REMARK  Name = 
REMARK  4 active torsions:
REMARK  status: ('A' for Active; 'I' for Inactive)
REMARK    1  A    between atoms: C_1  and  C_2
REMARK    2  A    between atoms: C_9  and  O_10
REMARK    3  A    between atoms: O_10  and  C_11
REMARK    4  A    between atoms: C_16  and  C_17
REMARK                            x       y       z     vdW  Elec       q    Type
REMARK                         _______ _______ _______ _____ _____    ______ ____
ROOT
ATOM      1  C   UNL     1       4.515   4.496  17.535  0.00  0.00    +0.000 C 
ATOM      2  C   UNL     1       3.735   5.625  18.111  0.00  0.00    +0.000 A 
ATOM      3  C   UNL     1       3.640   6.873  17.500  0.00  0.00    +0.000 A 
ATOM      4  C   UNL     1       2.852   7.872  18.082  0.00  0.00    +0.000 A 
ATOM      5  C   UNL     1       2.178   7.625  19.276  0.00  0.00    +0.000 A 
ATOM      6  N   UNL     1       1.318   8.531  19.873  0.00  0.00    +0.000 N 
ATOM      7  C   UNL     1       1.240   8.448  21.338  0.00  0.00    +0.000 C 
ATOM      8  C   UNL     1      -0.159   8.842  21.793  0.00  0.00    +0.000 C 
ATOM      9  C   UNL     1      -0.504  10.241  21.283  0.00  0.00    +0.000 C 
ATOM     10  C   UNL     1      -0.406  10.252  19.756  0.00  0.00    +0.000 C 
ATOM     11  C   UNL     1       0.982   9.822  19.279  0.00  0.00    +0.000 C 
ATOM     12  N   UNL     1       2.306   6.422  19.879  0.00  0.00    +0.000 NA
ATOM     13  C   UNL     1       3.056   5.465  19.303  0.00  0.00    +0.000 A 
ENDROOT
BRANCH   9  14
ATOM     14  O   UNL     1       0.434  11.212  21.793  0.00  0.00    +0.000 OA
BRANCH  14  15
ATOM     15  C   UNL     1      -0.112  12.429  22.145  0.00  0.00    +0.000 A 
ATOM     16  N   UNL     1      -1.067  12.436  23.103  0.00  0.00    +0.000 NA
ATOM     17  C   UNL     1      -1.610  13.622  23.424  0.00  0.00    +0.000 A 
ATOM     18  C   UNL     1      -1.268  14.808  22.805  0.00  0.00    +0.000 A 
ATOM     19  C   UNL     1      -0.273  14.784  21.832  0.00  0.00    +0.000 A 
ATOM     20  C   UNL     1       0.355  13.578  21.490  0.00  0.00    +0.000 A 
BRANCH  20  21
ATOM     21  C   UNL     1       1.574  13.545  20.577  0.00  0.00    +0.000 C 
ATOM     22  C   UNL     1       2.499  14.729  20.920  0.00  0.00    +0.000 C 
ATOM     23  C   UNL     1       3.735  14.751  20.030  0.00  0.00    +0.000 C 
ATOM     24  O   UNL     1       3.384  14.733  18.647  0.00  0.00    +0.000 OA
ATOM     25  C   UNL     1       2.609  13.590  18.289  0.00  0.00    +0.000 C 
ATOM     26  C   UNL     1       1.291  13.580  19.062  0.00  0.00    +0.000 C 
ENDBRANCH  20  21
ENDBRANCH  14  15
ENDBRANCH   9  14
TORSDOF 3
ENDMDL
MODEL 3
REMARK VINA RESULT:      -7.5      1.021      1.145
REMARK  Name = 
REMARK  4 active torsions:
REMARK  status: ('A' for Active; 'I' for Inactive)
REMARK    1  A    between atoms: C_1  and  C_2
REMARK    2  A    between atoms: C_9  and  O_10
REMARK    3  A    between atoms: O_10  and  C_11
REMARK    4  A    between atoms: C_16  and  C_17
REMARK                            x       y       z     vdW  Elec       q    Type
REMARK                         _______ _______ _______ _____ _____    ______ ____
ROOT
ATOM      1  C   UNL     1      -2.671  13.067  20.953  0.00  0.00    +0.000 C 
ATOM      2  C   UNL     1      -1.779  12.015  20.394  0.00  0.00    +0.000 A 
ATOM      3  C   UNL     1      -1.597  11.819  19.027  0.00  0.00    +0.000 A 
ATOM      4  C   UNL     1      -0.707  10.837  18.579  0.00  0.00    +0.000 A 
ATOM      5  C   UNL     1      -0.017  10.046  19.496  0.00  0.00    +0.000 A 
ATOM      6  N   UNL     1       0.936   9.110  19.137  0.00  0.00    +0.000 N 
ATOM      7  C   UNL     1       1.056   7.960  20.043  0.00  0.00    +0.000 C 
ATOM      8  C   UNL     1       2.498   7.469  20.051  0.00  0.00    +0.000 C 
ATOM      9  C   UNL     1       2.945   7.124  18.630  0.00  0.00    +0.000 C 
ATOM     10  C   UNL     1       2.798   8.366  17.747  0.00  0.00    +0.000 C 
ATOM     11  C   UNL     1       1.363   8.895  17.757  0.00  0.00    +0.000 C 
ATOM     12  N   UNL     1      -0.229  10.221  20.820  0.00  0.00    +0.000 NA
ATOM     13  C   UNL     1      -1.077  11.178  21.239  0.00  0.00    +0.000 A 
ENDROOT
BRANCH   9  14
ATOM     14  O   UNL     1       2.112   6.086  18.075  0.00  0.00    +0.000 OA
BRANCH  14  15
ATOM     15  C   UNL     1       2.471   4.798  18.417  0.00  0.00    +0.000 A 
ATOM     16  N   UNL     1       1.551   4.036  19.051  0.00  0.00    +0.000 NA
ATOM     17  C   UNL     1       1.915   2.792  19.401  0.00  0.00    +0.000 A 
ATOM     18  C   UNL     1       3.177   2.277  19.178  0.00  0.00    +0.000 A 
ATOM     19  C   UNL     1       4.107   3.070  18.511  0.00  0.00    +0.000 A 
ATOM     20  C   UNL     1       3.763   4.362  18.087  0.00  0.00    +0.000 A 
BRANCH  20  21
ATOM     21  C   UNL     1       4.684   5.178  17.188  0.00  0.00    +0.000 C 
ATOM     22  C   UNL     1       5.013   4.363  15.923  0.00  0.00    +0.000 C 
ATOM     23  C   UNL     1       5.941   5.130  14.989  0.00  0.00    +0.000 C 
ATOM     24  O   UNL     1       7.120   5.566  15.664  0.00  0.00    +0.000 OA
ATOM     25  C   UNL     1       6.838   6.404  16.783  0.00  0.00    +0.000 C 
ATOM     26  C   UNL     1       6.011   5.644  17.819  0.00  0.00    +0.000 C 
ENDBRANCH  20  21
ENDBRANCH  14  15
ENDBRANCH   9  14
TORSDOF 3
ENDMDL
MODEL 4
REMARK VINA RESULT:      -7.4      4.528     10.745
REMARK  Name = 
REMARK  4 active torsions:
REMARK  status: ('A' for Active; 'I' for Inactive)
REMARK    1  A    between atoms: C_1  and  C_2
REMARK    2  A    between atoms: C_9  and  O_10
REMARK    3  A    between atoms: O_10  and  C_11
REMARK    4  A    between atoms: C_16  and  C_17
REMARK                            x       y       z     vdW  Elec       q    Type
REMARK                         _______ _______ _______ _____ _____    ______ ____
ROOT
ATOM      1  C   UNL     1       3.094   7.094  18.128  0.00  0.00    +0.000 C 
ATOM      2  C   UNL     1       2.167   7.992  18.868  0.00  0.00    +0.000 A 
ATOM      3  C   UNL     1       1.815   7.792  20.201  0.00  0.00    +0.000 A 
ATOM      4  C   UNL     1       0.970   8.705  20.841  0.00  0.00    +0.000 A 
ATOM      5  C   UNL     1       0.469   9.803  20.144  0.00  0.00    +0.000 A 
ATOM      6  N   UNL     1      -0.306  10.791  20.724  0.00  0.00    +0.000 N 
ATOM      7  C   UNL     1      -1.268  11.441  19.825  0.00  0.00    +0.000 C 
ATOM      8  C   UNL     1      -1.463  12.890  20.252  0.00  0.00    +0.000 C 
ATOM      9  C   UNL     1      -1.915  12.952  21.710  0.00  0.00    +0.000 C 
ATOM     10  C   UNL     1      -0.866  12.264  22.586  0.00  0.00    +0.000 C 
ATOM     11  C   UNL     1      -0.630  10.818  22.148  0.00  0.00    +0.000 C 
ATOM     12  N   UNL     1       0.788   9.968  18.840  0.00  0.00    +0.000 NA
ATOM     13  C   UNL     1       1.612   9.090  18.239  0.00  0.00    +0.000 A 
ENDROOT
BRANCH   9  14
ATOM     14  O   UNL     1      -3.164  12.253  21.884  0.00  0.00    +0.000 OA
BRANCH  14  15
ATOM     15  C   UNL     1      -4.215  13.027  22.330  0.00  0.00    +0.000 A 
ATOM     16  N   UNL     1      -3.975  13.894  23.340  0.00  0.00    +0.000 NA
ATOM     17  C   UNL     1      -5.008  14.627  23.784  0.00  0.00    +0.000 A 
ATOM     18  C   UNL     1      -6.292  14.513  23.287  0.00  0.00    +0.000 A 
ATOM     19  C   UNL     1      -6.519  13.627  22.237  0.00  0.00    +0.000 A 
ATOM     20  C   UNL     1      -5.464  12.869  21.709  0.00  0.00    +0.000 A 
BRANCH  20  21
ATOM     21  C   UNL     1      -5.634  12.041  20.441  0.00  0.00    +0.000 C 
ATOM     22  C   UNL     1      -5.567  12.970  19.214  0.00  0.00    +0.000 C 
ATOM     23  C   UNL     1      -5.740  12.195  17.914  0.00  0.00    +0.000 C 
ATOM     24  O   UNL     1      -6.933  11.413  17.926  0.00  0.00    +0.000 OA
ATOM     25  C   UNL     1      -6.969  10.475  19.001  0.00  0.00    +0.000 C 
ATOM     26  C   UNL     1      -6.926  11.206  20.342  0.00  0.00    +0.000 C 
ENDBRANCH  20  21
ENDBRANCH  14  15
ENDBRANCH   9  14
TORSDOF 3
ENDMDL
MODEL 5
REMARK VINA RESULT:      -7.3      2.704      7.977
REMARK  Name = 
REMARK  4 active torsions:
REMARK  status: ('A' for Active; 'I' for Inactive)
REMARK    1  A    between atoms: C_1  and  C_2
REMARK    2  A    between atoms: C_9  and  O_10
REMARK    3  A    between atoms: O_10  and  C_11
REMARK    4  A    between atoms: C_16  and  C_17
REMARK                            x       y       z     vdW  Elec       q    Type
REMARK                         _______ _______ _______ _____ _____    ______ ____
ROOT
ATOM      1  C   UNL     1       7.632   4.602  10.936  0.00  0.00    +0.000 C 
ATOM      2  C   UNL     1       7.140   4.615  12.340  0.00  0.00    +0.000 A 
ATOM      3  C   UNL     1       6.005   3.921  12.754  0.00  0.00    +0.000 A 
ATOM      4  C   UNL     1       5.629   3.947  14.102  0.00  0.00    +0.000 A 
ATOM      5  C   UNL     1       6.377   4.677  15.024  0.00  0.00    +0.000 A 
ATOM      6  N   UNL     1       6.119   4.689  16.383  0.00  0.00    +0.000 N 
ATOM      7  C   UNL     1       6.488   5.929  17.079  0.00  0.00    +0.000 C 
ATOM      8  C   UNL     1       6.903   5.603  18.508  0.00  0.00    +0.000 C 
ATOM      9  C   UNL     1       5.776   4.861  19.227  0.00  0.00    +0.000 C 
ATOM     10  C   UNL     1       5.449   3.583  18.452  0.00  0.00    +0.000 C 
ATOM     11  C   UNL     1       5.066   3.888  17.003  0.00  0.00    +0.000 C 
ATOM     12  N   UNL     1       7.456   5.375  14.604  0.00  0.00    +0.000 NA
ATOM     13  C   UNL     1       7.815   5.332  13.308  0.00  0.00    +0.000 A 
ENDROOT
BRANCH   9  14
ATOM     14  O   UNL     1       4.583   5.670  19.270  0.00  0.00    +0.000 OA
BRANCH  14  15
ATOM     15  C   UNL     1       3.483   5.067  19.844  0.00  0.00    +0.000 A 
ATOM     16  N   UNL     1       3.616   3.790  20.268  0.00  0.00    +0.000 NA
ATOM     17  C   UNL     1       2.534   3.201  20.803  0.00  0.00    +0.000 A 
ATOM     18  C   UNL     1       1.304   3.820  20.907  0.00  0.00    +0.000 A 
ATOM     19  C   UNL     1       1.189   5.140  20.479  0.00  0.00    +0.000 A 
ATOM     20  C   UNL     1       2.300   5.813  19.951  0.00  0.00    +0.000 A 
BRANCH  20  21
ATOM     21  C   UNL     1       2.261   7.308  19.657  0.00  0.00    +0.000 C 
ATOM     22  C   UNL     1       1.245   7.984  20.597  0.00  0.00    +0.000 C 
ATOM     23  C   UNL     1       1.157   9.484  20.341  0.00  0.00    +0.000 C 
ATOM     24  O   UNL     1       0.884   9.766  18.969  0.00  0.00    +0.000 OA
ATOM     25  C   UNL     1       1.870   9.230  18.088  0.00  0.00    +0.000 C 
ATOM     26  C   UNL     1       1.916   7.707  18.208  0.00  0.00    +0.000 C 
ENDBRANCH  20  21
ENDBRANCH  14  15
ENDBRANCH   9  14
TORSDOF 3
ENDMDL
MODEL 6
REMARK VINA RESULT:      -7.2      1.783      3.670
REMARK  Name = 
REMARK  4 active torsions:
REMARK  status: ('A' for Active; 'I' for Inactive)
REMARK    1  A    between atoms: C_1  and  C_2
REMARK    2  A    between atoms: C_9  and  O_10
REMARK    3  A    between atoms: O_10  and  C_11
REMARK    4  A    between atoms: C_16  and  C_17
REMARK                            x       y       z     vdW  Elec       q    Type
REMARK                         _______ _______ _______ _____ _____    ______ ____
ROOT
ATOM      1  C   UNL     1      -1.591  12.694  22.170  0.00  0.00    +0.000 C 
ATOM      2  C   UNL     1      -0.750  11.604  21.606  0.00  0.00    +0.000 A 
ATOM      3  C   UNL     1      -0.244  10.558  22.376  0.00  0.00    +0.000 A 
ATOM      4  C   UNL     1       0.504   9.546  21.765  0.00  0.00    +0.000 A 
ATOM      5  C   UNL     1       0.756   9.591  20.396  0.00  0.00    +0.000 A 
ATOM      6  N   UNL     1       1.418   8.591  19.704  0.00  0.00    +0.000 N 
ATOM      7  C   UNL     1       2.176   9.039  18.528  0.00  0.00    +0.000 C 
ATOM      8  C   UNL     1       2.180   7.936  17.478  0.00  0.00    +0.000 C 
ATOM      9  C   UNL     1       2.755   6.649  18.069  0.00  0.00    +0.000 C 
ATOM     10  C   UNL     1       1.917   6.241  19.282  0.00  0.00    +0.000 C 
ATOM     11  C   UNL     1       1.870   7.352  20.332  0.00  0.00    +0.000 C 
ATOM     12  N   UNL     1       0.292  10.629  19.665  0.00  0.00    +0.000 NA
ATOM     13  C   UNL     1      -0.438  11.590  20.261  0.00  0.00    +0.000 A 
ENDROOT
BRANCH   9  14
ATOM     14  O   UNL     1       4.110   6.859  18.518  0.00  0.00    +0.000 OA
BRANCH  14  15
ATOM     15  C   UNL     1       5.082   6.227  17.770  0.00  0.00    +0.000 A 
ATOM     16  N   UNL     1       6.134   6.966  17.352  0.00  0.00    +0.000 NA
ATOM     17  C   UNL     1       7.064   6.350  16.605  0.00  0.00    +0.000 A 
ATOM     18  C   UNL     1       6.978   5.026  16.221  0.00  0.00    +0.000 A 
ATOM     19  C   UNL     1       5.895   4.276  16.672  0.00  0.00    +0.000 A 
ATOM     20  C   UNL     1       4.918   4.862  17.490  0.00  0.00    +0.000 A 
BRANCH  20  21
ATOM     21  C   UNL     1       3.832   4.027  18.157  0.00  0.00    +0.000 C 
ATOM     22  C   UNL     1       4.431   3.291  19.371  0.00  0.00    +0.000 C 
ATOM     23  C   UNL     1       3.388   2.431  20.075  0.00  0.00    +0.000 C 
ATOM     24  O   UNL     1       2.752   1.533  19.168  0.00  0.00    +0.000 OA
ATOM     25  C   UNL     1       2.106   2.204  18.087  0.00  0.00    +0.000 C 
ATOM     26  C   UNL     1       3.128   2.987  17.264  0.00  0.00    +0.000 C 
ENDBRANCH  20  21
ENDBRANCH  14  15
ENDBRANCH   9  14
TORSDOF 3
ENDMDL
MODEL 7
REMARK VINA RESULT:      -7.1      0.748      1.197
REMARK  Name = 
REMARK  4 active torsions:
REMARK  status: ('A' for Active; 'I' for Inactive)
REMARK    1  A    between atoms: C_1  and  C_2
REMARK    2  A    between atoms: C_9  and  O_10
REMARK    3  A    between atoms: O_10  and  C_11
REMARK    4  A    between atoms: C_16  and  C_17
REMARK                            x       y       z     vdW  Elec       q    Type
REMARK                         _______ _______ _______ _____ _____    ______ ____
ROOT
ATOM      1  C   UNL     1      -1.529  11.988  21.558  0.00  0.00    +0.000 C 
ATOM      2  C   UNL     1      -0.659  11.024  20.833  0.00  0.00    +0.000 A 
ATOM      3  C   UNL     1      -0.307  11.175  19.493  0.00  0.00    +0.000 A 
ATOM      4  C   UNL     1       0.552  10.248  18.892  0.00  0.00    +0.000 A 
ATOM      5  C   UNL     1       1.041   9.169  19.625  0.00  0.00    +0.000 A 
ATOM      6  N   UNL     1       1.954   8.255  19.129  0.00  0.00    +0.000 N 
ATOM      7  C   UNL     1       1.852   6.901  19.689  0.00  0.00    +0.000 C 
ATOM      8  C   UNL     1       3.234   6.260  19.720  0.00  0.00    +0.000 C 
ATOM      9  C   UNL     1       3.841   6.252  18.318  0.00  0.00    +0.000 C 
ATOM     10  C   UNL     1       3.921   7.690  17.802  0.00  0.00    +0.000 C 
ATOM     11  C   UNL     1       2.547   8.362  17.799  0.00  0.00    +0.000 C 
ATOM     12  N   UNL     1       0.664   9.012  20.914  0.00  0.00    +0.000 NA
ATOM     13  C   UNL     1      -0.151   9.917  21.485  0.00  0.00    +0.000 A 
ENDROOT
BRANCH   9  14
ATOM     14  O   UNL     1       3.010   5.501  17.409  0.00  0.00    +0.000 OA
BRANCH  14  15
ATOM     15  C   UNL     1       2.767   4.194  17.778  0.00  0.00    +0.000 A 
ATOM     16  N   UNL     1       1.532   3.889  18.236  0.00  0.00    +0.000 NA
ATOM     17  C   UNL     1       1.311   2.619  18.615  0.00  0.00    +0.000 A 
ATOM     18  C   UNL     1       2.281   1.637  18.589  0.00  0.00    +0.000 A 
ATOM     19  C   UNL     1       3.543   1.965  18.100  0.00  0.00    +0.000 A 
ATOM     20  C   UNL     1       3.813   3.267  17.653  0.00  0.00    +0.000 A 
BRANCH  20  21
ATOM     21  C   UNL     1       5.113   3.609  16.935  0.00  0.00    +0.000 C 
ATOM     22  C   UNL     1       6.076   4.291  17.925  0.00  0.00    +0.000 C 
ATOM     23  C   UNL     1       7.394   4.664  17.257  0.00  0.00    +0.000 C 
ATOM     24  O   UNL     1       7.183   5.455  16.088  0.00  0.00    +0.000 OA
ATOM     25  C   UNL     1       6.371   4.798  15.116  0.00  0.00    +0.000 C 
ATOM     26  C   UNL     1       4.985   4.509  15.690  0.00  0.00    +0.000 C 
ENDBRANCH  20  21
ENDBRANCH  14  15
ENDBRANCH   9  14
TORSDOF 3
ENDMDL
MODEL 8
REMARK VINA RESULT:      -7.1      3.809      6.615
REMARK  Name = 
REMARK  4 active torsions:
REMARK  status: ('A' for Active; 'I' for Inactive)
REMARK    1  A    between atoms: C_1  and  C_2
REMARK    2  A    between atoms: C_9  and  O_10
REMARK    3  A    between atoms: O_10  and  C_11
REMARK    4  A    between atoms: C_16  and  C_17
REMARK                            x       y       z     vdW  Elec       q    Type
REMARK                         _______ _______ _______ _____ _____    ______ ____
ROOT
ATOM      1  C   UNL     1      10.313  12.815  18.430  0.00  0.00    +0.000 C 
ATOM      2  C   UNL     1       9.521  11.561  18.315  0.00  0.00    +0.000 A 
ATOM      3  C   UNL     1       8.328  11.478  17.600  0.00  0.00    +0.000 A 
ATOM      4  C   UNL     1       7.662  10.251  17.501  0.00  0.00    +0.000 A 
ATOM      5  C   UNL     1       8.181   9.120  18.129  0.00  0.00    +0.000 A 
ATOM      6  N   UNL     1       7.627   7.857  18.014  0.00  0.00    +0.000 N 
ATOM      7  C   UNL     1       7.822   6.980  19.176  0.00  0.00    +0.000 C 
ATOM      8  C   UNL     1       7.912   5.533  18.709  0.00  0.00    +0.000 C 
ATOM      9  C   UNL     1       6.660   5.158  17.917  0.00  0.00    +0.000 C 
ATOM     10  C   UNL     1       6.523   6.106  16.724  0.00  0.00    +0.000 C 
ATOM     11  C   UNL     1       6.470   7.567  17.171  0.00  0.00    +0.000 C 
ATOM     12  N   UNL     1       9.320   9.220  18.850  0.00  0.00    +0.000 NA
ATOM     13  C   UNL     1       9.959  10.403  18.926  0.00  0.00    +0.000 A 
ENDROOT
BRANCH   9  14
ATOM     14  O   UNL     1       5.480   5.302  18.734  0.00  0.00    +0.000 OA
BRANCH  14  15
ATOM     15  C   UNL     1       4.391   4.556  18.333  0.00  0.00    +0.000 A 
ATOM     16  N   UNL     1       4.584   3.239  18.094  0.00  0.00    +0.000 NA
ATOM     17  C   UNL     1       3.525   2.525  17.681  0.00  0.00    +0.000 A 
ATOM     18  C   UNL     1       2.277   3.073  17.460  0.00  0.00    +0.000 A 
ATOM     19  C   UNL     1       2.092   4.427  17.725  0.00  0.00    +0.000 A 
ATOM     20  C   UNL     1       3.156   5.208  18.198  0.00  0.00    +0.000 A 
BRANCH  20  21
ATOM     21  C   UNL     1       2.942   6.637  18.682  0.00  0.00    +0.000 C 
ATOM     22  C   UNL     1       2.054   6.621  19.940  0.00  0.00    +0.000 C 
ATOM     23  C   UNL     1       1.799   8.028  20.465  0.00  0.00    +0.000 C 
ATOM     24  O   UNL     1       1.268   8.877  19.449  0.00  0.00    +0.000 OA
ATOM     25  C   UNL     1       2.126   8.983  18.313  0.00  0.00    +0.000 C 
ATOM     26  C   UNL     1       2.318   7.613  17.665  0.00  0.00    +0.000 C 
ENDBRANCH  20  21
ENDBRANCH  14  15
ENDBRANCH   9  14
TORSDOF 3
ENDMDL
MODEL 9
REMARK VINA RESULT:      -7.1      2.709      8.176
REMARK  Name = 
REMARK  4 active torsions:
REMARK  status: ('A' for Active; 'I' for Inactive)
REMARK    1  A    between atoms: C_1  and  C_2
REMARK    2  A    between atoms: C_9  and  O_10
REMARK    3  A    between atoms: O_10  and  C_11
REMARK    4  A    between atoms: C_16  and  C_17
REMARK                            x       y       z     vdW  Elec       q    Type
REMARK                         _______ _______ _______ _____ _____    ______ ____
ROOT
ATOM      1  C   UNL     1       7.849   3.569  10.886  0.00  0.00    +0.000 C 
ATOM      2  C   UNL     1       7.112   3.901  12.136  0.00  0.00    +0.000 A 
ATOM      3  C   UNL     1       6.104   3.096  12.660  0.00  0.00    +0.000 A 
ATOM      4  C   UNL     1       5.486   3.454  13.864  0.00  0.00    +0.000 A 
ATOM      5  C   UNL     1       5.866   4.619  14.527  0.00  0.00    +0.000 A 
ATOM      6  N   UNL     1       5.361   5.002  15.757  0.00  0.00    +0.000 N 
ATOM      7  C   UNL     1       5.307   6.451  15.989  0.00  0.00    +0.000 C 
ATOM      8  C   UNL     1       5.508   6.735  17.472  0.00  0.00    +0.000 C 
ATOM      9  C   UNL     1       4.462   5.987  18.297  0.00  0.00    +0.000 C 
ATOM     10  C   UNL     1       4.579   4.488  18.010  0.00  0.00    +0.000 C 
ATOM     11  C   UNL     1       4.417   4.188  16.519  0.00  0.00    +0.000 C 
ATOM     12  N   UNL     1       6.820   5.412  13.989  0.00  0.00    +0.000 NA
ATOM     13  C   UNL     1       7.417   5.050  12.838  0.00  0.00    +0.000 A 
ENDROOT
BRANCH   9  14
ATOM     14  O   UNL     1       3.132   6.405  17.928  0.00  0.00    +0.000 OA
BRANCH  14  15
ATOM     15  C   UNL     1       2.431   7.073  18.911  0.00  0.00    +0.000 A 
ATOM     16  N   UNL     1       2.123   8.372  18.693  0.00  0.00    +0.000 NA
ATOM     17  C   UNL     1       1.462   9.022  19.664  0.00  0.00    +0.000 A 
ATOM     18  C   UNL     1       1.118   8.442  20.870  0.00  0.00    +0.000 A 
ATOM     19  C   UNL     1       1.429   7.101  21.072  0.00  0.00    +0.000 A 
ATOM     20  C   UNL     1       2.082   6.366  20.072  0.00  0.00    +0.000 A 
BRANCH  20  21
ATOM     21  C   UNL     1       2.262   4.856  20.181  0.00  0.00    +0.000 C 
ATOM     22  C   UNL     1       1.138   4.153  19.396  0.00  0.00    +0.000 C 
ATOM     23  C   UNL     1       1.263   2.637  19.476  0.00  0.00    +0.000 C 
ATOM     24  O   UNL     1       1.330   2.188  20.829  0.00  0.00    +0.000 OA
ATOM     25  C   UNL     1       2.426   2.755  21.546  0.00  0.00    +0.000 C 
ATOM     26  C   UNL     1       2.288   4.276  21.608  0.00  0.00    +0.000 C 
ENDBRANCH  20  21
ENDBRANCH  14  15
ENDBRANCH   9  14
TORSDOF 3
ENDMDL
