MODEL 1
REMARK VINA RESULT:      -7.8      0.000      0.000
REMARK  Name = 
REMARK  4 active torsions:
REMARK  status: ('A' for Active; 'I' for Inactive)
REMARK    1  A    between atoms: C_1  and  O_2
REMARK    2  A    between atoms: O_2  and  C_3
REMARK    3  A    between atoms: N_14  and  C_15
REMARK    4  A    between atoms: C_15  and  C_16
REMARK                            x       y       z     vdW  Elec       q    Type
REMARK                         _______ _______ _______ _____ _____    ______ ____
ROOT
ATOM      1  C   UNL     1      -0.699  15.920  19.314  0.00  0.00    +0.000 A 
ATOM      2  C   UNL     1      -0.967  16.441  20.580  0.00  0.00    +0.000 A 
ATOM      3  C   UNL     1      -1.057  15.567  21.662  0.00  0.00    +0.000 A 
ATOM      4  C   UNL     1      -0.867  14.225  21.410  0.00  0.00    +0.000 A 
ATOM      5  C   UNL     1      -0.583  13.796  20.130  0.00  0.00    +0.000 A 
ATOM      6  N   UNL     1      -0.502  14.605  19.058  0.00  0.00    +0.000 NA
ATOM      7  C   UNL     1      -0.465  12.308  20.117  0.00  0.00    +0.000 C 
ATOM      8  C   UNL     1      -0.718  12.007  21.606  0.00  0.00    +0.000 C 
ATOM      9  O   UNL     1      -0.968  13.236  22.343  0.00  0.00    +0.000 OA
ATOM     10  C   UNL     1       0.924  11.799  19.699  0.00  0.00    +0.000 C 
ATOM     11  O   UNL     1       1.997  12.119  20.193  0.00  0.00    +0.000 OA
ATOM     12  N   UNL     1       0.730  10.848  18.682  0.00  0.00    +0.000 N 
ATOM     13  C   UNL     1      -0.627  10.732  18.357  0.00  0.00    +0.000 A 
ATOM     14  C   UNL     1      -1.223   9.939  17.391  0.00  0.00    +0.000 A 
ATOM     15  C   UNL     1      -2.605  10.029  17.230  0.00  0.00    +0.000 A 
ATOM     16  C   UNL     1      -3.368  10.894  18.027  0.00  0.00    +0.000 A 
ATOM     17  C   UNL     1      -2.755  11.684  19.007  0.00  0.00    +0.000 A 
ATOM     18  C   UNL     1      -1.382  11.588  19.163  0.00  0.00    +0.000 A 
ENDROOT
BRANCH   1  20
ATOM     19  C   UNL     1      -1.513  17.953  18.506  0.00  0.00    +0.000 C 
ATOM     20  O   UNL     1      -0.668  16.829  18.274  0.00  0.00    +0.000 OA
ENDBRANCH   1  20
BRANCH  12  21
ATOM     21  C   UNL     1       1.804  10.068  18.088  0.00  0.00    +0.000 C 
BRANCH  21  22
ATOM     22  C   UNL     1       1.845   8.664  18.650  0.00  0.00    +0.000 A 
ATOM     23  C   UNL     1       1.528   8.394  19.993  0.00  0.00    +0.000 A 
ATOM     24  C   UNL     1       1.810   7.143  20.552  0.00  0.00    +0.000 A 
ATOM     25  C   UNL     1       2.423   6.163  19.776  0.00  0.00    +0.000 A 
ATOM     26  C   UNL     1       2.615   6.386  18.415  0.00  0.00    +0.000 A 
ATOM     27  C   UNL     1       2.325   7.621  17.848  0.00  0.00    +0.000 A 
ATOM     28  O   UNL     1       3.160   5.429  17.604  0.00  0.00    +0.000 OA
ATOM     29  C   UNL     1       4.244   4.845  18.321  0.00  0.00    +0.000 C 
ATOM     30  C   UNL     1       3.787   4.248  19.651  0.00  0.00    +0.000 C 
ATOM     31  O   UNL     1       2.862   5.038  20.414  0.00  0.00    +0.000 OA
ENDBRANCH  21  22
ENDBRANCH  12  21
TORSDOF 3
ENDMDL
MODEL 2
REMARK VINA RESULT:      -7.6      0.933      1.068
REMARK  Name = 
REMARK  4 active torsions:
REMARK  status: ('A' for Active; 'I' for Inactive)
REMARK    1  A    between atoms: C_1  and  O_2
REMARK    2  A    between atoms: O_2  and  C_3
REMARK    3  A    between atoms: N_14  and  C_15
REMARK    4  A    between atoms: C_15  and  C_16
REMARK                            x       y       z     vdW  Elec       q    Type
REMARK                         _______ _______ _______ _____ _____    ______ ____
ROOT
ATOM      1  C   UNL     1      -0.660  16.173  21.058  0.00  0.00    +0.000 A 
ATOM      2  C   UNL     1      -0.893  16.403  22.415  0.00  0.00    +0.000 A 
ATOM      3  C   UNL     1      -1.025  15.311  23.270  0.00  0.00    +0.000 A 
ATOM      4  C   UNL     1      -0.910  14.054  22.715  0.00  0.00    +0.000 A 
ATOM      5  C   UNL     1      -0.656  13.915  21.366  0.00  0.00    +0.000 A 
ATOM      6  N   UNL     1      -0.537  14.943  20.506  0.00  0.00    +0.000 NA
ATOM      7  C   UNL     1      -0.620  12.466  21.012  0.00  0.00    +0.000 C 
ATOM      8  C   UNL     1      -0.882  11.846  22.396  0.00  0.00    +0.000 C 
ATOM      9  O   UNL     1      -1.061  12.885  23.399  0.00  0.00    +0.000 OA
ATOM     10  C   UNL     1       0.736  11.994  20.465  0.00  0.00    +0.000 C 
ATOM     11  O   UNL     1       1.828  12.136  20.999  0.00  0.00    +0.000 OA
ATOM     12  N   UNL     1       0.486  11.312  19.261  0.00  0.00    +0.000 N 
ATOM     13  C   UNL     1      -0.877  11.345  18.941  0.00  0.00    +0.000 A 
ATOM     14  C   UNL     1      -1.521  10.826  17.831  0.00  0.00    +0.000 A 
ATOM     15  C   UNL     1      -2.897  11.022  17.719  0.00  0.00    +0.000 A 
ATOM     16  C   UNL     1      -3.607  11.720  18.705  0.00  0.00    +0.000 A 
ATOM     17  C   UNL     1      -2.947  12.233  19.829  0.00  0.00    +0.000 A 
ATOM     18  C   UNL     1      -1.580  12.032  19.934  0.00  0.00    +0.000 A 
ENDROOT
BRANCH   1  20
ATOM     19  C   UNL     1      -0.830  16.997  18.881  0.00  0.00    +0.000 C 
ATOM     20  O   UNL     1      -0.585  17.293  20.253  0.00  0.00    +0.000 OA
ENDBRANCH   1  20
BRANCH  12  21
ATOM     21  C   UNL     1       1.512  10.634  18.486  0.00  0.00    +0.000 C 
BRANCH  21  22
ATOM     22  C   UNL     1       1.635   9.179  18.882  0.00  0.00    +0.000 A 
ATOM     23  C   UNL     1       1.247   8.722  20.155  0.00  0.00    +0.000 A 
ATOM     24  C   UNL     1       1.595   7.438  20.584  0.00  0.00    +0.000 A 
ATOM     25  C   UNL     1       2.344   6.611  19.752  0.00  0.00    +0.000 A 
ATOM     26  C   UNL     1       2.613   7.014  18.447  0.00  0.00    +0.000 A 
ATOM     27  C   UNL     1       2.259   8.283  18.006  0.00  0.00    +0.000 A 
ATOM     28  O   UNL     1       3.296   6.209  17.576  0.00  0.00    +0.000 OA
ATOM     29  C   UNL     1       4.372   5.627  18.306  0.00  0.00    +0.000 C 
ATOM     30  C   UNL     1       3.875   4.837  19.516  0.00  0.00    +0.000 C 
ATOM     31  O   UNL     1       2.833   5.453  20.288  0.00  0.00    +0.000 OA
ENDBRANCH  21  22
ENDBRANCH  12  21
TORSDOF 3
ENDMDL
MODEL 3
REMARK VINA RESULT:      -7.5      3.527      7.947
REMARK  Name = 
REMARK  4 active torsions:
REMARK  status: ('A' for Active; 'I' for Inactive)
REMARK    1  A    between atoms: C_1  and  O_2
REMARK    2  A    between atoms: O_2  and  C_3
REMARK    3  A    between atoms: N_14  and  C_15
REMARK    4  A    between atoms: C_15  and  C_16
REMARK                            x       y       z     vdW  Elec       q    Type
REMARK                         _______ _______ _______ _____ _____    ______ ____
ROOT
ATOM      1  C   UNL     1      -3.036  11.045  17.796  0.00  0.00    +0.000 A 
ATOM      2  C   UNL     1      -2.244  10.035  17.248  0.00  0.00    +0.000 A 
ATOM      3  C   UNL     1      -0.938   9.880  17.710  0.00  0.00    +0.000 A 
ATOM      4  C   UNL     1      -0.508  10.740  18.697  0.00  0.00    +0.000 A 
ATOM      5  C   UNL     1      -1.364  11.697  19.201  0.00  0.00    +0.000 A 
ATOM      6  N   UNL     1      -2.625  11.890  18.771  0.00  0.00    +0.000 NA
ATOM      7  C   UNL     1      -0.649  12.521  20.219  0.00  0.00    +0.000 C 
ATOM      8  C   UNL     1       0.732  11.840  20.191  0.00  0.00    +0.000 C 
ATOM      9  O   UNL     1       0.749  10.755  19.222  0.00  0.00    +0.000 OA
ATOM     10  C   UNL     1      -1.257  12.434  21.627  0.00  0.00    +0.000 C 
ATOM     11  O   UNL     1      -1.484  11.413  22.263  0.00  0.00    +0.000 OA
ATOM     12  N   UNL     1      -1.452  13.751  22.079  0.00  0.00    +0.000 N 
ATOM     13  C   UNL     1      -1.092  14.678  21.092  0.00  0.00    +0.000 A 
ATOM     14  C   UNL     1      -1.168  16.060  21.130  0.00  0.00    +0.000 A 
ATOM     15  C   UNL     1      -0.780  16.769  19.994  0.00  0.00    +0.000 A 
ATOM     16  C   UNL     1      -0.321  16.101  18.850  0.00  0.00    +0.000 A 
ATOM     17  C   UNL     1      -0.240  14.704  18.826  0.00  0.00    +0.000 A 
ATOM     18  C   UNL     1      -0.625  14.005  19.960  0.00  0.00    +0.000 A 
ENDROOT
BRANCH   1  20
ATOM     19  C   UNL     1      -5.327  10.933  18.227  0.00  0.00    +0.000 C 
ATOM     20  O   UNL     1      -4.305  11.181  17.267  0.00  0.00    +0.000 OA
ENDBRANCH   1  20
BRANCH  12  21
ATOM     21  C   UNL     1      -1.927  14.088  23.411  0.00  0.00    +0.000 C 
BRANCH  21  22
ATOM     22  C   UNL     1      -3.386  13.730  23.587  0.00  0.00    +0.000 A 
ATOM     23  C   UNL     1      -3.825  12.907  24.640  0.00  0.00    +0.000 A 
ATOM     24  C   UNL     1      -5.124  12.390  24.642  0.00  0.00    +0.000 A 
ATOM     25  C   UNL     1      -5.984  12.679  23.587  0.00  0.00    +0.000 A 
ATOM     26  C   UNL     1      -5.594  13.598  22.616  0.00  0.00    +0.000 A 
ATOM     27  C   UNL     1      -4.310  14.128  22.613  0.00  0.00    +0.000 A 
ATOM     28  O   UNL     1      -6.430  13.956  21.593  0.00  0.00    +0.000 OA
ATOM     29  C   UNL     1      -7.061  12.764  21.137  0.00  0.00    +0.000 C 
ATOM     30  C   UNL     1      -7.827  12.063  22.257  0.00  0.00    +0.000 C 
ATOM     31  O   UNL     1      -7.164  11.992  23.529  0.00  0.00    +0.000 OA
ENDBRANCH  21  22
ENDBRANCH  12  21
TORSDOF 3
ENDMDL
MODEL 4
REMARK VINA RESULT:      -7.4      2.065      2.638
REMARK  Name = 
REMARK  4 active torsions:
REMARK  status: ('A' for Active; 'I' for Inactive)
REMARK    1  A    between atoms: C_1  and  O_2
REMARK    2  A    between atoms: O_2  and  C_3
REMARK    3  A    between atoms: N_14  and  C_15
REMARK    4  A    between atoms: C_15  and  C_16
REMARK                            x       y       z     vdW  Elec       q    Type
REMARK                         _______ _______ _______ _____ _____    ______ ____
ROOT
ATOM      1  C   UNL     1       2.980  14.085  19.349  0.00  0.00    +0.000 A 
ATOM      2  C   UNL     1       2.889  15.185  20.203  0.00  0.00    +0.000 A 
ATOM      3  C   UNL     1       1.919  15.181  21.204  0.00  0.00    +0.000 A 
ATOM      4  C   UNL     1       1.104  14.073  21.294  0.00  0.00    +0.000 A 
ATOM      5  C   UNL     1       1.276  13.017  20.423  0.00  0.00    +0.000 A 
ATOM      6  N   UNL     1       2.189  12.989  19.435  0.00  0.00    +0.000 NA
ATOM      7  C   UNL     1       0.249  11.970  20.698  0.00  0.00    +0.000 C 
ATOM      8  C   UNL     1      -0.497  12.630  21.872  0.00  0.00    +0.000 C 
ATOM      9  O   UNL     1       0.079  13.931  22.180  0.00  0.00    +0.000 OA
ATOM     10  C   UNL     1       0.840  10.620  21.135  0.00  0.00    +0.000 C 
ATOM     11  O   UNL     1       1.627  10.430  22.053  0.00  0.00    +0.000 OA
ATOM     12  N   UNL     1       0.263   9.630  20.321  0.00  0.00    +0.000 N 
ATOM     13  C   UNL     1      -0.590  10.200  19.368  0.00  0.00    +0.000 A 
ATOM     14  C   UNL     1      -1.314   9.574  18.367  0.00  0.00    +0.000 A 
ATOM     15  C   UNL     1      -2.071  10.372  17.509  0.00  0.00    +0.000 A 
ATOM     16  C   UNL     1      -2.100  11.765  17.660  0.00  0.00    +0.000 A 
ATOM     17  C   UNL     1      -1.372  12.386  18.681  0.00  0.00    +0.000 A 
ATOM     18  C   UNL     1      -0.623  11.587  19.532  0.00  0.00    +0.000 A 
ENDROOT
BRANCH   1  20
ATOM     19  C   UNL     1       3.883  15.408  17.653  0.00  0.00    +0.000 C 
ATOM     20  O   UNL     1       3.928  14.166  18.349  0.00  0.00    +0.000 OA
ENDBRANCH   1  20
BRANCH  12  21
ATOM     21  C   UNL     1       0.500   8.205  20.488  0.00  0.00    +0.000 C 
BRANCH  21  22
ATOM     22  C   UNL     1       1.705   7.747  19.696  0.00  0.00    +0.000 A 
ATOM     23  C   UNL     1       2.128   8.418  18.536  0.00  0.00    +0.000 A 
ATOM     24  C   UNL     1       3.080   7.841  17.689  0.00  0.00    +0.000 A 
ATOM     25  C   UNL     1       3.602   6.586  17.990  0.00  0.00    +0.000 A 
ATOM     26  C   UNL     1       3.281   5.984  19.203  0.00  0.00    +0.000 A 
ATOM     27  C   UNL     1       2.347   6.556  20.058  0.00  0.00    +0.000 A 
ATOM     28  O   UNL     1       3.816   4.777  19.566  0.00  0.00    +0.000 OA
ATOM     29  C   UNL     1       3.792   3.949  18.408  0.00  0.00    +0.000 C 
ATOM     30  C   UNL     1       4.568   4.571  17.249  0.00  0.00    +0.000 C 
ATOM     31  O   UNL     1       4.368   5.978  17.037  0.00  0.00    +0.000 OA
ENDBRANCH  21  22
ENDBRANCH  12  21
TORSDOF 3
ENDMDL
MODEL 5
REMARK VINA RESULT:      -7.2      1.859      3.174
REMARK  Name = 
REMARK  4 active torsions:
REMARK  status: ('A' for Active; 'I' for Inactive)
REMARK    1  A    between atoms: C_1  and  O_2
REMARK    2  A    between atoms: O_2  and  C_3
REMARK    3  A    between atoms: N_14  and  C_15
REMARK    4  A    between atoms: C_15  and  C_16
REMARK                            x       y       z     vdW  Elec       q    Type
REMARK                         _______ _______ _______ _____ _____    ______ ____
ROOT
ATOM      1  C   UNL     1       0.341  17.068  18.680  0.00  0.00    +0.000 A 
ATOM      2  C   UNL     1       1.496  17.823  18.890  0.00  0.00    +0.000 A 
ATOM      3  C   UNL     1       2.600  17.212  19.484  0.00  0.00    +0.000 A 
ATOM      4  C   UNL     1       2.481  15.881  19.823  0.00  0.00    +0.000 A 
ATOM      5  C   UNL     1       1.310  15.202  19.558  0.00  0.00    +0.000 A 
ATOM      6  N   UNL     1       0.218  15.759  19.002  0.00  0.00    +0.000 NA
ATOM      7  C   UNL     1       1.422  13.800  20.057  0.00  0.00    +0.000 C 
ATOM      8  C   UNL     1       2.854  13.831  20.622  0.00  0.00    +0.000 C 
ATOM      9  O   UNL     1       3.444  15.150  20.452  0.00  0.00    +0.000 OA
ATOM     10  C   UNL     1       1.308  12.737  18.953  0.00  0.00    +0.000 C 
ATOM     11  O   UNL     1       1.969  12.678  17.925  0.00  0.00    +0.000 OA
ATOM     12  N   UNL     1       0.340  11.806  19.370  0.00  0.00    +0.000 N 
ATOM     13  C   UNL     1      -0.225  12.185  20.594  0.00  0.00    +0.000 A 
ATOM     14  C   UNL     1      -1.228  11.561  21.317  0.00  0.00    +0.000 A 
ATOM     15  C   UNL     1      -1.650  12.159  22.504  0.00  0.00    +0.000 A 
ATOM     16  C   UNL     1      -1.071  13.355  22.952  0.00  0.00    +0.000 A 
ATOM     17  C   UNL     1      -0.051  13.971  22.218  0.00  0.00    +0.000 A 
ATOM     18  C   UNL     1       0.365  13.370  21.041  0.00  0.00    +0.000 A 
ENDROOT
BRANCH   1  20
ATOM     19  C   UNL     1      -1.898  17.666  18.950  0.00  0.00    +0.000 C 
ATOM     20  O   UNL     1      -0.734  17.740  18.132  0.00  0.00    +0.000 OA
ENDBRANCH   1  20
BRANCH  12  21
ATOM     21  C   UNL     1       0.013  10.595  18.635  0.00  0.00    +0.000 C 
BRANCH  21  22
ATOM     22  C   UNL     1       1.087   9.542  18.795  0.00  0.00    +0.000 A 
ATOM     23  C   UNL     1       2.016   9.270  17.775  0.00  0.00    +0.000 A 
ATOM     24  C   UNL     1       2.833   8.137  17.843  0.00  0.00    +0.000 A 
ATOM     25  C   UNL     1       2.715   7.264  18.920  0.00  0.00    +0.000 A 
ATOM     26  C   UNL     1       1.891   7.602  19.990  0.00  0.00    +0.000 A 
ATOM     27  C   UNL     1       1.086   8.733  19.939  0.00  0.00    +0.000 A 
ATOM     28  O   UNL     1       1.789   6.801  21.095  0.00  0.00    +0.000 OA
ATOM     29  C   UNL     1       1.721   5.457  20.628  0.00  0.00    +0.000 C 
ATOM     30  C   UNL     1       2.941   5.086  19.787  0.00  0.00    +0.000 C 
ATOM     31  O   UNL     1       3.381   6.074  18.842  0.00  0.00    +0.000 OA
ENDBRANCH  21  22
ENDBRANCH  12  21
TORSDOF 3
ENDMDL
MODEL 6
REMARK VINA RESULT:      -7.2      4.033      7.395
REMARK  Name = 
REMARK  4 active torsions:
REMARK  status: ('A' for Active; 'I' for Inactive)
REMARK    1  A    between atoms: C_1  and  O_2
REMARK    2  A    between atoms: O_2  and  C_3
REMARK    3  A    between atoms: N_14  and  C_15
REMARK    4  A    between atoms: C_15  and  C_16
REMARK                            x       y       z     vdW  Elec       q    Type
REMARK                         _______ _______ _______ _____ _____    ______ ____
ROOT
ATOM      1  C   UNL     1       3.474  14.129  20.645  0.00  0.00    +0.000 A 
ATOM      2  C   UNL     1       3.639  14.479  19.304  0.00  0.00    +0.000 A 
ATOM      3  C   UNL     1       2.563  14.328  18.432  0.00  0.00    +0.000 A 
ATOM      4  C   UNL     1       1.385  13.842  18.957  0.00  0.00    +0.000 A 
ATOM      5  C   UNL     1       1.299  13.541  20.301  0.00  0.00    +0.000 A 
ATOM      6  N   UNL     1       2.319  13.658  21.171  0.00  0.00    +0.000 NA
ATOM      7  C   UNL     1      -0.056  12.996  20.605  0.00  0.00    +0.000 C 
ATOM      8  C   UNL     1      -0.693  13.067  19.205  0.00  0.00    +0.000 C 
ATOM      9  O   UNL     1       0.257  13.590  18.235  0.00  0.00    +0.000 OA
ATOM     10  C   UNL     1      -0.859  13.850  21.599  0.00  0.00    +0.000 C 
ATOM     11  O   UNL     1      -1.098  15.047  21.507  0.00  0.00    +0.000 OA
ATOM     12  N   UNL     1      -1.323  12.989  22.608  0.00  0.00    +0.000 N 
ATOM     13  C   UNL     1      -0.856  11.683  22.406  0.00  0.00    +0.000 A 
ATOM     14  C   UNL     1      -1.057  10.559  23.189  0.00  0.00    +0.000 A 
ATOM     15  C   UNL     1      -0.450   9.367  22.794  0.00  0.00    +0.000 A 
ATOM     16  C   UNL     1       0.336   9.311  21.634  0.00  0.00    +0.000 A 
ATOM     17  C   UNL     1       0.524  10.452  20.845  0.00  0.00    +0.000 A 
ATOM     18  C   UNL     1      -0.084  11.632  21.243  0.00  0.00    +0.000 A 
ENDROOT
BRANCH   1  20
ATOM     19  C   UNL     1       5.620  15.024  20.838  0.00  0.00    +0.000 C 
ATOM     20  O   UNL     1       4.589  14.256  21.451  0.00  0.00    +0.000 OA
ENDBRANCH   1  20
BRANCH  12  21
ATOM     21  C   UNL     1      -2.203  13.405  23.688  0.00  0.00    +0.000 C 
BRANCH  21  22
ATOM     22  C   UNL     1      -3.659  13.248  23.308  0.00  0.00    +0.000 A 
ATOM     23  C   UNL     1      -4.658  13.034  24.274  0.00  0.00    +0.000 A 
ATOM     24  C   UNL     1      -5.946  12.647  23.891  0.00  0.00    +0.000 A 
ATOM     25  C   UNL     1      -6.237  12.458  22.543  0.00  0.00    +0.000 A 
ATOM     26  C   UNL     1      -5.288  12.797  21.582  0.00  0.00    +0.000 A 
ATOM     27  C   UNL     1      -4.010  13.196  21.953  0.00  0.00    +0.000 A 
ATOM     28  O   UNL     1      -5.552  12.682  20.244  0.00  0.00    +0.000 OA
ATOM     29  C   UNL     1      -6.243  11.450  20.062  0.00  0.00    +0.000 C 
ATOM     30  C   UNL     1      -7.527  11.392  20.887  0.00  0.00    +0.000 C 
ATOM     31  O   UNL     1      -7.438  11.887  22.232  0.00  0.00    +0.000 OA
ENDBRANCH  21  22
ENDBRANCH  12  21
TORSDOF 3
ENDMDL
MODEL 7
REMARK VINA RESULT:      -7.2      8.200     10.602
REMARK  Name = 
REMARK  4 active torsions:
REMARK  status: ('A' for Active; 'I' for Inactive)
REMARK    1  A    between atoms: C_1  and  O_2
REMARK    2  A    between atoms: O_2  and  C_3
REMARK    3  A    between atoms: N_14  and  C_15
REMARK    4  A    between atoms: C_15  and  C_16
REMARK                            x       y       z     vdW  Elec       q    Type
REMARK                         _______ _______ _______ _____ _____    ______ ____
ROOT
ATOM      1  C   UNL     1       9.944  11.640  18.877  0.00  0.00    +0.000 A 
ATOM      2  C   UNL     1      10.933  11.669  17.893  0.00  0.00    +0.000 A 
ATOM      3  C   UNL     1      11.217  12.878  17.260  0.00  0.00    +0.000 A 
ATOM      4  C   UNL     1      10.498  13.985  17.656  0.00  0.00    +0.000 A 
ATOM      5  C   UNL     1       9.553  13.874  18.654  0.00  0.00    +0.000 A 
ATOM      6  N   UNL     1       9.239  12.724  19.278  0.00  0.00    +0.000 NA
ATOM      7  C   UNL     1       8.891  15.195  18.864  0.00  0.00    +0.000 C 
ATOM      8  C   UNL     1       9.647  16.041  17.823  0.00  0.00    +0.000 C 
ATOM      9  O   UNL     1      10.618  15.227  17.108  0.00  0.00    +0.000 OA
ATOM     10  C   UNL     1       9.096  15.776  20.272  0.00  0.00    +0.000 C 
ATOM     11  O   UNL     1      10.166  15.951  20.841  0.00  0.00    +0.000 OA
ATOM     12  N   UNL     1       7.828  16.125  20.768  0.00  0.00    +0.000 N 
ATOM     13  C   UNL     1       6.822  15.779  19.857  0.00  0.00    +0.000 A 
ATOM     14  C   UNL     1       5.450  15.922  19.983  0.00  0.00    +0.000 A 
ATOM     15  C   UNL     1       4.644  15.460  18.943  0.00  0.00    +0.000 A 
ATOM     16  C   UNL     1       5.208  14.874  17.801  0.00  0.00    +0.000 A 
ATOM     17  C   UNL     1       6.597  14.744  17.680  0.00  0.00    +0.000 A 
ATOM     18  C   UNL     1       7.392  15.206  18.717  0.00  0.00    +0.000 A 
ENDROOT
BRANCH   1  20
ATOM     19  C   UNL     1       8.784   9.629  18.639  0.00  0.00    +0.000 C 
ATOM     20  O   UNL     1       9.674  10.406  19.435  0.00  0.00    +0.000 OA
ENDBRANCH   1  20
BRANCH  12  21
ATOM     21  C   UNL     1       7.612  16.795  22.040  0.00  0.00    +0.000 C 
BRANCH  21  22
ATOM     22  C   UNL     1       7.574  15.808  23.186  0.00  0.00    +0.000 A 
ATOM     23  C   UNL     1       8.659  15.654  24.067  0.00  0.00    +0.000 A 
ATOM     24  C   UNL     1       8.703  14.576  24.957  0.00  0.00    +0.000 A 
ATOM     25  C   UNL     1       7.673  13.641  24.960  0.00  0.00    +0.000 A 
ATOM     26  C   UNL     1       6.540  13.866  24.183  0.00  0.00    +0.000 A 
ATOM     27  C   UNL     1       6.480  14.942  23.306  0.00  0.00    +0.000 A 
ATOM     28  O   UNL     1       5.479  13.002  24.199  0.00  0.00    +0.000 OA
ATOM     29  C   UNL     1       6.016  11.684  24.188  0.00  0.00    +0.000 C 
ATOM     30  C   UNL     1       6.945  11.440  25.376  0.00  0.00    +0.000 C 
ATOM     31  O   UNL     1       7.857  12.504  25.695  0.00  0.00    +0.000 OA
ENDBRANCH  21  22
ENDBRANCH  12  21
TORSDOF 3
ENDMDL
MODEL 8
REMARK VINA RESULT:      -7.2      3.640      8.351
REMARK  Name = 
REMARK  4 active torsions:
REMARK  status: ('A' for Active; 'I' for Inactive)
REMARK    1  A    between atoms: C_1  and  O_2
REMARK    2  A    between atoms: O_2  and  C_3
REMARK    3  A    between atoms: N_14  and  C_15
REMARK    4  A    between atoms: C_15  and  C_16
REMARK                            x       y       z     vdW  Elec       q    Type
REMARK                         _______ _______ _______ _____ _____    ______ ____
ROOT
ATOM      1  C   UNL     1      -3.649  11.186  17.829  0.00  0.00    +0.000 A 
ATOM      2  C   UNL     1      -3.092  10.160  17.064  0.00  0.00    +0.000 A 
ATOM      3  C   UNL     1      -1.750   9.833  17.254  0.00  0.00    +0.000 A 
ATOM      4  C   UNL     1      -1.051  10.547  18.202  0.00  0.00    +0.000 A 
ATOM      5  C   UNL     1      -1.685  11.531  18.932  0.00  0.00    +0.000 A 
ATOM      6  N   UNL     1      -2.973  11.888  18.769  0.00  0.00    +0.000 NA
ATOM      7  C   UNL     1      -0.707  12.178  19.854  0.00  0.00    +0.000 C 
ATOM      8  C   UNL     1       0.558  11.370  19.511  0.00  0.00    +0.000 C 
ATOM      9  O   UNL     1       0.274  10.387  18.477  0.00  0.00    +0.000 OA
ATOM     10  C   UNL     1      -1.054  12.017  21.342  0.00  0.00    +0.000 C 
ATOM     11  O   UNL     1      -1.277  10.966  21.930  0.00  0.00    +0.000 OA
ATOM     12  N   UNL     1      -1.011  13.296  21.922  0.00  0.00    +0.000 N 
ATOM     13  C   UNL     1      -0.732  14.274  20.958  0.00  0.00    +0.000 A 
ATOM     14  C   UNL     1      -0.640  15.646  21.115  0.00  0.00    +0.000 A 
ATOM     15  C   UNL     1      -0.387  16.420  19.983  0.00  0.00    +0.000 A 
ATOM     16  C   UNL     1      -0.224  15.824  18.725  0.00  0.00    +0.000 A 
ATOM     17  C   UNL     1      -0.310  14.434  18.580  0.00  0.00    +0.000 A 
ATOM     18  C   UNL     1      -0.560  13.671  19.709  0.00  0.00    +0.000 A 
ENDROOT
BRANCH   1  20
ATOM     19  C   UNL     1      -5.873  10.834  18.442  0.00  0.00    +0.000 C 
ATOM     20  O   UNL     1      -4.969  11.497  17.564  0.00  0.00    +0.000 OA
ENDBRANCH   1  20
BRANCH  12  21
ATOM     21  C   UNL     1      -1.193  13.549  23.342  0.00  0.00    +0.000 C 
BRANCH  21  22
ATOM     22  C   UNL     1      -2.655  13.712  23.694  0.00  0.00    +0.000 A 
ATOM     23  C   UNL     1      -3.487  12.605  23.934  0.00  0.00    +0.000 A 
ATOM     24  C   UNL     1      -4.875  12.763  24.011  0.00  0.00    +0.000 A 
ATOM     25  C   UNL     1      -5.437  14.024  23.833  0.00  0.00    +0.000 A 
ATOM     26  C   UNL     1      -4.606  15.136  23.728  0.00  0.00    +0.000 A 
ATOM     27  C   UNL     1      -3.226  14.991  23.664  0.00  0.00    +0.000 A 
ATOM     28  O   UNL     1      -5.116  16.400  23.610  0.00  0.00    +0.000 OA
ATOM     29  C   UNL     1      -6.210  16.324  22.702  0.00  0.00    +0.000 C 
ATOM     30  C   UNL     1      -7.276  15.340  23.179  0.00  0.00    +0.000 C 
ATOM     31  O   UNL     1      -6.796  14.096  23.713  0.00  0.00    +0.000 OA
ENDBRANCH  21  22
ENDBRANCH  12  21
TORSDOF 3
ENDMDL
MODEL 9
REMARK VINA RESULT:      -7.2      3.480      8.289
REMARK  Name = 
REMARK  4 active torsions:
REMARK  status: ('A' for Active; 'I' for Inactive)
REMARK    1  A    between atoms: C_1  and  O_2
REMARK    2  A    between atoms: O_2  and  C_3
REMARK    3  A    between atoms: N_14  and  C_15
REMARK    4  A    between atoms: C_15  and  C_16
REMARK                            x       y       z     vdW  Elec       q    Type
REMARK                         _______ _______ _______ _____ _____    ______ ____
ROOT
ATOM      1  C   UNL     1      -2.912  11.088  17.632  0.00  0.00    +0.000 A 
ATOM      2  C   UNL     1      -2.207  10.023  17.072  0.00  0.00    +0.000 A 
ATOM      3  C   UNL     1      -0.925   9.743  17.542  0.00  0.00    +0.000 A 
ATOM      4  C   UNL     1      -0.431  10.543  18.550  0.00  0.00    +0.000 A 
ATOM      5  C   UNL     1      -1.204  11.563  19.064  0.00  0.00    +0.000 A 
ATOM      6  N   UNL     1      -2.439  11.874  18.627  0.00  0.00    +0.000 NA
ATOM      7  C   UNL     1      -0.430  12.301  20.105  0.00  0.00    +0.000 C 
ATOM      8  C   UNL     1       0.885  11.500  20.077  0.00  0.00    +0.000 C 
ATOM      9  O   UNL     1       0.817  10.436  19.087  0.00  0.00    +0.000 OA
ATOM     10  C   UNL     1      -1.059  12.242  21.506  0.00  0.00    +0.000 C 
ATOM     11  O   UNL     1      -1.382  11.232  22.119  0.00  0.00    +0.000 OA
ATOM     12  N   UNL     1      -1.142  13.561  21.982  0.00  0.00    +0.000 N 
ATOM     13  C   UNL     1      -0.690  14.471  21.017  0.00  0.00    +0.000 A 
ATOM     14  C   UNL     1      -0.644  15.853  21.081  0.00  0.00    +0.000 A 
ATOM     15  C   UNL     1      -0.182  16.547  19.963  0.00  0.00    +0.000 A 
ATOM     16  C   UNL     1       0.228  15.863  18.811  0.00  0.00    +0.000 A 
ATOM     17  C   UNL     1       0.186  14.464  18.760  0.00  0.00    +0.000 A 
ATOM     18  C   UNL     1      -0.273  13.781  19.876  0.00  0.00    +0.000 A 
ENDROOT
BRANCH   1  20
ATOM     19  C   UNL     1      -5.213  11.105  18.019  0.00  0.00    +0.000 C 
ATOM     20  O   UNL     1      -4.158  11.346  17.093  0.00  0.00    +0.000 OA
ENDBRANCH   1  20
BRANCH  12  21
ATOM     21  C   UNL     1      -1.599  13.914  23.316  0.00  0.00    +0.000 C 
BRANCH  21  22
ATOM     22  C   UNL     1      -3.065  14.292  23.318  0.00  0.00    +0.000 A 
ATOM     23  C   UNL     1      -3.511  15.524  23.828  0.00  0.00    +0.000 A 
ATOM     24  C   UNL     1      -4.874  15.749  24.048  0.00  0.00    +0.000 A 
ATOM     25  C   UNL     1      -5.793  14.740  23.775  0.00  0.00    +0.000 A 
ATOM     26  C   UNL     1      -5.365  13.573  23.149  0.00  0.00    +0.000 A 
ATOM     27  C   UNL     1      -4.014  13.346  22.913  0.00  0.00    +0.000 A 
ATOM     28  O   UNL     1      -6.243  12.580  22.810  0.00  0.00    +0.000 OA
ATOM     29  C   UNL     1      -7.144  12.432  23.903  0.00  0.00    +0.000 C 
ATOM     30  C   UNL     1      -7.877  13.736  24.214  0.00  0.00    +0.000 C 
ATOM     31  O   UNL     1      -7.079  14.930  24.195  0.00  0.00    +0.000 OA
ENDBRANCH  21  22
ENDBRANCH  12  21
TORSDOF 3
ENDMDL
