MODEL 1
REMARK VINA RESULT:      -6.4      0.000      0.000
REMARK  Name = 
REMARK  8 active torsions:
REMARK  status: ('A' for Active; 'I' for Inactive)
REMARK    1  A    between atoms: C_1  and  O_2
REMARK    2  A    between atoms: O_2  and  C_3
REMARK    3  A    between atoms: C_8  and  C_9
REMARK    4  A    between atoms: C_9  and  C_10
REMARK    5  A    between atoms: N_15  and  C_16
REMARK    6  A    between atoms: C_16  and  C_17
REMARK    7  A    between atoms: C_17  and  C_18
REMARK    8  A    between atoms: C_17  and  O_19
REMARK                            x       y       z     vdW  Elec       q    Type
REMARK                         _______ _______ _______ _____ _____    ______ ____
ROOT
ATOM      1  C   UNL     1       4.987   5.685  18.764  0.00  0.00    +0.000 C 
ATOM      2  O   UNL     1       5.871   5.790  19.625  0.00  0.00    +0.000 OA
ATOM      3  N   UNL     1       5.299   5.648  17.421  0.00  0.00    +0.000 N 
ATOM      4  C   UNL     1       6.724   5.673  17.056  0.00  0.00    +0.000 C 
ATOM      5  C   UNL     1       7.180   4.276  16.594  0.00  0.00    +0.000 C 
ATOM      6  N   UNL     1       6.380   3.735  15.465  0.00  0.00    +0.000 NA
ATOM      7  C   UNL     1       4.940   3.764  15.865  0.00  0.00    +0.000 C 
ATOM      8  C   UNL     1       4.432   5.145  16.360  0.00  0.00    +0.000 C 
ENDROOT
BRANCH   1   9
ATOM      9  C   UNL     1       3.559   5.612  19.265  0.00  0.00    +0.000 C 
ATOM     10  C   UNL     1       2.812   6.901  18.791  0.00  0.00    +0.000 C 
ATOM     11  C   UNL     1       2.828   6.552  20.228  0.00  0.00    +0.000 C 
BRANCH   9  17
ATOM     12  C   UNL     1       3.405   2.991  19.345  0.00  0.00    +0.000 A 
ATOM     13  C   UNL     1       2.629   1.826  19.185  0.00  0.00    +0.000 A 
ATOM     14  C   UNL     1       1.361   1.882  18.613  0.00  0.00    +0.000 A 
ATOM     15  C   UNL     1       0.855   3.096  18.183  0.00  0.00    +0.000 A 
ATOM     16  C   UNL     1       1.596   4.259  18.380  0.00  0.00    +0.000 A 
ATOM     17  C   UNL     1       2.862   4.253  19.006  0.00  0.00    +0.000 A 
BRANCH  12  19
ATOM     18  C   UNL     1       5.013   1.772  20.593  0.00  0.00    +0.000 C 
ATOM     19  O   UNL     1       4.688   2.954  19.845  0.00  0.00    +0.000 OA
ENDBRANCH  12  19
ENDBRANCH   9  17
ENDBRANCH   1   9
BRANCH   6  20
ATOM     20  C   UNL     1       6.578   4.495  14.214  0.00  0.00    +0.000 C 
BRANCH  20  21
ATOM     21  C   UNL     1       6.545   3.710  12.882  0.00  0.00    +0.000 C 
ATOM     22  C   UNL     1       5.149   3.546  12.299  0.00  0.00    +0.000 C 
BRANCH  21  23
ATOM     23  O   UNL     1       7.359   4.404  11.927  0.00  0.00    +0.000 OA
ATOM     24  H   UNL     1       7.464   3.826  11.153  0.00  0.00    +0.000 HD
ENDBRANCH  21  23
ENDBRANCH  20  21
ENDBRANCH   6  20
TORSDOF 6
ENDMDL
MODEL 2
REMARK VINA RESULT:      -6.3      2.581      5.848
REMARK  Name = 
REMARK  8 active torsions:
REMARK  status: ('A' for Active; 'I' for Inactive)
REMARK    1  A    between atoms: C_1  and  O_2
REMARK    2  A    between atoms: O_2  and  C_3
REMARK    3  A    between atoms: C_8  and  C_9
REMARK    4  A    between atoms: C_9  and  C_10
REMARK    5  A    between atoms: N_15  and  C_16
REMARK    6  A    between atoms: C_16  and  C_17
REMARK    7  A    between atoms: C_17  and  C_18
REMARK    8  A    between atoms: C_17  and  O_19
REMARK                            x       y       z     vdW  Elec       q    Type
REMARK                         _______ _______ _______ _____ _____    ______ ____
ROOT
ATOM      1  C   UNL     1       3.055   4.000  19.424  0.00  0.00    +0.000 C 
ATOM      2  O   UNL     1       3.202   3.730  20.624  0.00  0.00    +0.000 OA
ATOM      3  N   UNL     1       2.282   5.070  19.021  0.00  0.00    +0.000 N 
ATOM      4  C   UNL     1       1.694   5.913  20.073  0.00  0.00    +0.000 C 
ATOM      5  C   UNL     1       2.447   7.254  20.164  0.00  0.00    +0.000 C 
ATOM      6  N   UNL     1       2.483   8.000  18.880  0.00  0.00    +0.000 NA
ATOM      7  C   UNL     1       3.052   7.095  17.836  0.00  0.00    +0.000 C 
ATOM      8  C   UNL     1       2.343   5.718  17.715  0.00  0.00    +0.000 C 
ENDROOT
BRANCH   1   9
ATOM      9  C   UNL     1       3.756   3.090  18.435  0.00  0.00    +0.000 C 
ATOM     10  C   UNL     1       2.674   2.194  17.750  0.00  0.00    +0.000 C 
ATOM     11  C   UNL     1       3.831   1.561  18.420  0.00  0.00    +0.000 C 
BRANCH   9  17
ATOM     12  C   UNL     1       5.927   4.490  17.958  0.00  0.00    +0.000 A 
ATOM     13  C   UNL     1       6.848   5.002  17.021  0.00  0.00    +0.000 A 
ATOM     14  C   UNL     1       6.593   4.931  15.654  0.00  0.00    +0.000 A 
ATOM     15  C   UNL     1       5.414   4.363  15.203  0.00  0.00    +0.000 A 
ATOM     16  C   UNL     1       4.521   3.814  16.120  0.00  0.00    +0.000 A 
ATOM     17  C   UNL     1       4.767   3.815  17.511  0.00  0.00    +0.000 A 
BRANCH  12  19
ATOM     18  C   UNL     1       7.199   5.477  19.700  0.00  0.00    +0.000 C 
ATOM     19  O   UNL     1       6.123   4.608  19.316  0.00  0.00    +0.000 OA
ENDBRANCH  12  19
ENDBRANCH   9  17
ENDBRANCH   1   9
BRANCH   6  20
ATOM     20  C   UNL     1       1.151   8.484  18.466  0.00  0.00    +0.000 C 
BRANCH  20  21
ATOM     21  C   UNL     1       0.963  10.009  18.284  0.00  0.00    +0.000 C 
ATOM     22  C   UNL     1       0.951  10.788  19.591  0.00  0.00    +0.000 C 
BRANCH  21  23
ATOM     23  O   UNL     1       2.034  10.502  17.469  0.00  0.00    +0.000 OA
ATOM     24  H   UNL     1       2.713   9.809  17.421  0.00  0.00    +0.000 HD
ENDBRANCH  21  23
ENDBRANCH  20  21
ENDBRANCH   6  20
TORSDOF 6
ENDMDL
MODEL 3
REMARK VINA RESULT:      -6.2      1.324      1.630
REMARK  Name = 
REMARK  8 active torsions:
REMARK  status: ('A' for Active; 'I' for Inactive)
REMARK    1  A    between atoms: C_1  and  O_2
REMARK    2  A    between atoms: O_2  and  C_3
REMARK    3  A    between atoms: C_8  and  C_9
REMARK    4  A    between atoms: C_9  and  C_10
REMARK    5  A    between atoms: N_15  and  C_16
REMARK    6  A    between atoms: C_16  and  C_17
REMARK    7  A    between atoms: C_17  and  C_18
REMARK    8  A    between atoms: C_17  and  O_19
REMARK                            x       y       z     vdW  Elec       q    Type
REMARK                         _______ _______ _______ _____ _____    ______ ____
ROOT
ATOM      1  C   UNL     1       5.022   5.676  18.887  0.00  0.00    +0.000 C 
ATOM      2  O   UNL     1       5.732   5.348  19.847  0.00  0.00    +0.000 OA
ATOM      3  N   UNL     1       5.566   5.902  17.640  0.00  0.00    +0.000 N 
ATOM      4  C   UNL     1       7.010   5.676  17.481  0.00  0.00    +0.000 C 
ATOM      5  C   UNL     1       7.263   4.372  16.700  0.00  0.00    +0.000 C 
ATOM      6  N   UNL     1       6.598   4.338  15.372  0.00  0.00    +0.000 NA
ATOM      7  C   UNL     1       5.142   4.610  15.578  0.00  0.00    +0.000 C 
ATOM      8  C   UNL     1       4.831   5.903  16.378  0.00  0.00    +0.000 C 
ENDROOT
BRANCH   1   9
ATOM      9  C   UNL     1       3.539   5.825  19.162  0.00  0.00    +0.000 C 
ATOM     10  C   UNL     1       2.867   6.428  17.886  0.00  0.00    +0.000 C 
ATOM     11  C   UNL     1       2.689   7.098  19.192  0.00  0.00    +0.000 C 
BRANCH   9  17
ATOM     12  C   UNL     1       2.875   3.284  19.197  0.00  0.00    +0.000 A 
ATOM     13  C   UNL     1       2.360   2.184  19.912  0.00  0.00    +0.000 A 
ATOM     14  C   UNL     1       1.770   2.354  21.161  0.00  0.00    +0.000 A 
ATOM     15  C   UNL     1       1.674   3.623  21.708  0.00  0.00    +0.000 A 
ATOM     16  C   UNL     1       2.222   4.708  21.029  0.00  0.00    +0.000 A 
ATOM     17  C   UNL     1       2.878   4.570  19.786  0.00  0.00    +0.000 A 
BRANCH  12  19
ATOM     18  C   UNL     1       3.584   1.799  17.487  0.00  0.00    +0.000 C 
ATOM     19  O   UNL     1       3.402   3.152  17.931  0.00  0.00    +0.000 OA
ENDBRANCH  12  19
ENDBRANCH   9  17
ENDBRANCH   1   9
BRANCH   6  20
ATOM     20  C   UNL     1       7.171   5.316  14.425  0.00  0.00    +0.000 C 
BRANCH  20  21
ATOM     21  C   UNL     1       7.712   4.782  13.079  0.00  0.00    +0.000 C 
ATOM     22  C   UNL     1       6.709   3.943  12.302  0.00  0.00    +0.000 C 
BRANCH  21  23
ATOM     23  O   UNL     1       8.093   5.902  12.269  0.00  0.00    +0.000 OA
ATOM     24  H   UNL     1       7.773   6.708  12.708  0.00  0.00    +0.000 HD
ENDBRANCH  21  23
ENDBRANCH  20  21
ENDBRANCH   6  20
TORSDOF 6
ENDMDL
MODEL 4
REMARK VINA RESULT:      -6.2      1.397      1.571
REMARK  Name = 
REMARK  8 active torsions:
REMARK  status: ('A' for Active; 'I' for Inactive)
REMARK    1  A    between atoms: C_1  and  O_2
REMARK    2  A    between atoms: O_2  and  C_3
REMARK    3  A    between atoms: C_8  and  C_9
REMARK    4  A    between atoms: C_9  and  C_10
REMARK    5  A    between atoms: N_15  and  C_16
REMARK    6  A    between atoms: C_16  and  C_17
REMARK    7  A    between atoms: C_17  and  C_18
REMARK    8  A    between atoms: C_17  and  O_19
REMARK                            x       y       z     vdW  Elec       q    Type
REMARK                         _______ _______ _______ _____ _____    ______ ____
ROOT
ATOM      1  C   UNL     1       4.964   5.634  18.721  0.00  0.00    +0.000 C 
ATOM      2  O   UNL     1       5.628   5.301  19.712  0.00  0.00    +0.000 OA
ATOM      3  N   UNL     1       5.572   5.906  17.512  0.00  0.00    +0.000 N 
ATOM      4  C   UNL     1       7.028   5.722  17.431  0.00  0.00    +0.000 C 
ATOM      5  C   UNL     1       7.360   4.444  16.636  0.00  0.00    +0.000 C 
ATOM      6  N   UNL     1       6.772   4.427  15.272  0.00  0.00    +0.000 NA
ATOM      7  C   UNL     1       5.301   4.654  15.400  0.00  0.00    +0.000 C 
ATOM      8  C   UNL     1       4.908   5.919  16.212  0.00  0.00    +0.000 C 
ENDROOT
BRANCH   1   9
ATOM      9  C   UNL     1       3.465   5.737  18.914  0.00  0.00    +0.000 C 
ATOM     10  C   UNL     1       2.942   6.918  18.034  0.00  0.00    +0.000 C 
ATOM     11  C   UNL     1       2.645   6.899  19.483  0.00  0.00    +0.000 C 
BRANCH   9  17
ATOM     12  C   UNL     1       1.825   3.877  19.782  0.00  0.00    +0.000 A 
ATOM     13  C   UNL     1       1.096   2.699  19.522  0.00  0.00    +0.000 A 
ATOM     14  C   UNL     1       1.301   1.972  18.352  0.00  0.00    +0.000 A 
ATOM     15  C   UNL     1       2.242   2.402  17.433  0.00  0.00    +0.000 A 
ATOM     16  C   UNL     1       2.934   3.590  17.660  0.00  0.00    +0.000 A 
ATOM     17  C   UNL     1       2.715   4.385  18.807  0.00  0.00    +0.000 A 
BRANCH  12  19
ATOM     18  C   UNL     1       2.374   4.004  22.086  0.00  0.00    +0.000 C 
ATOM     19  O   UNL     1       1.691   4.577  20.961  0.00  0.00    +0.000 OA
ENDBRANCH  12  19
ENDBRANCH   9  17
ENDBRANCH   1   9
BRANCH   6  20
ATOM     20  C   UNL     1       7.370   5.443  14.382  0.00  0.00    +0.000 C 
BRANCH  20  21
ATOM     21  C   UNL     1       7.906   4.972  13.010  0.00  0.00    +0.000 C 
ATOM     22  C   UNL     1       6.926   4.109  12.229  0.00  0.00    +0.000 C 
BRANCH  21  23
ATOM     23  O   UNL     1       8.218   6.131  12.224  0.00  0.00    +0.000 OA
ATOM     24  H   UNL     1       7.793   6.023  11.357  0.00  0.00    +0.000 HD
ENDBRANCH  21  23
ENDBRANCH  20  21
ENDBRANCH   6  20
TORSDOF 6
ENDMDL
MODEL 5
REMARK VINA RESULT:      -6.0      2.792      4.582
REMARK  Name = 
REMARK  8 active torsions:
REMARK  status: ('A' for Active; 'I' for Inactive)
REMARK    1  A    between atoms: C_1  and  O_2
REMARK    2  A    between atoms: O_2  and  C_3
REMARK    3  A    between atoms: C_8  and  C_9
REMARK    4  A    between atoms: C_9  and  C_10
REMARK    5  A    between atoms: N_15  and  C_16
REMARK    6  A    between atoms: C_16  and  C_17
REMARK    7  A    between atoms: C_17  and  C_18
REMARK    8  A    between atoms: C_17  and  O_19
REMARK                            x       y       z     vdW  Elec       q    Type
REMARK                         _______ _______ _______ _____ _____    ______ ____
ROOT
ATOM      1  C   UNL     1       5.348   4.501  18.677  0.00  0.00    +0.000 C 
ATOM      2  O   UNL     1       6.077   3.647  19.198  0.00  0.00    +0.000 OA
ATOM      3  N   UNL     1       5.718   5.830  18.639  0.00  0.00    +0.000 N 
ATOM      4  C   UNL     1       7.038   6.180  19.183  0.00  0.00    +0.000 C 
ATOM      5  C   UNL     1       8.021   6.487  18.037  0.00  0.00    +0.000 C 
ATOM      6  N   UNL     1       7.550   7.561  17.125  0.00  0.00    +0.000 NA
ATOM      7  C   UNL     1       6.193   7.181  16.627  0.00  0.00    +0.000 C 
ATOM      8  C   UNL     1       5.166   6.840  17.741  0.00  0.00    +0.000 C 
ENDROOT
BRANCH   1   9
ATOM      9  C   UNL     1       4.035   4.010  18.102  0.00  0.00    +0.000 C 
ATOM     10  C   UNL     1       4.345   2.832  17.121  0.00  0.00    +0.000 C 
ATOM     11  C   UNL     1       3.567   3.997  16.643  0.00  0.00    +0.000 C 
BRANCH   9  17
ATOM     12  C   UNL     1       1.991   4.760  19.572  0.00  0.00    +0.000 A 
ATOM     13  C   UNL     1       0.940   4.407  20.442  0.00  0.00    +0.000 A 
ATOM     14  C   UNL     1       0.851   3.123  20.974  0.00  0.00    +0.000 A 
ATOM     15  C   UNL     1       1.814   2.180  20.657  0.00  0.00    +0.000 A 
ATOM     16  C   UNL     1       2.830   2.508  19.763  0.00  0.00    +0.000 A 
ATOM     17  C   UNL     1       2.924   3.780  19.157  0.00  0.00    +0.000 A 
BRANCH  12  19
ATOM     18  C   UNL     1       2.109   7.074  20.081  0.00  0.00    +0.000 C 
ATOM     19  O   UNL     1       2.140   6.040  19.086  0.00  0.00    +0.000 OA
ENDBRANCH  12  19
ENDBRANCH   9  17
ENDBRANCH   1   9
BRANCH   6  20
ATOM     20  C   UNL     1       7.503   8.883  17.780  0.00  0.00    +0.000 C 
BRANCH  20  21
ATOM     21  C   UNL     1       8.847   9.552  18.153  0.00  0.00    +0.000 C 
ATOM     22  C   UNL     1       8.860  11.060  17.952  0.00  0.00    +0.000 C 
BRANCH  21  23
ATOM     23  O   UNL     1       9.124   9.273  19.532  0.00  0.00    +0.000 OA
ATOM     24  H   UNL     1       8.984  10.094  20.033  0.00  0.00    +0.000 HD
ENDBRANCH  21  23
ENDBRANCH  20  21
ENDBRANCH   6  20
TORSDOF 6
ENDMDL
MODEL 6
REMARK VINA RESULT:      -6.0      4.675      7.624
REMARK  Name = 
REMARK  8 active torsions:
REMARK  status: ('A' for Active; 'I' for Inactive)
REMARK    1  A    between atoms: C_1  and  O_2
REMARK    2  A    between atoms: O_2  and  C_3
REMARK    3  A    between atoms: C_8  and  C_9
REMARK    4  A    between atoms: C_9  and  C_10
REMARK    5  A    between atoms: N_15  and  C_16
REMARK    6  A    between atoms: C_16  and  C_17
REMARK    7  A    between atoms: C_17  and  C_18
REMARK    8  A    between atoms: C_17  and  O_19
REMARK                            x       y       z     vdW  Elec       q    Type
REMARK                         _______ _______ _______ _____ _____    ______ ____
ROOT
ATOM      1  C   UNL     1       0.747   9.006  20.150  0.00  0.00    +0.000 C 
ATOM      2  O   UNL     1       0.025   8.877  21.148  0.00  0.00    +0.000 OA
ATOM      3  N   UNL     1       1.840   8.188  19.949  0.00  0.00    +0.000 N 
ATOM      4  C   UNL     1       2.074   7.119  20.930  0.00  0.00    +0.000 C 
ATOM      5  C   UNL     1       1.688   5.753  20.331  0.00  0.00    +0.000 C 
ATOM      6  N   UNL     1       2.397   5.440  19.064  0.00  0.00    +0.000 NA
ATOM      7  C   UNL     1       2.163   6.568  18.113  0.00  0.00    +0.000 C 
ATOM      8  C   UNL     1       2.516   7.973  18.673  0.00  0.00    +0.000 C 
ENDROOT
BRANCH   1   9
ATOM      9  C   UNL     1       0.372  10.110  19.182  0.00  0.00    +0.000 C 
ATOM     10  C   UNL     1      -1.186  10.226  19.158  0.00  0.00    +0.000 C 
ATOM     11  C   UNL     1      -0.449  10.021  17.893  0.00  0.00    +0.000 C 
BRANCH   9  17
ATOM     12  C   UNL     1       1.250  12.159  20.571  0.00  0.00    +0.000 A 
ATOM     13  C   UNL     1       2.119  13.265  20.667  0.00  0.00    +0.000 A 
ATOM     14  C   UNL     1       2.850  13.700  19.565  0.00  0.00    +0.000 A 
ATOM     15  C   UNL     1       2.715  13.048  18.351  0.00  0.00    +0.000 A 
ATOM     16  C   UNL     1       1.894  11.926  18.260  0.00  0.00    +0.000 A 
ATOM     17  C   UNL     1       1.179  11.420  19.367  0.00  0.00    +0.000 A 
BRANCH  12  19
ATOM     18  C   UNL     1      -0.602  12.647  21.971  0.00  0.00    +0.000 C 
ATOM     19  O   UNL     1       0.465  11.751  21.627  0.00  0.00    +0.000 OA
ENDBRANCH  12  19
ENDBRANCH   9  17
ENDBRANCH   1   9
BRANCH   6  20
ATOM     20  C   UNL     1       3.846   5.230  19.261  0.00  0.00    +0.000 C 
BRANCH  20  21
ATOM     21  C   UNL     1       4.393   3.791  19.112  0.00  0.00    +0.000 C 
ATOM     22  C   UNL     1       3.837   3.044  17.909  0.00  0.00    +0.000 C 
BRANCH  21  23
ATOM     23  O   UNL     1       5.819   3.860  18.986  0.00  0.00    +0.000 OA
ATOM     24  H   UNL     1       6.087   4.779  19.154  0.00  0.00    +0.000 HD
ENDBRANCH  21  23
ENDBRANCH  20  21
ENDBRANCH   6  20
TORSDOF 6
ENDMDL
MODEL 7
REMARK VINA RESULT:      -6.0      2.064      6.674
REMARK  Name = 
REMARK  8 active torsions:
REMARK  status: ('A' for Active; 'I' for Inactive)
REMARK    1  A    between atoms: C_1  and  O_2
REMARK    2  A    between atoms: O_2  and  C_3
REMARK    3  A    between atoms: C_8  and  C_9
REMARK    4  A    between atoms: C_9  and  C_10
REMARK    5  A    between atoms: N_15  and  C_16
REMARK    6  A    between atoms: C_16  and  C_17
REMARK    7  A    between atoms: C_17  and  C_18
REMARK    8  A    between atoms: C_17  and  O_19
REMARK                            x       y       z     vdW  Elec       q    Type
REMARK                         _______ _______ _______ _____ _____    ______ ____
ROOT
ATOM      1  C   UNL     1       5.069   3.934  16.399  0.00  0.00    +0.000 C 
ATOM      2  O   UNL     1       5.775   2.916  16.413  0.00  0.00    +0.000 OA
ATOM      3  N   UNL     1       3.988   4.065  17.246  0.00  0.00    +0.000 N 
ATOM      4  C   UNL     1       3.747   2.980  18.209  0.00  0.00    +0.000 C 
ATOM      5  C   UNL     1       4.157   3.424  19.626  0.00  0.00    +0.000 C 
ATOM      6  N   UNL     1       3.473   4.662  20.079  0.00  0.00    +0.000 NA
ATOM      7  C   UNL     1       3.713   5.724  19.055  0.00  0.00    +0.000 C 
ATOM      8  C   UNL     1       3.336   5.322  17.603  0.00  0.00    +0.000 C 
ENDROOT
BRANCH   1   9
ATOM      9  C   UNL     1       5.449   5.008  15.400  0.00  0.00    +0.000 C 
ATOM     10  C   UNL     1       6.493   5.953  16.078  0.00  0.00    +0.000 C 
ATOM     11  C   UNL     1       5.259   6.524  15.497  0.00  0.00    +0.000 C 
BRANCH   9  17
ATOM     12  C   UNL     1       7.029   4.659  13.330  0.00  0.00    +0.000 A 
ATOM     13  C   UNL     1       7.279   4.015  12.102  0.00  0.00    +0.000 A 
ATOM     14  C   UNL     1       6.292   3.260  11.474  0.00  0.00    +0.000 A 
ATOM     15  C   UNL     1       5.040   3.148  12.055  0.00  0.00    +0.000 A 
ATOM     16  C   UNL     1       4.799   3.743  13.291  0.00  0.00    +0.000 A 
ATOM     17  C   UNL     1       5.790   4.470  13.987  0.00  0.00    +0.000 A 
BRANCH  12  19
ATOM     18  C   UNL     1       8.977   5.986  13.062  0.00  0.00    +0.000 C 
ATOM     19  O   UNL     1       7.966   5.466  13.938  0.00  0.00    +0.000 OA
ENDBRANCH  12  19
ENDBRANCH   9  17
ENDBRANCH   1   9
BRANCH   6  20
ATOM     20  C   UNL     1       2.023   4.467  20.284  0.00  0.00    +0.000 C 
BRANCH  20  21
ATOM     21  C   UNL     1       1.509   3.020  20.467  0.00  0.00    +0.000 C 
ATOM     22  C   UNL     1       1.424   2.578  21.921  0.00  0.00    +0.000 C 
BRANCH  21  23
ATOM     23  O   UNL     1       0.202   2.927  19.885  0.00  0.00    +0.000 OA
ATOM     24  H   UNL     1       0.219   2.206  19.235  0.00  0.00    +0.000 HD
ENDBRANCH  21  23
ENDBRANCH  20  21
ENDBRANCH   6  20
TORSDOF 6
ENDMDL
MODEL 8
REMARK VINA RESULT:      -5.9      4.176      7.714
REMARK  Name = 
REMARK  8 active torsions:
REMARK  status: ('A' for Active; 'I' for Inactive)
REMARK    1  A    between atoms: C_1  and  O_2
REMARK    2  A    between atoms: O_2  and  C_3
REMARK    3  A    between atoms: C_8  and  C_9
REMARK    4  A    between atoms: C_9  and  C_10
REMARK    5  A    between atoms: N_15  and  C_16
REMARK    6  A    between atoms: C_16  and  C_17
REMARK    7  A    between atoms: C_17  and  C_18
REMARK    8  A    between atoms: C_17  and  O_19
REMARK                            x       y       z     vdW  Elec       q    Type
REMARK                         _______ _______ _______ _____ _____    ______ ____
ROOT
ATOM      1  C   UNL     1       2.175   7.192  18.950  0.00  0.00    +0.000 C 
ATOM      2  O   UNL     1       2.037   7.227  17.720  0.00  0.00    +0.000 OA
ATOM      3  N   UNL     1       1.932   8.304  19.729  0.00  0.00    +0.000 N 
ATOM      4  C   UNL     1       1.439   9.511  19.048  0.00  0.00    +0.000 C 
ATOM      5  C   UNL     1      -0.060   9.713  19.339  0.00  0.00    +0.000 C 
ATOM      6  N   UNL     1      -0.378   9.785  20.788  0.00  0.00    +0.000 NA
ATOM      7  C   UNL     1       0.173   8.560  21.443  0.00  0.00    +0.000 C 
ATOM      8  C   UNL     1       1.677   8.297  21.166  0.00  0.00    +0.000 C 
ENDROOT
BRANCH   1   9
ATOM      9  C   UNL     1       2.635   5.875  19.542  0.00  0.00    +0.000 C 
ATOM     10  C   UNL     1       1.387   4.945  19.687  0.00  0.00    +0.000 C 
ATOM     11  C   UNL     1       2.233   5.222  20.868  0.00  0.00    +0.000 C 
BRANCH   9  17
ATOM     12  C   UNL     1       3.864   4.366  17.777  0.00  0.00    +0.000 A 
ATOM     13  C   UNL     1       5.066   3.985  17.148  0.00  0.00    +0.000 A 
ATOM     14  C   UNL     1       6.297   4.422  17.630  0.00  0.00    +0.000 A 
ATOM     15  C   UNL     1       6.347   5.232  18.751  0.00  0.00    +0.000 A 
ATOM     16  C   UNL     1       5.161   5.650  19.352  0.00  0.00    +0.000 A 
ATOM     17  C   UNL     1       3.891   5.275  18.861  0.00  0.00    +0.000 A 
BRANCH  12  19
ATOM     18  C   UNL     1       2.449   2.479  17.519  0.00  0.00    +0.000 C 
ATOM     19  O   UNL     1       2.638   3.893  17.362  0.00  0.00    +0.000 OA
ENDBRANCH  12  19
ENDBRANCH   9  17
ENDBRANCH   1   9
BRANCH   6  20
ATOM     20  C   UNL     1       0.170  10.998  21.430  0.00  0.00    +0.000 C 
BRANCH  20  21
ATOM     21  C   UNL     1      -0.785  11.846  22.301  0.00  0.00    +0.000 C 
ATOM     22  C   UNL     1      -2.051  12.283  21.579  0.00  0.00    +0.000 C 
BRANCH  21  23
ATOM     23  O   UNL     1      -1.159  11.072  23.448  0.00  0.00    +0.000 OA
ATOM     24  H   UNL     1      -1.957  10.569  23.217  0.00  0.00    +0.000 HD
ENDBRANCH  21  23
ENDBRANCH  20  21
ENDBRANCH   6  20
TORSDOF 6
ENDMDL
MODEL 9
REMARK VINA RESULT:      -5.9      1.752      3.795
REMARK  Name = 
REMARK  8 active torsions:
REMARK  status: ('A' for Active; 'I' for Inactive)
REMARK    1  A    between atoms: C_1  and  O_2
REMARK    2  A    between atoms: O_2  and  C_3
REMARK    3  A    between atoms: C_8  and  C_9
REMARK    4  A    between atoms: C_9  and  C_10
REMARK    5  A    between atoms: N_15  and  C_16
REMARK    6  A    between atoms: C_16  and  C_17
REMARK    7  A    between atoms: C_17  and  C_18
REMARK    8  A    between atoms: C_17  and  O_19
REMARK                            x       y       z     vdW  Elec       q    Type
REMARK                         _______ _______ _______ _____ _____    ______ ____
ROOT
ATOM      1  C   UNL     1       4.349   5.613  18.734  0.00  0.00    +0.000 C 
ATOM      2  O   UNL     1       4.911   5.446  19.825  0.00  0.00    +0.000 OA
ATOM      3  N   UNL     1       5.075   5.834  17.582  0.00  0.00    +0.000 N 
ATOM      4  C   UNL     1       6.541   5.800  17.689  0.00  0.00    +0.000 C 
ATOM      5  C   UNL     1       7.089   4.497  17.077  0.00  0.00    +0.000 C 
ATOM      6  N   UNL     1       6.682   4.289  15.663  0.00  0.00    +0.000 NA
ATOM      7  C   UNL     1       5.191   4.369  15.596  0.00  0.00    +0.000 C 
ATOM      8  C   UNL     1       4.582   5.655  16.219  0.00  0.00    +0.000 C 
ENDROOT
BRANCH   1   9
ATOM      9  C   UNL     1       2.834   5.572  18.741  0.00  0.00    +0.000 C 
ATOM     10  C   UNL     1       2.388   4.116  19.095  0.00  0.00    +0.000 C 
ATOM     11  C   UNL     1       1.888   4.754  17.857  0.00  0.00    +0.000 C 
BRANCH   9  17
ATOM     12  C   UNL     1       2.017   8.051  19.048  0.00  0.00    +0.000 A 
ATOM     13  C   UNL     1       1.282   8.991  19.796  0.00  0.00    +0.000 A 
ATOM     14  C   UNL     1       0.772   8.669  21.051  0.00  0.00    +0.000 A 
ATOM     15  C   UNL     1       0.999   7.410  21.582  0.00  0.00    +0.000 A 
ATOM     16  C   UNL     1       1.686   6.460  20.829  0.00  0.00    +0.000 A 
ATOM     17  C   UNL     1       2.170   6.729  19.530  0.00  0.00    +0.000 A 
BRANCH  12  19
ATOM     18  C   UNL     1       2.516   9.752  17.472  0.00  0.00    +0.000 C 
ATOM     19  O   UNL     1       2.590   8.365  17.835  0.00  0.00    +0.000 OA
ENDBRANCH  12  19
ENDBRANCH   9  17
ENDBRANCH   1   9
BRANCH   6  20
ATOM     20  C   UNL     1       7.288   5.276  14.747  0.00  0.00    +0.000 C 
BRANCH  20  21
ATOM     21  C   UNL     1       7.755   4.778  13.359  0.00  0.00    +0.000 C 
ATOM     22  C   UNL     1       6.681   4.032  12.580  0.00  0.00    +0.000 C 
BRANCH  21  23
ATOM     23  O   UNL     1       8.171   5.913  12.588  0.00  0.00    +0.000 OA
ATOM     24  H   UNL     1       8.007   5.710  11.651  0.00  0.00    +0.000 HD
ENDBRANCH  21  23
ENDBRANCH  20  21
ENDBRANCH   6  20
TORSDOF 6
ENDMDL
