MODEL 1
REMARK VINA RESULT:      -7.7      0.000      0.000
REMARK  Name = 
REMARK  8 active torsions:
REMARK  status: ('A' for Active; 'I' for Inactive)
REMARK    1  A    between atoms: C_1  and  C_2
REMARK    2  A    between atoms: C_2  and  C_3
REMARK    3  A    between atoms: C_3  and  C_4
REMARK    4  A    between atoms: C_4  and  N_5
REMARK    5  A    between atoms: C_12  and  O_13
REMARK    6  A    between atoms: N_14  and  C_15
REMARK    7  A    between atoms: C_15  and  C_16
REMARK    8  A    between atoms: C_20  and  C_21
REMARK                            x       y       z     vdW  Elec       q    Type
REMARK                         _______ _______ _______ _____ _____    ______ ____
ROOT
ATOM      1  N   UNL     1       1.902   7.376  19.842  0.00  0.00    +0.000 N 
ATOM      2  C   UNL     1       2.133   6.002  19.762  0.00  0.00    +0.000 A 
ATOM      3  N   UNL     1       1.476   5.196  20.622  0.00  0.00    +0.000 NA
ATOM      4  C   UNL     1       1.668   3.865  20.585  0.00  0.00    +0.000 A 
ATOM      5  N   UNL     1       0.973   3.071  21.493  0.00  0.00    +0.000 N 
ATOM      6  C   UNL     1       2.531   3.340  19.618  0.00  0.00    +0.000 A 
ATOM      7  N   UNL     1       2.879   2.042  19.309  0.00  0.00    +0.000 NA
ATOM      8  C   UNL     1       3.703   2.174  18.306  0.00  0.00    +0.000 A 
ATOM      9  N   UNL     1       3.921   3.479  17.944  0.00  0.00    +0.000 N 
ATOM     10  C   UNL     1       3.154   4.256  18.779  0.00  0.00    +0.000 A 
ATOM     11  N   UNL     1       3.000   5.596  18.803  0.00  0.00    +0.000 NA
ATOM     12  H   UNL     1       2.691   7.840  19.408  0.00  0.00    +0.000 HD
ATOM     13  H   UNL     1       0.150   3.543  21.843  0.00  0.00    +0.000 HD
ATOM     14  H   UNL     1       0.868   2.113  21.182  0.00  0.00    +0.000 HD
ENDROOT
BRANCH   8  15
ATOM     15  O   UNL     1       4.235   1.129  17.708  0.00  0.00    +0.000 OA
ATOM     16  H   UNL     1       5.165   1.189  17.997  0.00  0.00    +0.000 HD
ENDBRANCH   8  15
BRANCH   1  17
ATOM     17  C   UNL     1       1.531   7.849  21.173  0.00  0.00    +0.000 C 
BRANCH  17  18
ATOM     18  C   UNL     1       0.458   8.942  21.105  0.00  0.00    +0.000 C 
BRANCH  18  20
ATOM     19  C   UNL     1      -0.436   9.992  23.222  0.00  0.00    +0.000 C 
ATOM     20  C   UNL     1      -0.573   8.843  22.232  0.00  0.00    +0.000 C 
ENDBRANCH  18  20
ENDBRANCH  17  18
ENDBRANCH   1  17
BRANCH   9  21
ATOM     21  C   UNL     1       4.724   3.904  16.815  0.00  0.00    +0.000 C 
BRANCH  21  22
ATOM     22  C   UNL     1       5.746   4.946  17.202  0.00  0.00    +0.000 A 
ATOM     23  C   UNL     1       5.878   6.111  16.437  0.00  0.00    +0.000 A 
ATOM     24  C   UNL     1       6.807   7.089  16.789  0.00  0.00    +0.000 A 
ATOM     25  C   UNL     1       7.607   6.923  17.920  0.00  0.00    +0.000 A 
ATOM     26  C   UNL     1       7.490   5.772  18.706  0.00  0.00    +0.000 A 
ATOM     27  C   UNL     1       8.330   5.605  19.939  0.00  0.00    +0.000 C 
ATOM     28  C   UNL     1       6.566   4.783  18.335  0.00  0.00    +0.000 A 
ENDBRANCH  21  22
ENDBRANCH   9  21
TORSDOF 6
ENDMDL
MODEL 2
REMARK VINA RESULT:      -7.7      2.763      6.495
REMARK  Name = 
REMARK  8 active torsions:
REMARK  status: ('A' for Active; 'I' for Inactive)
REMARK    1  A    between atoms: C_1  and  C_2
REMARK    2  A    between atoms: C_2  and  C_3
REMARK    3  A    between atoms: C_3  and  C_4
REMARK    4  A    between atoms: C_4  and  N_5
REMARK    5  A    between atoms: C_12  and  O_13
REMARK    6  A    between atoms: N_14  and  C_15
REMARK    7  A    between atoms: C_15  and  C_16
REMARK    8  A    between atoms: C_20  and  C_21
REMARK                            x       y       z     vdW  Elec       q    Type
REMARK                         _______ _______ _______ _____ _____    ______ ____
ROOT
ATOM      1  N   UNL     1       8.114   7.514  18.645  0.00  0.00    +0.000 N 
ATOM      2  C   UNL     1       7.430   6.528  17.932  0.00  0.00    +0.000 A 
ATOM      3  N   UNL     1       7.614   6.468  16.596  0.00  0.00    +0.000 NA
ATOM      4  C   UNL     1       6.975   5.536  15.865  0.00  0.00    +0.000 A 
ATOM      5  N   UNL     1       7.190   5.512  14.491  0.00  0.00    +0.000 N 
ATOM      6  C   UNL     1       6.149   4.619  16.524  0.00  0.00    +0.000 A 
ATOM      7  N   UNL     1       5.422   3.544  16.060  0.00  0.00    +0.000 NA
ATOM      8  C   UNL     1       4.870   3.057  17.137  0.00  0.00    +0.000 A 
ATOM      9  N   UNL     1       5.186   3.752  18.277  0.00  0.00    +0.000 N 
ATOM     10  C   UNL     1       6.033   4.767  17.901  0.00  0.00    +0.000 A 
ATOM     11  N   UNL     1       6.642   5.701  18.660  0.00  0.00    +0.000 NA
ATOM     12  H   UNL     1       7.619   7.652  19.518  0.00  0.00    +0.000 HD
ATOM     13  H   UNL     1       8.059   5.967  14.244  0.00  0.00    +0.000 HD
ATOM     14  H   UNL     1       7.000   4.607  14.076  0.00  0.00    +0.000 HD
ENDROOT
BRANCH   8  15
ATOM     15  O   UNL     1       4.107   1.984  17.097  0.00  0.00    +0.000 OA
ATOM     16  H   UNL     1       4.679   1.354  16.620  0.00  0.00    +0.000 HD
ENDBRANCH   8  15
BRANCH   1  17
ATOM     17  C   UNL     1       8.408   8.721  17.876  0.00  0.00    +0.000 C 
BRANCH  17  18
ATOM     18  C   UNL     1       8.764   9.899  18.789  0.00  0.00    +0.000 C 
BRANCH  18  20
ATOM     19  C   UNL     1       9.208  12.217  17.884  0.00  0.00    +0.000 C 
ATOM     20  C   UNL     1       9.800  10.844  18.175  0.00  0.00    +0.000 C 
ENDBRANCH  18  20
ENDBRANCH  17  18
ENDBRANCH   1  17
BRANCH   9  21
ATOM     21  C   UNL     1       4.777   3.379  19.616  0.00  0.00    +0.000 C 
BRANCH  21  22
ATOM     22  C   UNL     1       3.381   3.856  19.939  0.00  0.00    +0.000 A 
ATOM     23  C   UNL     1       2.348   2.926  20.105  0.00  0.00    +0.000 A 
ATOM     24  C   UNL     1       1.057   3.349  20.417  0.00  0.00    +0.000 A 
ATOM     25  C   UNL     1       0.784   4.707  20.583  0.00  0.00    +0.000 A 
ATOM     26  C   UNL     1       1.799   5.657  20.431  0.00  0.00    +0.000 A 
ATOM     27  C   UNL     1       1.513   7.116  20.636  0.00  0.00    +0.000 C 
ATOM     28  C   UNL     1       3.093   5.225  20.098  0.00  0.00    +0.000 A 
ENDBRANCH  21  22
ENDBRANCH   9  21
TORSDOF 6
ENDMDL
MODEL 3
REMARK VINA RESULT:      -7.6      0.962      1.726
REMARK  Name = 
REMARK  8 active torsions:
REMARK  status: ('A' for Active; 'I' for Inactive)
REMARK    1  A    between atoms: C_1  and  C_2
REMARK    2  A    between atoms: C_2  and  C_3
REMARK    3  A    between atoms: C_3  and  C_4
REMARK    4  A    between atoms: C_4  and  N_5
REMARK    5  A    between atoms: C_12  and  O_13
REMARK    6  A    between atoms: N_14  and  C_15
REMARK    7  A    between atoms: C_15  and  C_16
REMARK    8  A    between atoms: C_20  and  C_21
REMARK                            x       y       z     vdW  Elec       q    Type
REMARK                         _______ _______ _______ _____ _____    ______ ____
ROOT
ATOM      1  N   UNL     1       1.879   7.814  20.084  0.00  0.00    +0.000 N 
ATOM      2  C   UNL     1       2.108   6.466  19.806  0.00  0.00    +0.000 A 
ATOM      3  N   UNL     1       1.347   5.548  20.438  0.00  0.00    +0.000 NA
ATOM      4  C   UNL     1       1.532   4.236  20.204  0.00  0.00    +0.000 A 
ATOM      5  N   UNL     1       0.728   3.324  20.880  0.00  0.00    +0.000 N 
ATOM      6  C   UNL     1       2.502   3.853  19.271  0.00  0.00    +0.000 A 
ATOM      7  N   UNL     1       2.874   2.614  18.795  0.00  0.00    +0.000 NA
ATOM      8  C   UNL     1       3.814   2.886  17.931  0.00  0.00    +0.000 A 
ATOM      9  N   UNL     1       4.084   4.226  17.819  0.00  0.00    +0.000 N 
ATOM     10  C   UNL     1       3.227   4.877  18.674  0.00  0.00    +0.000 A 
ATOM     11  N   UNL     1       3.082   6.199  18.901  0.00  0.00    +0.000 NA
ATOM     12  H   UNL     1       2.718   8.321  19.829  0.00  0.00    +0.000 HD
ATOM     13  H   UNL     1      -0.128   3.754  21.204  0.00  0.00    +0.000 HD
ATOM     14  H   UNL     1       0.653   2.433  20.404  0.00  0.00    +0.000 HD
ENDROOT
BRANCH   8  15
ATOM     15  O   UNL     1       4.407   1.939  17.235  0.00  0.00    +0.000 OA
ATOM     16  H   UNL     1       5.157   2.423  16.843  0.00  0.00    +0.000 HD
ENDBRANCH   8  15
BRANCH   1  17
ATOM     17  C   UNL     1       1.355   8.073  21.422  0.00  0.00    +0.000 C 
BRANCH  17  18
ATOM     18  C   UNL     1       0.097   8.948  21.376  0.00  0.00    +0.000 C 
BRANCH  18  20
ATOM     19  C   UNL     1      -0.889  10.243  19.442  0.00  0.00    +0.000 C 
ATOM     20  C   UNL     1       0.244  10.164  20.457  0.00  0.00    +0.000 C 
ENDBRANCH  18  20
ENDBRANCH  17  18
ENDBRANCH   1  17
BRANCH   9  21
ATOM     21  C   UNL     1       5.019   4.808  16.878  0.00  0.00    +0.000 C 
BRANCH  21  22
ATOM     22  C   UNL     1       6.155   5.522  17.570  0.00  0.00    +0.000 A 
ATOM     23  C   UNL     1       6.917   4.850  18.533  0.00  0.00    +0.000 A 
ATOM     24  C   UNL     1       7.978   5.491  19.172  0.00  0.00    +0.000 A 
ATOM     25  C   UNL     1       8.300   6.808  18.847  0.00  0.00    +0.000 A 
ATOM     26  C   UNL     1       7.560   7.501  17.883  0.00  0.00    +0.000 A 
ATOM     27  C   UNL     1       7.923   8.910  17.512  0.00  0.00    +0.000 C 
ATOM     28  C   UNL     1       6.481   6.856  17.258  0.00  0.00    +0.000 A 
ENDBRANCH  21  22
ENDBRANCH   9  21
TORSDOF 6
ENDMDL
MODEL 4
REMARK VINA RESULT:      -7.6      3.159      5.238
REMARK  Name = 
REMARK  8 active torsions:
REMARK  status: ('A' for Active; 'I' for Inactive)
REMARK    1  A    between atoms: C_1  and  C_2
REMARK    2  A    between atoms: C_2  and  C_3
REMARK    3  A    between atoms: C_3  and  C_4
REMARK    4  A    between atoms: C_4  and  N_5
REMARK    5  A    between atoms: C_12  and  O_13
REMARK    6  A    between atoms: N_14  and  C_15
REMARK    7  A    between atoms: C_15  and  C_16
REMARK    8  A    between atoms: C_20  and  C_21
REMARK                            x       y       z     vdW  Elec       q    Type
REMARK                         _______ _______ _______ _____ _____    ______ ____
ROOT
ATOM      1  N   UNL     1       2.596   2.648  18.109  0.00  0.00    +0.000 N 
ATOM      2  C   UNL     1       3.263   3.870  17.998  0.00  0.00    +0.000 A 
ATOM      3  N   UNL     1       2.684   4.961  18.540  0.00  0.00    +0.000 NA
ATOM      4  C   UNL     1       3.288   6.161  18.456  0.00  0.00    +0.000 A 
ATOM      5  N   UNL     1       2.654   7.261  19.026  0.00  0.00    +0.000 N 
ATOM      6  C   UNL     1       4.535   6.240  17.828  0.00  0.00    +0.000 A 
ATOM      7  N   UNL     1       5.400   7.298  17.639  0.00  0.00    +0.000 NA
ATOM      8  C   UNL     1       6.408   6.762  17.009  0.00  0.00    +0.000 A 
ATOM      9  N   UNL     1       6.254   5.421  16.766  0.00  0.00    +0.000 N 
ATOM     10  C   UNL     1       5.044   5.057  17.307  0.00  0.00    +0.000 A 
ATOM     11  N   UNL     1       4.456   3.843  17.355  0.00  0.00    +0.000 NA
ATOM     12  H   UNL     1       2.956   2.042  17.383  0.00  0.00    +0.000 HD
ATOM     13  H   UNL     1       1.988   6.980  19.733  0.00  0.00    +0.000 HD
ATOM     14  H   UNL     1       3.295   8.011  19.257  0.00  0.00    +0.000 HD
ENDROOT
BRANCH   8  15
ATOM     15  O   UNL     1       7.467   7.469  16.674  0.00  0.00    +0.000 OA
ATOM     16  H   UNL     1       7.330   8.286  17.190  0.00  0.00    +0.000 HD
ENDBRANCH   8  15
BRANCH   1  17
ATOM     17  C   UNL     1       1.142   2.760  18.191  0.00  0.00    +0.000 C 
BRANCH  17  18
ATOM     18  C   UNL     1       0.609   2.223  19.523  0.00  0.00    +0.000 C 
BRANCH  18  20
ATOM     19  C   UNL     1       1.998   2.692  21.582  0.00  0.00    +0.000 C 
ATOM     20  C   UNL     1       0.856   3.175  20.697  0.00  0.00    +0.000 C 
ENDBRANCH  18  20
ENDBRANCH  17  18
ENDBRANCH   1  17
BRANCH   9  21
ATOM     21  C   UNL     1       7.254   4.566  16.159  0.00  0.00    +0.000 C 
BRANCH  21  22
ATOM     22  C   UNL     1       7.148   4.547  14.653  0.00  0.00    +0.000 A 
ATOM     23  C   UNL     1       7.979   5.370  13.885  0.00  0.00    +0.000 A 
ATOM     24  C   UNL     1       7.903   5.354  12.493  0.00  0.00    +0.000 A 
ATOM     25  C   UNL     1       7.006   4.503  11.849  0.00  0.00    +0.000 A 
ATOM     26  C   UNL     1       6.169   3.664  12.592  0.00  0.00    +0.000 A 
ATOM     27  C   UNL     1       5.221   2.727  11.900  0.00  0.00    +0.000 C 
ATOM     28  C   UNL     1       6.237   3.700  13.993  0.00  0.00    +0.000 A 
ENDBRANCH  21  22
ENDBRANCH   9  21
TORSDOF 6
ENDMDL
MODEL 5
REMARK VINA RESULT:      -7.5      0.966      1.605
REMARK  Name = 
REMARK  8 active torsions:
REMARK  status: ('A' for Active; 'I' for Inactive)
REMARK    1  A    between atoms: C_1  and  C_2
REMARK    2  A    between atoms: C_2  and  C_3
REMARK    3  A    between atoms: C_3  and  C_4
REMARK    4  A    between atoms: C_4  and  N_5
REMARK    5  A    between atoms: C_12  and  O_13
REMARK    6  A    between atoms: N_14  and  C_15
REMARK    7  A    between atoms: C_15  and  C_16
REMARK    8  A    between atoms: C_20  and  C_21
REMARK                            x       y       z     vdW  Elec       q    Type
REMARK                         _______ _______ _______ _____ _____    ______ ____
ROOT
ATOM      1  N   UNL     1       1.693   7.925  20.152  0.00  0.00    +0.000 N 
ATOM      2  C   UNL     1       1.997   6.599  19.838  0.00  0.00    +0.000 A 
ATOM      3  N   UNL     1       1.285   5.624  20.441  0.00  0.00    +0.000 NA
ATOM      4  C   UNL     1       1.544   4.331  20.173  0.00  0.00    +0.000 A 
ATOM      5  N   UNL     1       0.788   3.358  20.820  0.00  0.00    +0.000 N 
ATOM      6  C   UNL     1       2.537   4.028  19.236  0.00  0.00    +0.000 A 
ATOM      7  N   UNL     1       2.979   2.825  18.729  0.00  0.00    +0.000 NA
ATOM      8  C   UNL     1       3.906   3.171  17.879  0.00  0.00    +0.000 A 
ATOM      9  N   UNL     1       4.102   4.527  17.804  0.00  0.00    +0.000 N 
ATOM     10  C   UNL     1       3.207   5.106  18.671  0.00  0.00    +0.000 A 
ATOM     11  N   UNL     1       2.988   6.411  18.933  0.00  0.00    +0.000 NA
ATOM     12  H   UNL     1       2.503   8.484  19.915  0.00  0.00    +0.000 HD
ATOM     13  H   UNL     1      -0.092   3.731  21.150  0.00  0.00    +0.000 HD
ATOM     14  H   UNL     1       0.765   2.477  20.319  0.00  0.00    +0.000 HD
ENDROOT
BRANCH   8  15
ATOM     15  O   UNL     1       4.554   2.277  17.161  0.00  0.00    +0.000 OA
ATOM     16  H   UNL     1       5.404   2.222  17.636  0.00  0.00    +0.000 HD
ENDBRANCH   8  15
BRANCH   1  17
ATOM     17  C   UNL     1       1.148   8.118  21.493  0.00  0.00    +0.000 C 
BRANCH  17  18
ATOM     18  C   UNL     1      -0.277   8.680  21.448  0.00  0.00    +0.000 C 
BRANCH  18  20
ATOM     19  C   UNL     1       0.396   9.427  23.766  0.00  0.00    +0.000 C 
ATOM     20  C   UNL     1      -0.596   9.606  22.625  0.00  0.00    +0.000 C 
ENDBRANCH  18  20
ENDBRANCH  17  18
ENDBRANCH   1  17
BRANCH   9  21
ATOM     21  C   UNL     1       5.009   5.185  16.884  0.00  0.00    +0.000 C 
BRANCH  21  22
ATOM     22  C   UNL     1       6.165   5.844  17.597  0.00  0.00    +0.000 A 
ATOM     23  C   UNL     1       6.854   5.148  18.598  0.00  0.00    +0.000 A 
ATOM     24  C   UNL     1       7.932   5.737  19.256  0.00  0.00    +0.000 A 
ATOM     25  C   UNL     1       8.348   7.023  18.912  0.00  0.00    +0.000 A 
ATOM     26  C   UNL     1       7.682   7.737  17.910  0.00  0.00    +0.000 A 
ATOM     27  C   UNL     1       8.145   9.111  17.520  0.00  0.00    +0.000 C 
ATOM     28  C   UNL     1       6.585   7.146  17.265  0.00  0.00    +0.000 A 
ENDBRANCH  21  22
ENDBRANCH   9  21
TORSDOF 6
ENDMDL
MODEL 6
REMARK VINA RESULT:      -7.4      4.816      6.907
REMARK  Name = 
REMARK  8 active torsions:
REMARK  status: ('A' for Active; 'I' for Inactive)
REMARK    1  A    between atoms: C_1  and  C_2
REMARK    2  A    between atoms: C_2  and  C_3
REMARK    3  A    between atoms: C_3  and  C_4
REMARK    4  A    between atoms: C_4  and  N_5
REMARK    5  A    between atoms: C_12  and  O_13
REMARK    6  A    between atoms: N_14  and  C_15
REMARK    7  A    between atoms: C_15  and  C_16
REMARK    8  A    between atoms: C_20  and  C_21
REMARK                            x       y       z     vdW  Elec       q    Type
REMARK                         _______ _______ _______ _____ _____    ______ ____
ROOT
ATOM      1  N   UNL     1       8.106   9.358  17.721  0.00  0.00    +0.000 N 
ATOM      2  C   UNL     1       7.775   8.012  17.887  0.00  0.00    +0.000 A 
ATOM      3  N   UNL     1       8.211   7.383  18.999  0.00  0.00    +0.000 NA
ATOM      4  C   UNL     1       7.919   6.085  19.201  0.00  0.00    +0.000 A 
ATOM      5  N   UNL     1       8.391   5.475  20.359  0.00  0.00    +0.000 N 
ATOM      6  C   UNL     1       7.132   5.421  18.255  0.00  0.00    +0.000 A 
ATOM      7  N   UNL     1       6.637   4.134  18.218  0.00  0.00    +0.000 NA
ATOM      8  C   UNL     1       5.959   4.098  17.104  0.00  0.00    +0.000 A 
ATOM      9  N   UNL     1       5.985   5.279  16.407  0.00  0.00    +0.000 N 
ATOM     10  C   UNL     1       6.733   6.161  17.150  0.00  0.00    +0.000 A 
ATOM     11  N   UNL     1       7.025   7.456  16.905  0.00  0.00    +0.000 NA
ATOM     12  H   UNL     1       8.026   9.569  16.734  0.00  0.00    +0.000 HD
ATOM     13  H   UNL     1       8.601   6.155  21.078  0.00  0.00    +0.000 HD
ATOM     14  H   UNL     1       7.849   4.662  20.628  0.00  0.00    +0.000 HD
ENDROOT
BRANCH   8  15
ATOM     15  O   UNL     1       5.304   3.019  16.730  0.00  0.00    +0.000 OA
ATOM     16  H   UNL     1       4.381   3.275  16.912  0.00  0.00    +0.000 HD
ENDBRANCH   8  15
BRANCH   1  17
ATOM     17  C   UNL     1       9.356   9.756  18.363  0.00  0.00    +0.000 C 
BRANCH  17  18
ATOM     18  C   UNL     1       9.577  11.270  18.278  0.00  0.00    +0.000 C 
BRANCH  18  20
ATOM     19  C   UNL     1      11.187  12.882  17.182  0.00  0.00    +0.000 C 
ATOM     20  C   UNL     1      11.045  11.653  18.071  0.00  0.00    +0.000 C 
ENDBRANCH  18  20
ENDBRANCH  17  18
ENDBRANCH   1  17
BRANCH   9  21
ATOM     21  C   UNL     1       5.251   5.538  15.185  0.00  0.00    +0.000 C 
BRANCH  21  22
ATOM     22  C   UNL     1       5.908   4.909  13.981  0.00  0.00    +0.000 A 
ATOM     23  C   UNL     1       7.171   5.350  13.566  0.00  0.00    +0.000 A 
ATOM     24  C   UNL     1       7.798   4.770  12.465  0.00  0.00    +0.000 A 
ATOM     25  C   UNL     1       7.178   3.730  11.771  0.00  0.00    +0.000 A 
ATOM     26  C   UNL     1       5.921   3.265  12.168  0.00  0.00    +0.000 A 
ATOM     27  C   UNL     1       5.264   2.128  11.440  0.00  0.00    +0.000 C 
ATOM     28  C   UNL     1       5.287   3.867  13.267  0.00  0.00    +0.000 A 
ENDBRANCH  21  22
ENDBRANCH   9  21
TORSDOF 6
ENDMDL
MODEL 7
REMARK VINA RESULT:      -7.4      2.200      6.257
REMARK  Name = 
REMARK  8 active torsions:
REMARK  status: ('A' for Active; 'I' for Inactive)
REMARK    1  A    between atoms: C_1  and  C_2
REMARK    2  A    between atoms: C_2  and  C_3
REMARK    3  A    between atoms: C_3  and  C_4
REMARK    4  A    between atoms: C_4  and  N_5
REMARK    5  A    between atoms: C_12  and  O_13
REMARK    6  A    between atoms: N_14  and  C_15
REMARK    7  A    between atoms: C_15  and  C_16
REMARK    8  A    between atoms: C_20  and  C_21
REMARK                            x       y       z     vdW  Elec       q    Type
REMARK                         _______ _______ _______ _____ _____    ______ ____
ROOT
ATOM      1  N   UNL     1       6.881   5.186  18.782  0.00  0.00    +0.000 N 
ATOM      2  C   UNL     1       5.599   4.650  18.919  0.00  0.00    +0.000 A 
ATOM      3  N   UNL     1       5.380   3.401  18.456  0.00  0.00    +0.000 NA
ATOM      4  C   UNL     1       4.161   2.843  18.563  0.00  0.00    +0.000 A 
ATOM      5  N   UNL     1       3.978   1.554  18.069  0.00  0.00    +0.000 N 
ATOM      6  C   UNL     1       3.144   3.570  19.190  0.00  0.00    +0.000 A 
ATOM      7  N   UNL     1       1.837   3.247  19.486  0.00  0.00    +0.000 NA
ATOM      8  C   UNL     1       1.386   4.312  20.090  0.00  0.00    +0.000 A 
ATOM      9  N   UNL     1       2.316   5.314  20.202  0.00  0.00    +0.000 N 
ATOM     10  C   UNL     1       3.476   4.844  19.634  0.00  0.00    +0.000 A 
ATOM     11  N   UNL     1       4.681   5.441  19.524  0.00  0.00    +0.000 NA
ATOM     12  H   UNL     1       6.793   6.193  18.839  0.00  0.00    +0.000 HD
ATOM     13  H   UNL     1       4.856   1.056  18.001  0.00  0.00    +0.000 HD
ATOM     14  H   UNL     1       3.197   1.073  18.499  0.00  0.00    +0.000 HD
ENDROOT
BRANCH   8  15
ATOM     15  O   UNL     1       0.156   4.373  20.556  0.00  0.00    +0.000 OA
ATOM     16  H   UNL     1       0.169   5.222  21.036  0.00  0.00    +0.000 HD
ENDBRANCH   8  15
BRANCH   1  17
ATOM     17  C   UNL     1       7.633   4.670  17.642  0.00  0.00    +0.000 C 
BRANCH  17  18
ATOM     18  C   UNL     1       7.369   5.489  16.374  0.00  0.00    +0.000 C 
BRANCH  18  20
ATOM     19  C   UNL     1       5.450   4.402  15.140  0.00  0.00    +0.000 C 
ATOM     20  C   UNL     1       6.955   4.628  15.177  0.00  0.00    +0.000 C 
ENDBRANCH  18  20
ENDBRANCH  17  18
ENDBRANCH   1  17
BRANCH   9  21
ATOM     21  C   UNL     1       2.107   6.567  20.899  0.00  0.00    +0.000 C 
BRANCH  21  22
ATOM     22  C   UNL     1       1.803   7.703  19.951  0.00  0.00    +0.000 A 
ATOM     23  C   UNL     1       2.309   7.676  18.646  0.00  0.00    +0.000 A 
ATOM     24  C   UNL     1       2.026   8.710  17.755  0.00  0.00    +0.000 A 
ATOM     25  C   UNL     1       1.220   9.777  18.151  0.00  0.00    +0.000 A 
ATOM     26  C   UNL     1       0.695   9.825  19.446  0.00  0.00    +0.000 A 
ATOM     27  C   UNL     1      -0.196  10.959  19.865  0.00  0.00    +0.000 C 
ATOM     28  C   UNL     1       0.999   8.790  20.344  0.00  0.00    +0.000 A 
ENDBRANCH  21  22
ENDBRANCH   9  21
TORSDOF 6
ENDMDL
MODEL 8
REMARK VINA RESULT:      -7.4      3.182      7.307
REMARK  Name = 
REMARK  8 active torsions:
REMARK  status: ('A' for Active; 'I' for Inactive)
REMARK    1  A    between atoms: C_1  and  C_2
REMARK    2  A    between atoms: C_2  and  C_3
REMARK    3  A    between atoms: C_3  and  C_4
REMARK    4  A    between atoms: C_4  and  N_5
REMARK    5  A    between atoms: C_12  and  O_13
REMARK    6  A    between atoms: N_14  and  C_15
REMARK    7  A    between atoms: C_15  and  C_16
REMARK    8  A    between atoms: C_20  and  C_21
REMARK                            x       y       z     vdW  Elec       q    Type
REMARK                         _______ _______ _______ _____ _____    ______ ____
ROOT
ATOM      1  N   UNL     1       6.358   5.505  14.087  0.00  0.00    +0.000 N 
ATOM      2  C   UNL     1       6.242   5.199  15.444  0.00  0.00    +0.000 A 
ATOM      3  N   UNL     1       7.361   4.850  16.114  0.00  0.00    +0.000 NA
ATOM      4  C   UNL     1       7.299   4.544  17.423  0.00  0.00    +0.000 A 
ATOM      5  N   UNL     1       8.476   4.186  18.074  0.00  0.00    +0.000 N 
ATOM      6  C   UNL     1       6.063   4.630  18.073  0.00  0.00    +0.000 A 
ATOM      7  N   UNL     1       5.706   4.433  19.390  0.00  0.00    +0.000 NA
ATOM      8  C   UNL     1       4.424   4.675  19.401  0.00  0.00    +0.000 A 
ATOM      9  N   UNL     1       3.919   5.011  18.170  0.00  0.00    +0.000 N 
ATOM     10  C   UNL     1       4.976   5.003  17.292  0.00  0.00    +0.000 A 
ATOM     11  N   UNL     1       4.999   5.295  15.975  0.00  0.00    +0.000 NA
ATOM     12  H   UNL     1       5.440   5.395  13.675  0.00  0.00    +0.000 HD
ATOM     13  H   UNL     1       9.290   4.528  17.582  0.00  0.00    +0.000 HD
ATOM     14  H   UNL     1       8.435   4.335  19.075  0.00  0.00    +0.000 HD
ENDROOT
BRANCH   8  15
ATOM     15  O   UNL     1       3.720   4.615  20.512  0.00  0.00    +0.000 OA
ATOM     16  H   UNL     1       4.302   4.083  21.086  0.00  0.00    +0.000 HD
ENDBRANCH   8  15
BRANCH   1  17
ATOM     17  C   UNL     1       7.454   4.822  13.406  0.00  0.00    +0.000 C 
BRANCH  17  18
ATOM     18  C   UNL     1       7.020   4.283  12.038  0.00  0.00    +0.000 C 
BRANCH  18  20
ATOM     19  C   UNL     1       6.760   1.901  11.233  0.00  0.00    +0.000 C 
ATOM     20  C   UNL     1       6.198   2.994  12.133  0.00  0.00    +0.000 C 
ENDBRANCH  18  20
ENDBRANCH  17  18
ENDBRANCH   1  17
BRANCH   9  21
ATOM     21  C   UNL     1       2.549   5.407  17.916  0.00  0.00    +0.000 C 
BRANCH  21  22
ATOM     22  C   UNL     1       2.266   6.814  18.385  0.00  0.00    +0.000 A 
ATOM     23  C   UNL     1       2.357   7.881  17.483  0.00  0.00    +0.000 A 
ATOM     24  C   UNL     1       2.086   9.184  17.897  0.00  0.00    +0.000 A 
ATOM     25  C   UNL     1       1.705   9.438  19.214  0.00  0.00    +0.000 A 
ATOM     26  C   UNL     1       1.598   8.389  20.134  0.00  0.00    +0.000 A 
ATOM     27  C   UNL     1       1.161   8.656  21.545  0.00  0.00    +0.000 C 
ATOM     28  C   UNL     1       1.891   7.082  19.715  0.00  0.00    +0.000 A 
ENDBRANCH  21  22
ENDBRANCH   9  21
TORSDOF 6
ENDMDL
MODEL 9
REMARK VINA RESULT:      -7.3      2.668      4.923
REMARK  Name = 
REMARK  8 active torsions:
REMARK  status: ('A' for Active; 'I' for Inactive)
REMARK    1  A    between atoms: C_1  and  C_2
REMARK    2  A    between atoms: C_2  and  C_3
REMARK    3  A    between atoms: C_3  and  C_4
REMARK    4  A    between atoms: C_4  and  N_5
REMARK    5  A    between atoms: C_12  and  O_13
REMARK    6  A    between atoms: N_14  and  C_15
REMARK    7  A    between atoms: C_15  and  C_16
REMARK    8  A    between atoms: C_20  and  C_21
REMARK                            x       y       z     vdW  Elec       q    Type
REMARK                         _______ _______ _______ _____ _____    ______ ____
ROOT
ATOM      1  N   UNL     1       0.734   8.178  21.797  0.00  0.00    +0.000 N 
ATOM      2  C   UNL     1       1.349   8.223  20.545  0.00  0.00    +0.000 A 
ATOM      3  N   UNL     1       1.087   9.279  19.746  0.00  0.00    +0.000 NA
ATOM      4  C   UNL     1       1.655   9.365  18.529  0.00  0.00    +0.000 A 
ATOM      5  N   UNL     1       1.355  10.469  17.737  0.00  0.00    +0.000 N 
ATOM      6  C   UNL     1       2.540   8.358  18.131  0.00  0.00    +0.000 A 
ATOM      7  N   UNL     1       3.297   8.204  16.988  0.00  0.00    +0.000 NA
ATOM      8  C   UNL     1       3.938   7.086  17.192  0.00  0.00    +0.000 A 
ATOM      9  N   UNL     1       3.642   6.496  18.394  0.00  0.00    +0.000 N 
ATOM     10  C   UNL     1       2.742   7.318  19.030  0.00  0.00    +0.000 A 
ATOM     11  N   UNL     1       2.175   7.190  20.247  0.00  0.00    +0.000 NA
ATOM     12  H   UNL     1       0.741   7.213  22.102  0.00  0.00    +0.000 HD
ATOM     13  H   UNL     1       1.023  11.246  18.293  0.00  0.00    +0.000 HD
ATOM     14  H   UNL     1       2.065  10.661  17.040  0.00  0.00    +0.000 HD
ENDROOT
BRANCH   8  15
ATOM     15  O   UNL     1       4.798   6.614  16.314  0.00  0.00    +0.000 OA
ATOM     16  H   UNL     1       4.204   6.188  15.667  0.00  0.00    +0.000 HD
ENDBRANCH   8  15
BRANCH   1  17
ATOM     17  C   UNL     1      -0.554   8.863  21.862  0.00  0.00    +0.000 C 
BRANCH  17  18
ATOM     18  C   UNL     1      -0.608   9.856  23.028  0.00  0.00    +0.000 C 
BRANCH  18  20
ATOM     19  C   UNL     1      -2.164  11.844  23.148  0.00  0.00    +0.000 C 
ATOM     20  C   UNL     1      -0.862  11.298  22.578  0.00  0.00    +0.000 C 
ENDBRANCH  18  20
ENDBRANCH  17  18
ENDBRANCH   1  17
BRANCH   9  21
ATOM     21  C   UNL     1       4.271   5.295  18.906  0.00  0.00    +0.000 C 
BRANCH  21  22
ATOM     22  C   UNL     1       3.286   4.163  19.076  0.00  0.00    +0.000 A 
ATOM     23  C   UNL     1       2.867   3.431  17.959  0.00  0.00    +0.000 A 
ATOM     24  C   UNL     1       1.969   2.375  18.099  0.00  0.00    +0.000 A 
ATOM     25  C   UNL     1       1.489   2.025  19.362  0.00  0.00    +0.000 A 
ATOM     26  C   UNL     1       1.898   2.734  20.495  0.00  0.00    +0.000 A 
ATOM     27  C   UNL     1       1.403   2.342  21.858  0.00  0.00    +0.000 C 
ATOM     28  C   UNL     1       2.787   3.809  20.344  0.00  0.00    +0.000 A 
ENDBRANCH  21  22
ENDBRANCH   9  21
TORSDOF 6
ENDMDL
