MODEL 1
REMARK VINA RESULT:      -9.1      0.000      0.000
REMARK  Name = 
REMARK  4 active torsions:
REMARK  status: ('A' for Active; 'I' for Inactive)
REMARK    1  A    between atoms: C_2  and  O_3
REMARK    2  A    between atoms: C_2  and  C_4
REMARK    3  A    between atoms: C_7  and  C_8
REMARK    4  A    between atoms: C_8  and  C_9
REMARK                            x       y       z     vdW  Elec       q    Type
REMARK                         _______ _______ _______ _____ _____    ______ ____
ROOT
ATOM      1  C   UNL     1       2.631   6.125  17.864  0.00  0.00    +0.000 C 
ATOM      2  C   UNL     1       2.195   4.815  18.545  0.00  0.00    +0.000 A 
ATOM      3  C   UNL     1       1.202   4.464  19.443  0.00  0.00    +0.000 A 
ATOM      4  C   UNL     1       1.050   3.096  19.777  0.00  0.00    +0.000 A 
ATOM      5  C   UNL     1       1.858   2.090  19.224  0.00  0.00    +0.000 A 
ATOM      6  C   UNL     1       2.845   2.421  18.307  0.00  0.00    +0.000 A 
ATOM      7  C   UNL     1       2.990   3.765  17.961  0.00  0.00    +0.000 A 
ATOM      8  C   UNL     1       4.026   4.364  17.140  0.00  0.00    +0.000 A 
ATOM      9  C   UNL     1       4.854   3.902  16.146  0.00  0.00    +0.000 A 
ATOM     10  C   UNL     1       5.817   4.781  15.631  0.00  0.00    +0.000 A 
ATOM     11  C   UNL     1       6.055   6.022  16.227  0.00  0.00    +0.000 A 
ATOM     12  C   UNL     1       5.189   6.482  17.198  0.00  0.00    +0.000 A 
ATOM     13  C   UNL     1       4.060   5.717  17.452  0.00  0.00    +0.000 A 
ENDROOT
BRANCH   1  14
ATOM     14  C   UNL     1       2.608   7.651  18.147  0.00  0.00    +0.000 C 
BRANCH  14  18
ATOM     15  C   UNL     1       0.459   9.540  21.442  0.00  0.00    +0.000 A 
ATOM     16  C   UNL     1       1.161   8.367  21.607  0.00  0.00    +0.000 A 
ATOM     17  C   UNL     1       1.798   7.788  20.508  0.00  0.00    +0.000 A 
ATOM     18  C   UNL     1       1.763   8.365  19.214  0.00  0.00    +0.000 A 
ATOM     19  C   UNL     1       1.092   9.597  19.069  0.00  0.00    +0.000 A 
ATOM     20  C   UNL     1       0.450  10.174  20.180  0.00  0.00    +0.000 A 
BRANCH  15  22
ATOM     21  O   UNL     1      -1.139  10.906  22.588  0.00  0.00    +0.000 OA
ATOM     22  C   UNL     1      -0.233  10.101  22.635  0.00  0.00    +0.000 C 
BRANCH  22  23
ATOM     23  O   UNL     1       0.332   9.636  23.803  0.00  0.00    +0.000 OA
ATOM     24  H   UNL     1       0.549  10.341  24.446  0.00  0.00    +0.000 HD
ENDBRANCH  22  23
ENDBRANCH  15  22
ENDBRANCH  14  18
ENDBRANCH   1  14
TORSDOF 4
ENDMDL
MODEL 2
REMARK VINA RESULT:      -9.1      0.386      1.077
REMARK  Name = 
REMARK  4 active torsions:
REMARK  status: ('A' for Active; 'I' for Inactive)
REMARK    1  A    between atoms: C_2  and  O_3
REMARK    2  A    between atoms: C_2  and  C_4
REMARK    3  A    between atoms: C_7  and  C_8
REMARK    4  A    between atoms: C_8  and  C_9
REMARK                            x       y       z     vdW  Elec       q    Type
REMARK                         _______ _______ _______ _____ _____    ______ ____
ROOT
ATOM      1  C   UNL     1       2.543   6.057  17.864  0.00  0.00    +0.000 C 
ATOM      2  C   UNL     1       2.163   4.723  18.534  0.00  0.00    +0.000 A 
ATOM      3  C   UNL     1       1.176   4.319  19.416  0.00  0.00    +0.000 A 
ATOM      4  C   UNL     1       1.088   2.944  19.743  0.00  0.00    +0.000 A 
ATOM      5  C   UNL     1       1.953   1.982  19.199  0.00  0.00    +0.000 A 
ATOM      6  C   UNL     1       2.935   2.366  18.298  0.00  0.00    +0.000 A 
ATOM      7  C   UNL     1       3.018   3.717  17.959  0.00  0.00    +0.000 A 
ATOM      8  C   UNL     1       4.035   4.371  17.155  0.00  0.00    +0.000 A 
ATOM      9  C   UNL     1       4.899   3.954  16.172  0.00  0.00    +0.000 A 
ATOM     10  C   UNL     1       5.824   4.883  15.674  0.00  0.00    +0.000 A 
ATOM     11  C   UNL     1       5.991   6.131  16.278  0.00  0.00    +0.000 A 
ATOM     12  C   UNL     1       5.089   6.544  17.237  0.00  0.00    +0.000 A 
ATOM     13  C   UNL     1       3.996   5.723  17.472  0.00  0.00    +0.000 A 
ENDROOT
BRANCH   1  14
ATOM     14  C   UNL     1       2.439   7.578  18.152  0.00  0.00    +0.000 C 
BRANCH  14  18
ATOM     15  C   UNL     1       0.451   9.586  21.478  0.00  0.00    +0.000 A 
ATOM     16  C   UNL     1       0.471  10.122  20.210  0.00  0.00    +0.000 A 
ATOM     17  C   UNL     1       1.155   9.454  19.193  0.00  0.00    +0.000 A 
ATOM     18  C   UNL     1       1.831   8.227  19.406  0.00  0.00    +0.000 A 
ATOM     19  C   UNL     1       1.752   7.655  20.694  0.00  0.00    +0.000 A 
ATOM     20  C   UNL     1       1.063   8.335  21.714  0.00  0.00    +0.000 A 
BRANCH  15  22
ATOM     21  O   UNL     1      -0.231  11.559  22.651  0.00  0.00    +0.000 OA
ATOM     22  C   UNL     1      -0.262  10.352  22.538  0.00  0.00    +0.000 C 
BRANCH  22  23
ATOM     23  O   UNL     1      -0.910   9.507  23.413  0.00  0.00    +0.000 OA
ATOM     24  H   UNL     1      -1.299   8.717  22.985  0.00  0.00    +0.000 HD
ENDBRANCH  22  23
ENDBRANCH  15  22
ENDBRANCH  14  18
ENDBRANCH   1  14
TORSDOF 4
ENDMDL
MODEL 3
REMARK VINA RESULT:      -8.9      1.055      3.388
REMARK  Name = 
REMARK  4 active torsions:
REMARK  status: ('A' for Active; 'I' for Inactive)
REMARK    1  A    between atoms: C_2  and  O_3
REMARK    2  A    between atoms: C_2  and  C_4
REMARK    3  A    between atoms: C_7  and  C_8
REMARK    4  A    between atoms: C_8  and  C_9
REMARK                            x       y       z     vdW  Elec       q    Type
REMARK                         _______ _______ _______ _____ _____    ______ ____
ROOT
ATOM      1  C   UNL     1       3.549   6.578  18.193  0.00  0.00    +0.000 C 
ATOM      2  C   UNL     1       4.980   6.268  17.718  0.00  0.00    +0.000 A 
ATOM      3  C   UNL     1       6.049   7.028  17.274  0.00  0.00    +0.000 A 
ATOM      4  C   UNL     1       7.275   6.372  17.006  0.00  0.00    +0.000 A 
ATOM      5  C   UNL     1       7.447   4.990  17.185  0.00  0.00    +0.000 A 
ATOM      6  C   UNL     1       6.394   4.217  17.649  0.00  0.00    +0.000 A 
ATOM      7  C   UNL     1       5.187   4.858  17.930  0.00  0.00    +0.000 A 
ATOM      8  C   UNL     1       3.919   4.249  18.290  0.00  0.00    +0.000 A 
ATOM      9  C   UNL     1       3.554   3.061  18.874  0.00  0.00    +0.000 A 
ATOM     10  C   UNL     1       2.186   2.775  18.985  0.00  0.00    +0.000 A 
ATOM     11  C   UNL     1       1.228   3.578  18.362  0.00  0.00    +0.000 A 
ATOM     12  C   UNL     1       1.611   4.784  17.813  0.00  0.00    +0.000 A 
ATOM     13  C   UNL     1       2.927   5.179  18.009  0.00  0.00    +0.000 A 
ENDROOT
BRANCH   1  14
ATOM     14  C   UNL     1       2.450   7.649  17.963  0.00  0.00    +0.000 C 
BRANCH  14  18
ATOM     15  C   UNL     1       0.430   9.578  21.316  0.00  0.00    +0.000 A 
ATOM     16  C   UNL     1       1.116   8.394  21.463  0.00  0.00    +0.000 A 
ATOM     17  C   UNL     1       1.711   7.803  20.347  0.00  0.00    +0.000 A 
ATOM     18  C   UNL     1       1.649   8.379  19.054  0.00  0.00    +0.000 A 
ATOM     19  C   UNL     1       0.996   9.623  18.926  0.00  0.00    +0.000 A 
ATOM     20  C   UNL     1       0.397  10.212  20.054  0.00  0.00    +0.000 A 
BRANCH  15  22
ATOM     21  O   UNL     1      -0.225  11.332  22.808  0.00  0.00    +0.000 OA
ATOM     22  C   UNL     1      -0.217  10.153  22.528  0.00  0.00    +0.000 C 
BRANCH  22  23
ATOM     23  O   UNL     1      -0.752   9.162  23.325  0.00  0.00    +0.000 OA
ATOM     24  H   UNL     1      -1.652   9.360  23.652  0.00  0.00    +0.000 HD
ENDBRANCH  22  23
ENDBRANCH  15  22
ENDBRANCH  14  18
ENDBRANCH   1  14
TORSDOF 4
ENDMDL
MODEL 4
REMARK VINA RESULT:      -8.8      1.593      3.905
REMARK  Name = 
REMARK  4 active torsions:
REMARK  status: ('A' for Active; 'I' for Inactive)
REMARK    1  A    between atoms: C_2  and  O_3
REMARK    2  A    between atoms: C_2  and  C_4
REMARK    3  A    between atoms: C_7  and  C_8
REMARK    4  A    between atoms: C_8  and  C_9
REMARK                            x       y       z     vdW  Elec       q    Type
REMARK                         _______ _______ _______ _____ _____    ______ ____
ROOT
ATOM      1  C   UNL     1       3.415   5.614  18.895  0.00  0.00    +0.000 C 
ATOM      2  C   UNL     1       4.224   5.675  17.586  0.00  0.00    +0.000 A 
ATOM      3  C   UNL     1       4.977   6.644  16.946  0.00  0.00    +0.000 A 
ATOM      4  C   UNL     1       5.670   6.285  15.765  0.00  0.00    +0.000 A 
ATOM      5  C   UNL     1       5.630   4.988  15.230  0.00  0.00    +0.000 A 
ATOM      6  C   UNL     1       4.898   3.999  15.869  0.00  0.00    +0.000 A 
ATOM      7  C   UNL     1       4.225   4.341  17.043  0.00  0.00    +0.000 A 
ATOM      8  C   UNL     1       3.295   3.525  17.803  0.00  0.00    +0.000 A 
ATOM      9  C   UNL     1       3.097   2.174  17.949  0.00  0.00    +0.000 A 
ATOM     10  C   UNL     1       2.011   1.748  18.727  0.00  0.00    +0.000 A 
ATOM     11  C   UNL     1       1.055   2.655  19.189  0.00  0.00    +0.000 A 
ATOM     12  C   UNL     1       1.292   4.009  19.065  0.00  0.00    +0.000 A 
ATOM     13  C   UNL     1       2.532   4.391  18.575  0.00  0.00    +0.000 A 
ENDROOT
BRANCH   1  14
ATOM     14  C   UNL     1       2.624   6.574  19.823  0.00  0.00    +0.000 C 
BRANCH  14  18
ATOM     15  C   UNL     1       0.711  10.407  18.990  0.00  0.00    +0.000 A 
ATOM     16  C   UNL     1       0.675   9.831  20.241  0.00  0.00    +0.000 A 
ATOM     17  C   UNL     1       1.272   8.585  20.439  0.00  0.00    +0.000 A 
ATOM     18  C   UNL     1       1.931   7.880  19.401  0.00  0.00    +0.000 A 
ATOM     19  C   UNL     1       2.015   8.507  18.140  0.00  0.00    +0.000 A 
ATOM     20  C   UNL     1       1.409   9.761  17.946  0.00  0.00    +0.000 A 
BRANCH  15  22
ATOM     21  O   UNL     1      -1.071  11.985  19.252  0.00  0.00    +0.000 OA
ATOM     22  C   UNL     1       0.030  11.720  18.819  0.00  0.00    +0.000 C 
BRANCH  22  23
ATOM     23  O   UNL     1       0.787  12.576  18.047  0.00  0.00    +0.000 OA
ATOM     24  H   UNL     1       1.452  13.083  18.555  0.00  0.00    +0.000 HD
ENDBRANCH  22  23
ENDBRANCH  15  22
ENDBRANCH  14  18
ENDBRANCH   1  14
TORSDOF 4
ENDMDL
MODEL 5
REMARK VINA RESULT:      -8.8      4.688      7.356
REMARK  Name = 
REMARK  4 active torsions:
REMARK  status: ('A' for Active; 'I' for Inactive)
REMARK    1  A    between atoms: C_2  and  O_3
REMARK    2  A    between atoms: C_2  and  C_4
REMARK    3  A    between atoms: C_7  and  C_8
REMARK    4  A    between atoms: C_8  and  C_9
REMARK                            x       y       z     vdW  Elec       q    Type
REMARK                         _______ _______ _______ _____ _____    ______ ____
ROOT
ATOM      1  C   UNL     1       4.484   5.387  19.136  0.00  0.00    +0.000 C 
ATOM      2  C   UNL     1       3.534   4.337  19.740  0.00  0.00    +0.000 A 
ATOM      3  C   UNL     1       3.653   3.009  20.110  0.00  0.00    +0.000 A 
ATOM      4  C   UNL     1       2.549   2.383  20.738  0.00  0.00    +0.000 A 
ATOM      5  C   UNL     1       1.350   3.062  21.008  0.00  0.00    +0.000 A 
ATOM      6  C   UNL     1       1.220   4.399  20.663  0.00  0.00    +0.000 A 
ATOM      7  C   UNL     1       2.310   5.027  20.058  0.00  0.00    +0.000 A 
ATOM      8  C   UNL     1       2.364   6.362  19.491  0.00  0.00    +0.000 A 
ATOM      9  C   UNL     1       1.667   7.526  19.702  0.00  0.00    +0.000 A 
ATOM     10  C   UNL     1       1.953   8.623  18.877  0.00  0.00    +0.000 A 
ATOM     11  C   UNL     1       2.782   8.490  17.761  0.00  0.00    +0.000 A 
ATOM     12  C   UNL     1       3.501   7.325  17.589  0.00  0.00    +0.000 A 
ATOM     13  C   UNL     1       3.434   6.384  18.605  0.00  0.00    +0.000 A 
ENDROOT
BRANCH   1  14
ATOM     14  C   UNL     1       5.732   5.438  18.215  0.00  0.00    +0.000 C 
BRANCH  14  18
ATOM     15  C   UNL     1       6.310   4.148  14.086  0.00  0.00    +0.000 A 
ATOM     16  C   UNL     1       7.226   4.945  14.735  0.00  0.00    +0.000 A 
ATOM     17  C   UNL     1       6.969   5.359  16.043  0.00  0.00    +0.000 A 
ATOM     18  C   UNL     1       5.799   4.981  16.748  0.00  0.00    +0.000 A 
ATOM     19  C   UNL     1       4.898   4.114  16.096  0.00  0.00    +0.000 A 
ATOM     20  C   UNL     1       5.161   3.703  14.777  0.00  0.00    +0.000 A 
BRANCH  15  22
ATOM     21  O   UNL     1       7.309   4.403  11.925  0.00  0.00    +0.000 OA
ATOM     22  C   UNL     1       6.610   3.761  12.680  0.00  0.00    +0.000 C 
BRANCH  22  23
ATOM     23  O   UNL     1       5.939   2.610  12.326  0.00  0.00    +0.000 OA
ATOM     24  H   UNL     1       5.224   2.362  12.947  0.00  0.00    +0.000 HD
ENDBRANCH  22  23
ENDBRANCH  15  22
ENDBRANCH  14  18
ENDBRANCH   1  14
TORSDOF 4
ENDMDL
MODEL 6
REMARK VINA RESULT:      -8.6      1.666      3.989
REMARK  Name = 
REMARK  4 active torsions:
REMARK  status: ('A' for Active; 'I' for Inactive)
REMARK    1  A    between atoms: C_2  and  O_3
REMARK    2  A    between atoms: C_2  and  C_4
REMARK    3  A    between atoms: C_7  and  C_8
REMARK    4  A    between atoms: C_8  and  C_9
REMARK                            x       y       z     vdW  Elec       q    Type
REMARK                         _______ _______ _______ _____ _____    ______ ____
ROOT
ATOM      1  C   UNL     1       3.432   5.515  19.101  0.00  0.00    +0.000 C 
ATOM      2  C   UNL     1       4.232   5.707  17.800  0.00  0.00    +0.000 A 
ATOM      3  C   UNL     1       5.013   6.721  17.273  0.00  0.00    +0.000 A 
ATOM      4  C   UNL     1       5.685   6.486  16.049  0.00  0.00    +0.000 A 
ATOM      5  C   UNL     1       5.597   5.266  15.362  0.00  0.00    +0.000 A 
ATOM      6  C   UNL     1       4.837   4.231  15.885  0.00  0.00    +0.000 A 
ATOM      7  C   UNL     1       4.184   4.449  17.099  0.00  0.00    +0.000 A 
ATOM      8  C   UNL     1       3.234   3.578  17.766  0.00  0.00    +0.000 A 
ATOM      9  C   UNL     1       2.991   2.226  17.749  0.00  0.00    +0.000 A 
ATOM     10  C   UNL     1       1.897   1.745  18.483  0.00  0.00    +0.000 A 
ATOM     11  C   UNL     1       0.975   2.620  19.062  0.00  0.00    +0.000 A 
ATOM     12  C   UNL     1       1.257   3.970  19.100  0.00  0.00    +0.000 A 
ATOM     13  C   UNL     1       2.505   4.369  18.646  0.00  0.00    +0.000 A 
ENDROOT
BRANCH   1  14
ATOM     14  C   UNL     1       2.680   6.381  20.147  0.00  0.00    +0.000 C 
BRANCH  14  18
ATOM     15  C   UNL     1       0.581  10.036  19.021  0.00  0.00    +0.000 A 
ATOM     16  C   UNL     1       1.284   9.289  18.104  0.00  0.00    +0.000 A 
ATOM     17  C   UNL     1       1.969   8.149  18.529  0.00  0.00    +0.000 A 
ATOM     18  C   UNL     1       1.964   7.714  19.877  0.00  0.00    +0.000 A 
ATOM     19  C   UNL     1       1.189   8.452  20.797  0.00  0.00    +0.000 A 
ATOM     20  C   UNL     1       0.504   9.601  20.362  0.00  0.00    +0.000 A 
BRANCH  15  22
ATOM     21  O   UNL     1       0.047  12.371  18.997  0.00  0.00    +0.000 OA
ATOM     22  C   UNL     1      -0.105  11.264  18.527  0.00  0.00    +0.000 C 
BRANCH  22  23
ATOM     23  O   UNL     1      -0.983  10.967  17.507  0.00  0.00    +0.000 OA
ATOM     24  H   UNL     1      -1.921  11.133  17.732  0.00  0.00    +0.000 HD
ENDBRANCH  22  23
ENDBRANCH  15  22
ENDBRANCH  14  18
ENDBRANCH   1  14
TORSDOF 4
ENDMDL
MODEL 7
REMARK VINA RESULT:      -8.6      1.004      3.521
REMARK  Name = 
REMARK  4 active torsions:
REMARK  status: ('A' for Active; 'I' for Inactive)
REMARK    1  A    between atoms: C_2  and  O_3
REMARK    2  A    between atoms: C_2  and  C_4
REMARK    3  A    between atoms: C_7  and  C_8
REMARK    4  A    between atoms: C_8  and  C_9
REMARK                            x       y       z     vdW  Elec       q    Type
REMARK                         _______ _______ _______ _____ _____    ______ ____
ROOT
ATOM      1  C   UNL     1       3.531   6.401  18.189  0.00  0.00    +0.000 C 
ATOM      2  C   UNL     1       4.925   6.151  17.585  0.00  0.00    +0.000 A 
ATOM      3  C   UNL     1       5.963   6.959  17.155  0.00  0.00    +0.000 A 
ATOM      4  C   UNL     1       7.166   6.342  16.733  0.00  0.00    +0.000 A 
ATOM      5  C   UNL     1       7.345   4.950  16.747  0.00  0.00    +0.000 A 
ATOM      6  C   UNL     1       6.324   4.126  17.194  0.00  0.00    +0.000 A 
ATOM      7  C   UNL     1       5.141   4.727  17.627  0.00  0.00    +0.000 A 
ATOM      8  C   UNL     1       3.900   4.076  18.004  0.00  0.00    +0.000 A 
ATOM      9  C   UNL     1       3.572   2.830  18.478  0.00  0.00    +0.000 A 
ATOM     10  C   UNL     1       2.213   2.529  18.650  0.00  0.00    +0.000 A 
ATOM     11  C   UNL     1       1.217   3.390  18.186  0.00  0.00    +0.000 A 
ATOM     12  C   UNL     1       1.566   4.652  17.748  0.00  0.00    +0.000 A 
ATOM     13  C   UNL     1       2.893   5.028  17.895  0.00  0.00    +0.000 A 
ENDROOT
BRANCH   1  14
ATOM     14  C   UNL     1       2.423   7.486  18.154  0.00  0.00    +0.000 C 
BRANCH  14  18
ATOM     15  C   UNL     1       0.433   9.677  21.361  0.00  0.00    +0.000 A 
ATOM     16  C   UNL     1       0.477  10.155  20.071  0.00  0.00    +0.000 A 
ATOM     17  C   UNL     1       1.161   9.429  19.094  0.00  0.00    +0.000 A 
ATOM     18  C   UNL     1       1.812   8.201  19.370  0.00  0.00    +0.000 A 
ATOM     19  C   UNL     1       1.708   7.691  20.681  0.00  0.00    +0.000 A 
ATOM     20  C   UNL     1       1.020   8.428  21.661  0.00  0.00    +0.000 A 
BRANCH  15  22
ATOM     21  O   UNL     1      -0.224  11.712  22.437  0.00  0.00    +0.000 OA
ATOM     22  C   UNL     1      -0.278  10.503  22.376  0.00  0.00    +0.000 C 
BRANCH  22  23
ATOM     23  O   UNL     1      -0.956   9.710  23.277  0.00  0.00    +0.000 OA
ATOM     24  H   UNL     1      -0.483   8.886  23.514  0.00  0.00    +0.000 HD
ENDBRANCH  22  23
ENDBRANCH  15  22
ENDBRANCH  14  18
ENDBRANCH   1  14
TORSDOF 4
ENDMDL
MODEL 8
REMARK VINA RESULT:      -8.6      1.289      1.950
REMARK  Name = 
REMARK  4 active torsions:
REMARK  status: ('A' for Active; 'I' for Inactive)
REMARK    1  A    between atoms: C_2  and  O_3
REMARK    2  A    between atoms: C_2  and  C_4
REMARK    3  A    between atoms: C_7  and  C_8
REMARK    4  A    between atoms: C_8  and  C_9
REMARK                            x       y       z     vdW  Elec       q    Type
REMARK                         _______ _______ _______ _____ _____    ______ ____
ROOT
ATOM      1  C   UNL     1       2.572   6.333  18.214  0.00  0.00    +0.000 C 
ATOM      2  C   UNL     1       2.317   5.206  19.232  0.00  0.00    +0.000 A 
ATOM      3  C   UNL     1       1.553   5.078  20.379  0.00  0.00    +0.000 A 
ATOM      4  C   UNL     1       1.499   3.814  21.015  0.00  0.00    +0.000 A 
ATOM      5  C   UNL     1       2.180   2.691  20.519  0.00  0.00    +0.000 A 
ATOM      6  C   UNL     1       2.934   2.795  19.360  0.00  0.00    +0.000 A 
ATOM      7  C   UNL     1       2.978   4.033  18.719  0.00  0.00    +0.000 A 
ATOM      8  C   UNL     1       3.798   4.417  17.584  0.00  0.00    +0.000 A 
ATOM      9  C   UNL     1       4.393   3.734  16.551  0.00  0.00    +0.000 A 
ATOM     10  C   UNL     1       5.205   4.458  15.666  0.00  0.00    +0.000 A 
ATOM     11  C   UNL     1       5.550   5.786  15.924  0.00  0.00    +0.000 A 
ATOM     12  C   UNL     1       4.913   6.464  16.943  0.00  0.00    +0.000 A 
ATOM     13  C   UNL     1       3.880   5.804  17.593  0.00  0.00    +0.000 A 
ENDROOT
BRANCH   1  14
ATOM     14  C   UNL     1       2.589   7.884  18.173  0.00  0.00    +0.000 C 
BRANCH  14  18
ATOM     15  C   UNL     1      -0.424  10.551  19.860  0.00  0.00    +0.000 A 
ATOM     16  C   UNL     1      -0.138  10.536  18.514  0.00  0.00    +0.000 A 
ATOM     17  C   UNL     1       0.864   9.689  18.036  0.00  0.00    +0.000 A 
ATOM     18  C   UNL     1       1.601   8.824  18.882  0.00  0.00    +0.000 A 
ATOM     19  C   UNL     1       1.257   8.803  20.250  0.00  0.00    +0.000 A 
ATOM     20  C   UNL     1       0.249   9.662  20.726  0.00  0.00    +0.000 A 
BRANCH  15  22
ATOM     21  O   UNL     1      -1.564  11.919  21.462  0.00  0.00    +0.000 OA
ATOM     22  C   UNL     1      -1.476  11.497  20.329  0.00  0.00    +0.000 C 
BRANCH  22  23
ATOM     23  O   UNL     1      -2.374  11.781  19.322  0.00  0.00    +0.000 OA
ATOM     24  H   UNL     1      -3.236  11.328  19.422  0.00  0.00    +0.000 HD
ENDBRANCH  22  23
ENDBRANCH  15  22
ENDBRANCH  14  18
ENDBRANCH   1  14
TORSDOF 4
ENDMDL
MODEL 9
REMARK VINA RESULT:      -8.5      0.913      1.445
REMARK  Name = 
REMARK  4 active torsions:
REMARK  status: ('A' for Active; 'I' for Inactive)
REMARK    1  A    between atoms: C_2  and  O_3
REMARK    2  A    between atoms: C_2  and  C_4
REMARK    3  A    between atoms: C_7  and  C_8
REMARK    4  A    between atoms: C_8  and  C_9
REMARK                            x       y       z     vdW  Elec       q    Type
REMARK                         _______ _______ _______ _____ _____    ______ ____
ROOT
ATOM      1  C   UNL     1       3.227   5.949  17.437  0.00  0.00    +0.000 C 
ATOM      2  C   UNL     1       2.649   4.656  18.041  0.00  0.00    +0.000 A 
ATOM      3  C   UNL     1       1.537   4.345  18.803  0.00  0.00    +0.000 A 
ATOM      4  C   UNL     1       1.282   2.983  19.097  0.00  0.00    +0.000 A 
ATOM      5  C   UNL     1       2.105   1.945  18.635  0.00  0.00    +0.000 A 
ATOM      6  C   UNL     1       3.212   2.235  17.853  0.00  0.00    +0.000 A 
ATOM      7  C   UNL     1       3.461   3.574  17.546  0.00  0.00    +0.000 A 
ATOM      8  C   UNL     1       4.619   4.129  16.868  0.00  0.00    +0.000 A 
ATOM      9  C   UNL     1       5.542   3.636  15.979  0.00  0.00    +0.000 A 
ATOM     10  C   UNL     1       6.602   4.472  15.600  0.00  0.00    +0.000 A 
ATOM     11  C   UNL     1       6.820   5.695  16.237  0.00  0.00    +0.000 A 
ATOM     12  C   UNL     1       5.862   6.189  17.099  0.00  0.00    +0.000 A 
ATOM     13  C   UNL     1       4.676   5.477  17.200  0.00  0.00    +0.000 A 
ENDROOT
BRANCH   1  14
ATOM     14  C   UNL     1       3.239   7.472  17.736  0.00  0.00    +0.000 C 
BRANCH  14  18
ATOM     15  C   UNL     1       0.385   9.693  20.177  0.00  0.00    +0.000 A 
ATOM     16  C   UNL     1       0.679  10.062  18.884  0.00  0.00    +0.000 A 
ATOM     17  C   UNL     1       1.630   9.337  18.163  0.00  0.00    +0.000 A 
ATOM     18  C   UNL     1       2.307   8.215  18.705  0.00  0.00    +0.000 A 
ATOM     19  C   UNL     1       1.952   7.809  20.009  0.00  0.00    +0.000 A 
ATOM     20  C   UNL     1       0.996   8.546  20.730  0.00  0.00    +0.000 A 
BRANCH  15  22
ATOM     21  O   UNL     1      -1.283  11.394  20.418  0.00  0.00    +0.000 OA
ATOM     22  C   UNL     1      -0.610  10.518  20.918  0.00  0.00    +0.000 C 
BRANCH  22  23
ATOM     23  O   UNL     1      -0.621  10.200  22.259  0.00  0.00    +0.000 OA
ATOM     24  H   UNL     1      -1.153  10.812  22.807  0.00  0.00    +0.000 HD
ENDBRANCH  22  23
ENDBRANCH  15  22
ENDBRANCH  14  18
ENDBRANCH   1  14
TORSDOF 4
ENDMDL
