MODEL 1
REMARK VINA RESULT:      -8.3      0.000      0.000
REMARK  Name = 
REMARK  9 active torsions:
REMARK  status: ('A' for Active; 'I' for Inactive)
REMARK    1  A    between atoms: C_1  and  C_2
REMARK    2  A    between atoms: C_2  and  C_3
REMARK    3  A    between atoms: C_3  and  C_4
REMARK    4  A    between atoms: C_5  and  O_6
REMARK    5  A    between atoms: C_10  and  C_11
REMARK    6  A    between atoms: C_14  and  C_15
REMARK    7  A    between atoms: C_18  and  C_19
REMARK    8  A    between atoms: C_19  and  O_21
REMARK    9  A    between atoms: C_23  and  C_24
REMARK                            x       y       z     vdW  Elec       q    Type
REMARK                         _______ _______ _______ _____ _____    ______ ____
ROOT
ATOM      1  C   UNK     1       1.350   8.860  19.496  0.00  0.00    +0.000 A 
ATOM      2  C   UNK     1       1.721   7.790  20.274  0.00  0.00    +0.000 A 
ATOM      3  N   UNK     1       2.609   6.911  19.686  0.00  0.00    +0.000 NA
ATOM      4  C   UNK     1       2.899   7.300  18.460  0.00  0.00    +0.000 A 
ATOM      5  S   UNK     1       2.086   8.720  17.961  0.00  0.00    +0.000 S 
ENDROOT
BRANCH   1  11
ATOM      6  C   UNK     1      -2.406  12.173  19.763  0.00  0.00    +0.000 A 
ATOM      7  C   UNK     1      -3.078  11.753  18.596  0.00  0.00    +0.000 A 
ATOM      8  C   UNK     1      -2.613  10.718  17.793  0.00  0.00    +0.000 A 
ATOM      9  C   UNK     1      -1.435  10.047  18.111  0.00  0.00    +0.000 A 
ATOM     10  C   UNK     1      -0.727  10.416  19.267  0.00  0.00    +0.000 A 
ATOM     11  C   UNK     1       0.439   9.958  19.941  0.00  0.00    +0.000 A 
ATOM     12  N   UNK     1       0.642  10.623  21.085  0.00  0.00    +0.000 NA
ATOM     13  N   UNK     1      -0.333  11.547  21.095  0.00  0.00    +0.000 N 
ATOM     14  C   UNK     1      -1.222  11.456  20.051  0.00  0.00    +0.000 A 
ATOM     15  H   UNK     1      -0.361  12.206  21.865  0.00  0.00    +0.000 HD
BRANCH   7  16
ATOM     16  O   UNK     1      -4.257  12.307  18.172  0.00  0.00    +0.000 OA
ATOM     17  H   UNK     1      -4.983  12.052  18.761  0.00  0.00    +0.000 HD
ENDBRANCH   7  16
BRANCH   6  18
ATOM     18  C   UNK     1      -2.920  13.275  20.655  0.00  0.00    +0.000 C 
BRANCH  18  20
ATOM     19  C   UNK     1      -5.214  12.784  21.575  0.00  0.00    +0.000 C 
ATOM     20  C   UNK     1      -3.717  12.727  21.841  0.00  0.00    +0.000 C 
ENDBRANCH  18  20
ENDBRANCH   6  18
ENDBRANCH   1  11
BRANCH   4  21
ATOM     21  C   UNK     1       3.810   6.579  17.560  0.00  0.00    +0.000 A 
ATOM     22  C   UNK     1       4.891   7.219  16.940  0.00  0.00    +0.000 A 
ATOM     23  N   UNK     1       5.811   6.623  16.126  0.00  0.00    +0.000 NA
ATOM     24  C   UNK     1       5.661   5.285  15.921  0.00  0.00    +0.000 A 
ATOM     25  C   UNK     1       4.623   4.550  16.494  0.00  0.00    +0.000 A 
ATOM     26  C   UNK     1       3.678   5.201  17.319  0.00  0.00    +0.000 A 
ATOM     27  C   UNK     1       2.549   4.401  17.911  0.00  0.00    +0.000 C 
BRANCH  24  28
ATOM     28  C   UNK     1       6.696   4.633  15.020  0.00  0.00    +0.000 C 
ATOM     29  O   UNK     1       7.748   5.155  14.744  0.00  0.00    +0.000 OA
BRANCH  28  30
ATOM     30  O   UNK     1       6.358   3.402  14.534  0.00  0.00    +0.000 OA
ATOM     31  H   UNK     1       6.863   3.086  13.757  0.00  0.00    +0.000 HD
ENDBRANCH  28  30
ENDBRANCH  24  28
ENDBRANCH   4  21
TORSDOF 7
ENDMDL
MODEL 2
REMARK VINA RESULT:      -8.0      1.319      1.604
REMARK  Name = 
REMARK  9 active torsions:
REMARK  status: ('A' for Active; 'I' for Inactive)
REMARK    1  A    between atoms: C_1  and  C_2
REMARK    2  A    between atoms: C_2  and  C_3
REMARK    3  A    between atoms: C_3  and  C_4
REMARK    4  A    between atoms: C_5  and  O_6
REMARK    5  A    between atoms: C_10  and  C_11
REMARK    6  A    between atoms: C_14  and  C_15
REMARK    7  A    between atoms: C_18  and  C_19
REMARK    8  A    between atoms: C_19  and  O_21
REMARK    9  A    between atoms: C_23  and  C_24
REMARK                            x       y       z     vdW  Elec       q    Type
REMARK                         _______ _______ _______ _____ _____    ______ ____
ROOT
ATOM      1  C   UNK     1       1.783   7.917  19.951  0.00  0.00    +0.000 A 
ATOM      2  C   UNK     1       2.075   6.659  20.419  0.00  0.00    +0.000 A 
ATOM      3  N   UNK     1       2.880   5.895  19.598  0.00  0.00    +0.000 NA
ATOM      4  C   UNK     1       3.186   6.562  18.502  0.00  0.00    +0.000 A 
ATOM      5  S   UNK     1       2.486   8.120  18.408  0.00  0.00    +0.000 S 
ENDROOT
BRANCH   1  11
ATOM      6  C   UNK     1      -1.372  11.650  21.077  0.00  0.00    +0.000 A 
ATOM      7  C   UNK     1      -1.797  11.910  19.756  0.00  0.00    +0.000 A 
ATOM      8  C   UNK     1      -1.314  11.204  18.660  0.00  0.00    +0.000 A 
ATOM      9  C   UNK     1      -0.366  10.198  18.825  0.00  0.00    +0.000 A 
ATOM     10  C   UNK     1       0.087   9.889  20.118  0.00  0.00    +0.000 A 
ATOM     11  C   UNK     1       0.971   8.931  20.690  0.00  0.00    +0.000 A 
ATOM     12  N   UNK     1       0.989   9.012  22.027  0.00  0.00    +0.000 NA
ATOM     13  N   UNK     1       0.193  10.060  22.295  0.00  0.00    +0.000 N 
ATOM     14  C   UNK     1      -0.418  10.614  21.196  0.00  0.00    +0.000 A 
ATOM     15  H   UNK     1       0.081  10.341  23.263  0.00  0.00    +0.000 HD
BRANCH   7  16
ATOM     16  O   UNK     1      -2.738  12.856  19.446  0.00  0.00    +0.000 OA
ATOM     17  H   UNK     1      -2.481  13.720  19.804  0.00  0.00    +0.000 HD
ENDBRANCH   7  16
BRANCH   6  18
ATOM     18  C   UNK     1      -1.913  12.391  22.274  0.00  0.00    +0.000 C 
BRANCH  18  20
ATOM     19  C   UNK     1      -1.572  14.313  23.867  0.00  0.00    +0.000 C 
ATOM     20  C   UNK     1      -0.953  13.481  22.754  0.00  0.00    +0.000 C 
ENDBRANCH  18  20
ENDBRANCH   6  18
ENDBRANCH   1  11
BRANCH   4  21
ATOM     21  C   UNK     1       4.024   6.029  17.420  0.00  0.00    +0.000 A 
ATOM     22  C   UNK     1       4.997   6.813  16.787  0.00  0.00    +0.000 A 
ATOM     23  N   UNK     1       5.848   6.392  15.806  0.00  0.00    +0.000 NA
ATOM     24  C   UNK     1       5.740   5.088  15.430  0.00  0.00    +0.000 A 
ATOM     25  C   UNK     1       4.808   4.218  15.998  0.00  0.00    +0.000 A 
ATOM     26  C   UNK     1       3.932   4.690  17.001  0.00  0.00    +0.000 A 
ATOM     27  C   UNK     1       2.915   3.748  17.587  0.00  0.00    +0.000 C 
BRANCH  24  28
ATOM     28  C   UNK     1       6.697   4.631  14.342  0.00  0.00    +0.000 C 
ATOM     29  O   UNK     1       7.690   5.246  14.040  0.00  0.00    +0.000 OA
BRANCH  28  30
ATOM     30  O   UNK     1       6.361   3.463  13.719  0.00  0.00    +0.000 OA
ATOM     31  H   UNK     1       5.909   2.790  14.268  0.00  0.00    +0.000 HD
ENDBRANCH  28  30
ENDBRANCH  24  28
ENDBRANCH   4  21
TORSDOF 7
ENDMDL
MODEL 3
REMARK VINA RESULT:      -7.7      1.694      2.136
REMARK  Name = 
REMARK  9 active torsions:
REMARK  status: ('A' for Active; 'I' for Inactive)
REMARK    1  A    between atoms: C_1  and  C_2
REMARK    2  A    between atoms: C_2  and  C_3
REMARK    3  A    between atoms: C_3  and  C_4
REMARK    4  A    between atoms: C_5  and  O_6
REMARK    5  A    between atoms: C_10  and  C_11
REMARK    6  A    between atoms: C_14  and  C_15
REMARK    7  A    between atoms: C_18  and  C_19
REMARK    8  A    between atoms: C_19  and  O_21
REMARK    9  A    between atoms: C_23  and  C_24
REMARK                            x       y       z     vdW  Elec       q    Type
REMARK                         _______ _______ _______ _____ _____    ______ ____
ROOT
ATOM      1  C   UNK     1       1.119   9.094  19.322  0.00  0.00    +0.000 A 
ATOM      2  C   UNK     1       1.503   8.192  20.285  0.00  0.00    +0.000 A 
ATOM      3  N   UNK     1       2.432   7.255  19.879  0.00  0.00    +0.000 NA
ATOM      4  C   UNK     1       2.742   7.431  18.610  0.00  0.00    +0.000 A 
ATOM      5  S   UNK     1       1.899   8.712  17.852  0.00  0.00    +0.000 S 
ENDROOT
BRANCH   1  11
ATOM      6  C   UNK     1      -2.034  12.367  21.443  0.00  0.00    +0.000 A 
ATOM      7  C   UNK     1      -1.920  11.875  22.761  0.00  0.00    +0.000 A 
ATOM      8  C   UNK     1      -1.115  10.790  23.089  0.00  0.00    +0.000 A 
ATOM      9  C   UNK     1      -0.383  10.126  22.109  0.00  0.00    +0.000 A 
ATOM     10  C   UNK     1      -0.451  10.577  20.780  0.00  0.00    +0.000 A 
ATOM     11  C   UNK     1       0.164  10.221  19.547  0.00  0.00    +0.000 A 
ATOM     12  N   UNK     1      -0.196  11.049  18.558  0.00  0.00    +0.000 NA
ATOM     13  N   UNK     1      -1.091  11.867  19.136  0.00  0.00    +0.000 N 
ATOM     14  C   UNK     1      -1.265  11.669  20.485  0.00  0.00    +0.000 A 
ATOM     15  H   UNK     1      -1.539  12.572  18.560  0.00  0.00    +0.000 HD
BRANCH   7  16
ATOM     16  O   UNK     1      -2.565  12.440  23.829  0.00  0.00    +0.000 OA
ATOM     17  H   UNK     1      -3.421  12.008  23.975  0.00  0.00    +0.000 HD
ENDBRANCH   7  16
BRANCH   6  18
ATOM     18  C   UNK     1      -2.882  13.562  21.084  0.00  0.00    +0.000 C 
BRANCH  18  20
ATOM     19  C   UNK     1      -5.258  12.859  21.542  0.00  0.00    +0.000 C 
ATOM     20  C   UNK     1      -4.220  13.150  20.468  0.00  0.00    +0.000 C 
ENDBRANCH  18  20
ENDBRANCH   6  18
ENDBRANCH   1  11
BRANCH   4  21
ATOM     21  C   UNK     1       3.698   6.597  17.871  0.00  0.00    +0.000 A 
ATOM     22  C   UNK     1       4.967   7.070  17.513  0.00  0.00    +0.000 A 
ATOM     23  N   UNK     1       5.934   6.354  16.866  0.00  0.00    +0.000 NA
ATOM     24  C   UNK     1       5.628   5.063  16.563  0.00  0.00    +0.000 A 
ATOM     25  C   UNK     1       4.396   4.489  16.877  0.00  0.00    +0.000 A 
ATOM     26  C   UNK     1       3.412   5.263  17.533  0.00  0.00    +0.000 A 
ATOM     27  C   UNK     1       2.078   4.639  17.844  0.00  0.00    +0.000 C 
BRANCH  24  28
ATOM     28  C   UNK     1       6.715   4.276  15.850  0.00  0.00    +0.000 C 
ATOM     29  O   UNK     1       7.874   4.309  16.180  0.00  0.00    +0.000 OA
BRANCH  28  30
ATOM     30  O   UNK     1       6.293   3.516  14.796  0.00  0.00    +0.000 OA
ATOM     31  H   UNK     1       6.992   3.122  14.235  0.00  0.00    +0.000 HD
ENDBRANCH  28  30
ENDBRANCH  24  28
ENDBRANCH   4  21
TORSDOF 7
ENDMDL
MODEL 4
REMARK VINA RESULT:      -7.5      1.510      1.561
REMARK  Name = 
REMARK  9 active torsions:
REMARK  status: ('A' for Active; 'I' for Inactive)
REMARK    1  A    between atoms: C_1  and  C_2
REMARK    2  A    between atoms: C_2  and  C_3
REMARK    3  A    between atoms: C_3  and  C_4
REMARK    4  A    between atoms: C_5  and  O_6
REMARK    5  A    between atoms: C_10  and  C_11
REMARK    6  A    between atoms: C_14  and  C_15
REMARK    7  A    between atoms: C_18  and  C_19
REMARK    8  A    between atoms: C_19  and  O_21
REMARK    9  A    between atoms: C_23  and  C_24
REMARK                            x       y       z     vdW  Elec       q    Type
REMARK                         _______ _______ _______ _____ _____    ______ ____
ROOT
ATOM      1  C   UNK     1       1.594   8.303  19.955  0.00  0.00    +0.000 A 
ATOM      2  C   UNK     1       1.855   7.070  20.503  0.00  0.00    +0.000 A 
ATOM      3  N   UNK     1       2.672   6.250  19.751  0.00  0.00    +0.000 NA
ATOM      4  C   UNK     1       3.018   6.848  18.628  0.00  0.00    +0.000 A 
ATOM      5  S   UNK     1       2.342   8.407  18.424  0.00  0.00    +0.000 S 
ENDROOT
BRANCH   1  11
ATOM      6  C   UNK     1      -0.919  12.544  20.881  0.00  0.00    +0.000 A 
ATOM      7  C   UNK     1      -0.708  13.138  19.618  0.00  0.00    +0.000 A 
ATOM      8  C   UNK     1       0.024  12.520  18.610  0.00  0.00    +0.000 A 
ATOM      9  C   UNK     1       0.598  11.268  18.815  0.00  0.00    +0.000 A 
ATOM     10  C   UNK     1       0.414  10.625  20.050  0.00  0.00    +0.000 A 
ATOM     11  C   UNK     1       0.775   9.367  20.611  0.00  0.00    +0.000 A 
ATOM     12  N   UNK     1       0.265   9.209  21.839  0.00  0.00    +0.000 NA
ATOM     13  N   UNK     1      -0.341  10.382  22.087  0.00  0.00    +0.000 N 
ATOM     14  C   UNK     1      -0.327  11.270  21.038  0.00  0.00    +0.000 A 
ATOM     15  H   UNK     1      -0.777  10.514  22.993  0.00  0.00    +0.000 HD
BRANCH   7  16
ATOM     16  O   UNK     1      -1.229  14.356  19.269  0.00  0.00    +0.000 OA
ATOM     17  H   UNK     1      -0.869  14.648  18.417  0.00  0.00    +0.000 HD
ENDBRANCH   7  16
BRANCH   6  18
ATOM     18  C   UNK     1      -1.736  13.194  21.968  0.00  0.00    +0.000 C 
BRANCH  18  20
ATOM     19  C   UNK     1      -3.396  12.290  23.634  0.00  0.00    +0.000 C 
ATOM     20  C   UNK     1      -3.088  12.504  22.160  0.00  0.00    +0.000 C 
ENDBRANCH  18  20
ENDBRANCH   6  18
ENDBRANCH   1  11
BRANCH   4  21
ATOM     21  C   UNK     1       3.879   6.243  17.603  0.00  0.00    +0.000 A 
ATOM     22  C   UNK     1       4.889   6.974  16.964  0.00  0.00    +0.000 A 
ATOM     23  N   UNK     1       5.762   6.485  16.035  0.00  0.00    +0.000 NA
ATOM     24  C   UNK     1       5.637   5.166  15.722  0.00  0.00    +0.000 A 
ATOM     25  C   UNK     1       4.668   4.346  16.302  0.00  0.00    +0.000 A 
ATOM     26  C   UNK     1       3.770   4.887  17.249  0.00  0.00    +0.000 A 
ATOM     27  C   UNK     1       2.714   3.997  17.848  0.00  0.00    +0.000 C 
BRANCH  24  28
ATOM     28  C   UNK     1       6.619   4.634  14.692  0.00  0.00    +0.000 C 
ATOM     29  O   UNK     1       7.626   5.219  14.382  0.00  0.00    +0.000 OA
BRANCH  28  30
ATOM     30  O   UNK     1       6.286   3.434  14.130  0.00  0.00    +0.000 OA
ATOM     31  H   UNK     1       6.727   3.211  13.285  0.00  0.00    +0.000 HD
ENDBRANCH  28  30
ENDBRANCH  24  28
ENDBRANCH   4  21
TORSDOF 7
ENDMDL
MODEL 5
REMARK VINA RESULT:      -7.4      3.195     10.393
REMARK  Name = 
REMARK  9 active torsions:
REMARK  status: ('A' for Active; 'I' for Inactive)
REMARK    1  A    between atoms: C_1  and  C_2
REMARK    2  A    between atoms: C_2  and  C_3
REMARK    3  A    between atoms: C_3  and  C_4
REMARK    4  A    between atoms: C_5  and  O_6
REMARK    5  A    between atoms: C_10  and  C_11
REMARK    6  A    between atoms: C_14  and  C_15
REMARK    7  A    between atoms: C_18  and  C_19
REMARK    8  A    between atoms: C_19  and  O_21
REMARK    9  A    between atoms: C_23  and  C_24
REMARK                            x       y       z     vdW  Elec       q    Type
REMARK                         _______ _______ _______ _____ _____    ______ ____
ROOT
ATOM      1  C   UNK     1       1.106   9.023  20.768  0.00  0.00    +0.000 A 
ATOM      2  C   UNK     1       1.438   9.091  22.100  0.00  0.00    +0.000 A 
ATOM      3  N   UNK     1       0.698   9.983  22.849  0.00  0.00    +0.000 NA
ATOM      4  C   UNK     1      -0.183  10.605  22.089  0.00  0.00    +0.000 A 
ATOM      5  S   UNK     1      -0.125  10.160  20.438  0.00  0.00    +0.000 S 
ENDROOT
BRANCH   1  11
ATOM      6  C   UNK     1       2.966   4.950  18.510  0.00  0.00    +0.000 A 
ATOM      7  C   UNK     1       2.647   4.034  19.535  0.00  0.00    +0.000 A 
ATOM      8  C   UNK     1       2.019   4.417  20.715  0.00  0.00    +0.000 A 
ATOM      9  C   UNK     1       1.682   5.749  20.940  0.00  0.00    +0.000 A 
ATOM     10  C   UNK     1       1.968   6.704  19.951  0.00  0.00    +0.000 A 
ATOM     11  C   UNK     1       1.740   8.098  19.780  0.00  0.00    +0.000 A 
ATOM     12  N   UNK     1       2.149   8.523  18.578  0.00  0.00    +0.000 NA
ATOM     13  N   UNK     1       2.704   7.431  18.026  0.00  0.00    +0.000 N 
ATOM     14  C   UNK     1       2.595   6.287  18.778  0.00  0.00    +0.000 A 
ATOM     15  H   UNK     1       3.125   7.520  17.107  0.00  0.00    +0.000 HD
BRANCH   7  16
ATOM     16  O   UNK     1       2.901   2.691  19.443  0.00  0.00    +0.000 OA
ATOM     17  H   UNK     1       3.847   2.515  19.567  0.00  0.00    +0.000 HD
ENDBRANCH   7  16
BRANCH   6  18
ATOM     18  C   UNK     1       3.619   4.537  17.215  0.00  0.00    +0.000 C 
BRANCH  18  20
ATOM     19  C   UNK     1       5.423   5.593  15.808  0.00  0.00    +0.000 C 
ATOM     20  C   UNK     1       5.086   4.965  17.152  0.00  0.00    +0.000 C 
ENDBRANCH  18  20
ENDBRANCH   6  18
ENDBRANCH   1  11
BRANCH   4  21
ATOM     21  C   UNK     1      -1.122  11.622  22.579  0.00  0.00    +0.000 A 
ATOM     22  C   UNK     1      -2.301  11.274  23.251  0.00  0.00    +0.000 A 
ATOM     23  N   UNK     1      -3.208  12.149  23.777  0.00  0.00    +0.000 NA
ATOM     24  C   UNK     1      -2.920  13.473  23.642  0.00  0.00    +0.000 A 
ATOM     25  C   UNK     1      -1.771  13.929  22.994  0.00  0.00    +0.000 A 
ATOM     26  C   UNK     1      -0.861  12.997  22.447  0.00  0.00    +0.000 A 
ATOM     27  C   UNK     1       0.361  13.503  21.729  0.00  0.00    +0.000 C 
BRANCH  24  28
ATOM     28  C   UNK     1      -3.934  14.435  24.238  0.00  0.00    +0.000 C 
ATOM     29  O   UNK     1      -4.967  14.724  23.688  0.00  0.00    +0.000 OA
BRANCH  28  30
ATOM     30  O   UNK     1      -3.599  14.959  25.454  0.00  0.00    +0.000 OA
ATOM     31  H   UNK     1      -3.628  15.935  25.531  0.00  0.00    +0.000 HD
ENDBRANCH  28  30
ENDBRANCH  24  28
ENDBRANCH   4  21
TORSDOF 7
ENDMDL
MODEL 6
REMARK VINA RESULT:      -7.4      2.574      3.078
REMARK  Name = 
REMARK  9 active torsions:
REMARK  status: ('A' for Active; 'I' for Inactive)
REMARK    1  A    between atoms: C_1  and  C_2
REMARK    2  A    between atoms: C_2  and  C_3
REMARK    3  A    between atoms: C_3  and  C_4
REMARK    4  A    between atoms: C_5  and  O_6
REMARK    5  A    between atoms: C_10  and  C_11
REMARK    6  A    between atoms: C_14  and  C_15
REMARK    7  A    between atoms: C_18  and  C_19
REMARK    8  A    between atoms: C_19  and  O_21
REMARK    9  A    between atoms: C_23  and  C_24
REMARK                            x       y       z     vdW  Elec       q    Type
REMARK                         _______ _______ _______ _____ _____    ______ ____
ROOT
ATOM      1  C   UNK     1       1.453   8.685  19.512  0.00  0.00    +0.000 A 
ATOM      2  C   UNK     1       2.089   8.443  18.318  0.00  0.00    +0.000 A 
ATOM      3  N   UNK     1       2.706   7.212  18.216  0.00  0.00    +0.000 NA
ATOM      4  C   UNK     1       2.555   6.527  19.332  0.00  0.00    +0.000 A 
ATOM      5  S   UNK     1       1.693   7.356  20.556  0.00  0.00    +0.000 S 
ENDROOT
BRANCH   1  11
ATOM      6  C   UNK     1      -2.017  12.307  19.547  0.00  0.00    +0.000 A 
ATOM      7  C   UNK     1      -2.872  11.724  18.586  0.00  0.00    +0.000 A 
ATOM      8  C   UNK     1      -2.589  10.513  17.967  0.00  0.00    +0.000 A 
ATOM      9  C   UNK     1      -1.421   9.816  18.268  0.00  0.00    +0.000 A 
ATOM     10  C   UNK     1      -0.537  10.344  19.223  0.00  0.00    +0.000 A 
ATOM     11  C   UNK     1       0.683   9.927  19.827  0.00  0.00    +0.000 A 
ATOM     12  N   UNK     1       1.086  10.786  20.771  0.00  0.00    +0.000 NA
ATOM     13  N   UNK     1       0.180  11.776  20.710  0.00  0.00    +0.000 N 
ATOM     14  C   UNK     1      -0.851  11.559  19.828  0.00  0.00    +0.000 A 
ATOM     15  H   UNK     1       0.302  12.576  21.322  0.00  0.00    +0.000 HD
BRANCH   7  16
ATOM     16  O   UNK     1      -4.062  12.286  18.207  0.00  0.00    +0.000 OA
ATOM     17  H   UNK     1      -4.797  11.891  18.701  0.00  0.00    +0.000 HD
ENDBRANCH   7  16
BRANCH   6  18
ATOM     18  C   UNK     1      -2.332  13.606  20.245  0.00  0.00    +0.000 C 
BRANCH  18  20
ATOM     19  C   UNK     1      -4.139  12.929  21.865  0.00  0.00    +0.000 C 
ATOM     20  C   UNK     1      -2.697  13.392  21.715  0.00  0.00    +0.000 C 
ENDBRANCH  18  20
ENDBRANCH   6  18
ENDBRANCH   1  11
BRANCH   4  21
ATOM     21  C   UNK     1       3.097   5.180  19.553  0.00  0.00    +0.000 A 
ATOM     22  C   UNK     1       4.442   4.877  19.304  0.00  0.00    +0.000 A 
ATOM     23  N   UNK     1       5.042   3.670  19.520  0.00  0.00    +0.000 NA
ATOM     24  C   UNK     1       4.255   2.687  20.037  0.00  0.00    +0.000 A 
ATOM     25  C   UNK     1       2.904   2.882  20.326  0.00  0.00    +0.000 A 
ATOM     26  C   UNK     1       2.310   4.140  20.076  0.00  0.00    +0.000 A 
ATOM     27  C   UNK     1       0.846   4.329  20.369  0.00  0.00    +0.000 C 
BRANCH  24  28
ATOM     28  C   UNK     1       4.937   1.351  20.279  0.00  0.00    +0.000 C 
ATOM     29  O   UNK     1       5.541   1.096  21.291  0.00  0.00    +0.000 OA
BRANCH  28  30
ATOM     30  O   UNK     1       4.821   0.442  19.266  0.00  0.00    +0.000 OA
ATOM     31  H   UNK     1       3.950   0.395  18.820  0.00  0.00    +0.000 HD
ENDBRANCH  28  30
ENDBRANCH  24  28
ENDBRANCH   4  21
TORSDOF 7
ENDMDL
MODEL 7
REMARK VINA RESULT:      -7.4      0.761      1.312
REMARK  Name = 
REMARK  9 active torsions:
REMARK  status: ('A' for Active; 'I' for Inactive)
REMARK    1  A    between atoms: C_1  and  C_2
REMARK    2  A    between atoms: C_2  and  C_3
REMARK    3  A    between atoms: C_3  and  C_4
REMARK    4  A    between atoms: C_5  and  O_6
REMARK    5  A    between atoms: C_10  and  C_11
REMARK    6  A    between atoms: C_14  and  C_15
REMARK    7  A    between atoms: C_18  and  C_19
REMARK    8  A    between atoms: C_19  and  O_21
REMARK    9  A    between atoms: C_23  and  C_24
REMARK                            x       y       z     vdW  Elec       q    Type
REMARK                         _______ _______ _______ _____ _____    ______ ____
ROOT
ATOM      1  C   UNK     1       1.389   8.748  19.853  0.00  0.00    +0.000 A 
ATOM      2  C   UNK     1       1.657   7.610  20.575  0.00  0.00    +0.000 A 
ATOM      3  N   UNK     1       2.484   6.696  19.953  0.00  0.00    +0.000 NA
ATOM      4  C   UNK     1       2.830   7.128  18.756  0.00  0.00    +0.000 A 
ATOM      5  S   UNK     1       2.144   8.635  18.326  0.00  0.00    +0.000 S 
ENDROOT
BRANCH   1  11
ATOM      6  C   UNK     1      -2.138  12.288  20.280  0.00  0.00    +0.000 A 
ATOM      7  C   UNK     1      -2.856  11.946  19.114  0.00  0.00    +0.000 A 
ATOM      8  C   UNK     1      -2.473  10.906  18.275  0.00  0.00    +0.000 A 
ATOM      9  C   UNK     1      -1.336  10.152  18.553  0.00  0.00    +0.000 A 
ATOM     10  C   UNK     1      -0.586  10.442  19.705  0.00  0.00    +0.000 A 
ATOM     11  C   UNK     1       0.559   9.890  20.344  0.00  0.00    +0.000 A 
ATOM     12  N   UNK     1       0.825  10.509  21.502  0.00  0.00    +0.000 NA
ATOM     13  N   UNK     1      -0.088  11.492  21.555  0.00  0.00    +0.000 N 
ATOM     14  C   UNK     1      -0.999  11.489  20.526  0.00  0.00    +0.000 A 
ATOM     15  H   UNK     1      -0.060  12.131  22.344  0.00  0.00    +0.000 HD
BRANCH   7  16
ATOM     16  O   UNK     1      -4.003  12.587  18.727  0.00  0.00    +0.000 OA
ATOM     17  H   UNK     1      -3.954  13.531  18.945  0.00  0.00    +0.000 HD
ENDBRANCH   7  16
BRANCH   6  18
ATOM     18  C   UNK     1      -2.564  13.396  21.211  0.00  0.00    +0.000 C 
BRANCH  18  20
ATOM     19  C   UNK     1      -0.972  14.632  19.699  0.00  0.00    +0.000 C 
ATOM     20  C   UNK     1      -1.720  14.658  21.024  0.00  0.00    +0.000 C 
ENDBRANCH  18  20
ENDBRANCH   6  18
ENDBRANCH   1  11
BRANCH   4  21
ATOM     21  C   UNK     1       3.700   6.387  17.833  0.00  0.00    +0.000 A 
ATOM     22  C   UNK     1       4.884   6.943  17.330  0.00  0.00    +0.000 A 
ATOM     23  N   UNK     1       5.773   6.316  16.505  0.00  0.00    +0.000 NA
ATOM     24  C   UNK     1       5.477   5.032  16.161  0.00  0.00    +0.000 A 
ATOM     25  C   UNK     1       4.326   4.382  16.608  0.00  0.00    +0.000 A 
ATOM     26  C   UNK     1       3.419   5.065  17.449  0.00  0.00    +0.000 A 
ATOM     27  C   UNK     1       2.170   4.359  17.904  0.00  0.00    +0.000 C 
BRANCH  24  28
ATOM     28  C   UNK     1       6.477   4.344  15.248  0.00  0.00    +0.000 C 
ATOM     29  O   UNK     1       6.151   3.591  14.364  0.00  0.00    +0.000 OA
BRANCH  28  30
ATOM     30  O   UNK     1       7.789   4.635  15.492  0.00  0.00    +0.000 OA
ATOM     31  H   UNK     1       8.017   4.883  16.412  0.00  0.00    +0.000 HD
ENDBRANCH  28  30
ENDBRANCH  24  28
ENDBRANCH   4  21
TORSDOF 7
ENDMDL
MODEL 8
REMARK VINA RESULT:      -7.3      2.367     10.041
REMARK  Name = 
REMARK  9 active torsions:
REMARK  status: ('A' for Active; 'I' for Inactive)
REMARK    1  A    between atoms: C_1  and  C_2
REMARK    2  A    between atoms: C_2  and  C_3
REMARK    3  A    between atoms: C_3  and  C_4
REMARK    4  A    between atoms: C_5  and  O_6
REMARK    5  A    between atoms: C_10  and  C_11
REMARK    6  A    between atoms: C_14  and  C_15
REMARK    7  A    between atoms: C_18  and  C_19
REMARK    8  A    between atoms: C_19  and  O_21
REMARK    9  A    between atoms: C_23  and  C_24
REMARK                            x       y       z     vdW  Elec       q    Type
REMARK                         _______ _______ _______ _____ _____    ______ ____
ROOT
ATOM      1  C   UNK     1       2.317   6.349  19.304  0.00  0.00    +0.000 A 
ATOM      2  C   UNK     1       1.846   5.870  20.503  0.00  0.00    +0.000 A 
ATOM      3  N   UNK     1       1.154   6.784  21.272  0.00  0.00    +0.000 NA
ATOM      4  C   UNK     1       1.111   7.956  20.670  0.00  0.00    +0.000 A 
ATOM      5  S   UNK     1       1.935   8.007  19.171  0.00  0.00    +0.000 S 
ENDROOT
BRANCH   1  11
ATOM      6  C   UNK     1       5.695   4.737  15.965  0.00  0.00    +0.000 A 
ATOM      7  C   UNK     1       6.576   5.834  16.080  0.00  0.00    +0.000 A 
ATOM      8  C   UNK     1       6.331   6.907  16.929  0.00  0.00    +0.000 A 
ATOM      9  C   UNK     1       5.177   6.948  17.708  0.00  0.00    +0.000 A 
ATOM     10  C   UNK     1       4.268   5.879  17.641  0.00  0.00    +0.000 A 
ATOM     11  C   UNK     1       3.052   5.529  18.293  0.00  0.00    +0.000 A 
ATOM     12  N   UNK     1       2.617   4.322  17.912  0.00  0.00    +0.000 NA
ATOM     13  N   UNK     1       3.498   3.946  16.970  0.00  0.00    +0.000 N 
ATOM     14  C   UNK     1       4.545   4.817  16.782  0.00  0.00    +0.000 A 
ATOM     15  H   UNK     1       3.349   3.060  16.500  0.00  0.00    +0.000 HD
BRANCH   7  16
ATOM     16  O   UNK     1       7.756   5.920  15.390  0.00  0.00    +0.000 OA
ATOM     17  H   UNK     1       8.411   6.422  15.899  0.00  0.00    +0.000 HD
ENDBRANCH   7  16
BRANCH   6  18
ATOM     18  C   UNK     1       5.969   3.555  15.069  0.00  0.00    +0.000 C 
BRANCH  18  20
ATOM     19  C   UNK     1       6.658   3.815  12.660  0.00  0.00    +0.000 C 
ATOM     20  C   UNK     1       5.492   3.799  13.637  0.00  0.00    +0.000 C 
ENDBRANCH  18  20
ENDBRANCH   6  18
ENDBRANCH   1  11
BRANCH   4  21
ATOM     21  C   UNK     1       0.453   9.146  21.226  0.00  0.00    +0.000 A 
ATOM     22  C   UNK     1       0.425   9.395  22.604  0.00  0.00    +0.000 A 
ATOM     23  N   UNK     1      -0.122  10.492  23.206  0.00  0.00    +0.000 NA
ATOM     24  C   UNK     1      -0.674  11.423  22.380  0.00  0.00    +0.000 A 
ATOM     25  C   UNK     1      -0.696  11.276  20.993  0.00  0.00    +0.000 A 
ATOM     26  C   UNK     1      -0.134  10.122  20.403  0.00  0.00    +0.000 A 
ATOM     27  C   UNK     1      -0.188   9.964  18.907  0.00  0.00    +0.000 C 
BRANCH  24  28
ATOM     28  C   UNK     1      -1.273  12.641  23.062  0.00  0.00    +0.000 C 
ATOM     29  O   UNK     1      -0.606  13.555  23.480  0.00  0.00    +0.000 OA
BRANCH  28  30
ATOM     30  O   UNK     1      -2.635  12.639  23.175  0.00  0.00    +0.000 OA
ATOM     31  H   UNK     1      -3.011  12.093  23.895  0.00  0.00    +0.000 HD
ENDBRANCH  28  30
ENDBRANCH  24  28
ENDBRANCH   4  21
TORSDOF 7
ENDMDL
MODEL 9
REMARK VINA RESULT:      -7.3      1.812      2.376
REMARK  Name = 
REMARK  9 active torsions:
REMARK  status: ('A' for Active; 'I' for Inactive)
REMARK    1  A    between atoms: C_1  and  C_2
REMARK    2  A    between atoms: C_2  and  C_3
REMARK    3  A    between atoms: C_3  and  C_4
REMARK    4  A    between atoms: C_5  and  O_6
REMARK    5  A    between atoms: C_10  and  C_11
REMARK    6  A    between atoms: C_14  and  C_15
REMARK    7  A    between atoms: C_18  and  C_19
REMARK    8  A    between atoms: C_19  and  O_21
REMARK    9  A    between atoms: C_23  and  C_24
REMARK                            x       y       z     vdW  Elec       q    Type
REMARK                         _______ _______ _______ _____ _____    ______ ____
ROOT
ATOM      1  C   UNK     1       1.041   9.207  19.340  0.00  0.00    +0.000 A 
ATOM      2  C   UNK     1       1.407   8.301  20.305  0.00  0.00    +0.000 A 
ATOM      3  N   UNK     1       2.318   7.345  19.902  0.00  0.00    +0.000 NA
ATOM      4  C   UNK     1       2.632   7.512  18.633  0.00  0.00    +0.000 A 
ATOM      5  S   UNK     1       1.813   8.807  17.871  0.00  0.00    +0.000 S 
ENDROOT
BRANCH   1  11
ATOM      6  C   UNK     1      -2.075  12.526  21.444  0.00  0.00    +0.000 A 
ATOM      7  C   UNK     1      -1.994  12.018  22.758  0.00  0.00    +0.000 A 
ATOM      8  C   UNK     1      -1.219  10.912  23.088  0.00  0.00    +0.000 A 
ATOM      9  C   UNK     1      -0.485  10.242  22.112  0.00  0.00    +0.000 A 
ATOM     10  C   UNK     1      -0.521  10.709  20.788  0.00  0.00    +0.000 A 
ATOM     11  C   UNK     1       0.106  10.352  19.561  0.00  0.00    +0.000 A 
ATOM     12  N   UNK     1      -0.219  11.199  18.576  0.00  0.00    +0.000 NA
ATOM     13  N   UNK     1      -1.105  12.031  19.148  0.00  0.00    +0.000 N 
ATOM     14  C   UNK     1      -1.306  11.822  20.491  0.00  0.00    +0.000 A 
ATOM     15  H   UNK     1      -1.527  12.751  18.572  0.00  0.00    +0.000 HD
BRANCH   7  16
ATOM     16  O   UNK     1      -2.645  12.586  23.821  0.00  0.00    +0.000 OA
ATOM     17  H   UNK     1      -3.594  12.393  23.780  0.00  0.00    +0.000 HD
ENDBRANCH   7  16
BRANCH   6  18
ATOM     18  C   UNK     1      -2.890  13.743  21.084  0.00  0.00    +0.000 C 
BRANCH  18  20
ATOM     19  C   UNK     1      -3.011  16.010  22.177  0.00  0.00    +0.000 C 
ATOM     20  C   UNK     1      -2.142  15.043  21.386  0.00  0.00    +0.000 C 
ENDBRANCH  18  20
ENDBRANCH   6  18
ENDBRANCH   1  11
BRANCH   4  21
ATOM     21  C   UNK     1       3.572   6.657  17.896  0.00  0.00    +0.000 A 
ATOM     22  C   UNK     1       4.821   7.130  17.472  0.00  0.00    +0.000 A 
ATOM     23  N   UNK     1       5.773   6.398  16.823  0.00  0.00    +0.000 NA
ATOM     24  C   UNK     1       5.475   5.091  16.586  0.00  0.00    +0.000 A 
ATOM     25  C   UNK     1       4.262   4.517  16.970  0.00  0.00    +0.000 A 
ATOM     26  C   UNK     1       3.292   5.306  17.627  0.00  0.00    +0.000 A 
ATOM     27  C   UNK     1       1.978   4.681  18.012  0.00  0.00    +0.000 C 
BRANCH  24  28
ATOM     28  C   UNK     1       6.546   4.286  15.869  0.00  0.00    +0.000 C 
ATOM     29  O   UNK     1       6.317   3.603  14.903  0.00  0.00    +0.000 OA
BRANCH  28  30
ATOM     30  O   UNK     1       7.803   4.386  16.394  0.00  0.00    +0.000 OA
ATOM     31  H   UNK     1       8.000   5.200  16.902  0.00  0.00    +0.000 HD
ENDBRANCH  28  30
ENDBRANCH  24  28
ENDBRANCH   4  21
TORSDOF 7
ENDMDL
