MODEL 1
REMARK VINA RESULT:      -7.1      0.000      0.000
REMARK  Name = 
REMARK  6 active torsions:
REMARK  status: ('A' for Active; 'I' for Inactive)
REMARK    1  A    between atoms: C_1  and  N_2
REMARK    2  A    between atoms: N_2  and  C_3
REMARK    3  A    between atoms: N_2  and  C_4
REMARK    4  A    between atoms: C_8  and  C_9
REMARK    5  A    between atoms: N_11  and  C_12
REMARK    6  A    between atoms: C_12  and  C_13
REMARK                            x       y       z     vdW  Elec       q    Type
REMARK                         _______ _______ _______ _____ _____    ______ ____
ROOT
ATOM      1  C   UNL     1       3.392   4.174  18.800  0.00  0.00    +0.000 A 
ATOM      2  C   UNL     1       3.877   5.023  17.778  0.00  0.00    +0.000 A 
ATOM      3  F   UNL     1       4.728   4.562  16.845  0.00  0.00    +0.000 F 
ATOM      4  C   UNL     1       3.497   6.367  17.646  0.00  0.00    +0.000 A 
ATOM      5  C   UNL     1       2.607   6.928  18.556  0.00  0.00    +0.000 A 
ATOM      6  C   UNL     1       2.108   6.134  19.585  0.00  0.00    +0.000 A 
ATOM      7  C   UNL     1       2.501   4.799  19.699  0.00  0.00    +0.000 A 
ATOM      8  F   UNL     1       1.979   4.122  20.737  0.00  0.00    +0.000 F 
ENDROOT
BRANCH   5   9
ATOM      9  C   UNL     1       2.121   8.329  18.458  0.00  0.00    +0.000 C 
ATOM     10  O   UNL     1       2.287   8.945  17.411  0.00  0.00    +0.000 OA
ATOM     11  N   UNL     1       1.473   8.850  19.553  0.00  0.00    +0.000 N 
ATOM     12  H   UNL     1       1.284   8.282  20.364  0.00  0.00    +0.000 HD
BRANCH  11  13
ATOM     13  C   UNL     1       0.941  10.197  19.546  0.00  0.00    +0.000 C 
BRANCH  13  14
ATOM     14  C   UNL     1       0.175  10.475  20.813  0.00  0.00    +0.000 A 
ATOM     15  C   UNL     1       0.273   9.594  21.899  0.00  0.00    +0.000 A 
ATOM     16  C   UNL     1      -0.450   9.831  23.069  0.00  0.00    +0.000 A 
ATOM     17  C   UNL     1      -1.281  10.945  23.162  0.00  0.00    +0.000 A 
ATOM     18  C   UNL     1      -1.389  11.825  22.086  0.00  0.00    +0.000 A 
ATOM     19  C   UNL     1      -0.666  11.591  20.916  0.00  0.00    +0.000 A 
ENDBRANCH  13  14
ENDBRANCH  11  13
ENDBRANCH   5   9
BRANCH   1  21
ATOM     20  C   UNL     1       3.137   1.792  18.114  0.00  0.00    +0.000 C 
ATOM     21  N   UNL     1       3.766   2.831  18.921  0.00  0.00    +0.000 N 
ATOM     22  C   UNL     1       4.581   2.395  20.051  0.00  0.00    +0.000 C 
ENDBRANCH   1  21
TORSDOF 4
ENDMDL
MODEL 2
REMARK VINA RESULT:      -7.0      2.919      7.985
REMARK  Name = 
REMARK  6 active torsions:
REMARK  status: ('A' for Active; 'I' for Inactive)
REMARK    1  A    between atoms: C_1  and  N_2
REMARK    2  A    between atoms: N_2  and  C_3
REMARK    3  A    between atoms: N_2  and  C_4
REMARK    4  A    between atoms: C_8  and  C_9
REMARK    5  A    between atoms: N_11  and  C_12
REMARK    6  A    between atoms: C_12  and  C_13
REMARK                            x       y       z     vdW  Elec       q    Type
REMARK                         _______ _______ _______ _____ _____    ______ ____
ROOT
ATOM      1  C   UNL     1       1.030   9.417  19.755  0.00  0.00    +0.000 A 
ATOM      2  C   UNL     1       1.139   8.426  20.760  0.00  0.00    +0.000 A 
ATOM      3  F   UNL     1       0.568   8.601  21.964  0.00  0.00    +0.000 F 
ATOM      4  C   UNL     1       1.808   7.207  20.573  0.00  0.00    +0.000 A 
ATOM      5  C   UNL     1       2.416   6.931  19.353  0.00  0.00    +0.000 A 
ATOM      6  C   UNL     1       2.344   7.878  18.336  0.00  0.00    +0.000 A 
ATOM      7  C   UNL     1       1.675   9.086  18.543  0.00  0.00    +0.000 A 
ATOM      8  F   UNL     1       1.678   9.942  17.506  0.00  0.00    +0.000 F 
ENDROOT
BRANCH   5   9
ATOM      9  C   UNL     1       3.105   5.646  19.062  0.00  0.00    +0.000 C 
ATOM     10  O   UNL     1       2.431   4.653  18.809  0.00  0.00    +0.000 OA
ATOM     11  N   UNL     1       4.479   5.653  19.059  0.00  0.00    +0.000 N 
ATOM     12  H   UNL     1       4.995   6.510  19.191  0.00  0.00    +0.000 HD
BRANCH  11  13
ATOM     13  C   UNL     1       5.240   4.459  18.762  0.00  0.00    +0.000 C 
BRANCH  13  14
ATOM     14  C   UNL     1       5.748   4.487  17.343  0.00  0.00    +0.000 A 
ATOM     15  C   UNL     1       4.903   4.112  16.290  0.00  0.00    +0.000 A 
ATOM     16  C   UNL     1       5.370   4.114  14.974  0.00  0.00    +0.000 A 
ATOM     17  C   UNL     1       6.686   4.481  14.702  0.00  0.00    +0.000 A 
ATOM     18  C   UNL     1       7.535   4.851  15.743  0.00  0.00    +0.000 A 
ATOM     19  C   UNL     1       7.070   4.852  17.059  0.00  0.00    +0.000 A 
ENDBRANCH  13  14
ENDBRANCH  11  13
ENDBRANCH   5   9
BRANCH   1  21
ATOM     20  C   UNL     1      -1.015  10.812  19.470  0.00  0.00    +0.000 C 
ATOM     21  N   UNL     1       0.352  10.626  19.943  0.00  0.00    +0.000 N 
ATOM     22  C   UNL     1       1.084  11.822  20.353  0.00  0.00    +0.000 C 
ENDBRANCH   1  21
TORSDOF 4
ENDMDL
MODEL 3
REMARK VINA RESULT:      -7.0      1.808      2.981
REMARK  Name = 
REMARK  6 active torsions:
REMARK  status: ('A' for Active; 'I' for Inactive)
REMARK    1  A    between atoms: C_1  and  N_2
REMARK    2  A    between atoms: N_2  and  C_3
REMARK    3  A    between atoms: N_2  and  C_4
REMARK    4  A    between atoms: C_8  and  C_9
REMARK    5  A    between atoms: N_11  and  C_12
REMARK    6  A    between atoms: C_12  and  C_13
REMARK                            x       y       z     vdW  Elec       q    Type
REMARK                         _______ _______ _______ _____ _____    ______ ____
ROOT
ATOM      1  C   UNL     1       2.804   4.228  19.310  0.00  0.00    +0.000 A 
ATOM      2  C   UNL     1       2.423   5.154  20.310  0.00  0.00    +0.000 A 
ATOM      3  F   UNL     1       2.313   4.775  21.595  0.00  0.00    +0.000 F 
ATOM      4  C   UNL     1       2.164   6.508  20.050  0.00  0.00    +0.000 A 
ATOM      5  C   UNL     1       2.268   6.996  18.751  0.00  0.00    +0.000 A 
ATOM      6  C   UNL     1       2.631   6.121  17.731  0.00  0.00    +0.000 A 
ATOM      7  C   UNL     1       2.883   4.776  18.012  0.00  0.00    +0.000 A 
ATOM      8  F   UNL     1       3.208   4.010  16.956  0.00  0.00    +0.000 F 
ENDROOT
BRANCH   5   9
ATOM      9  C   UNL     1       2.054   8.425  18.401  0.00  0.00    +0.000 C 
ATOM     10  O   UNL     1       2.554   8.867  17.372  0.00  0.00    +0.000 OA
ATOM     11  N   UNL     1       1.268   9.171  19.246  0.00  0.00    +0.000 N 
ATOM     12  H   UNL     1       0.808   8.748  20.037  0.00  0.00    +0.000 HD
BRANCH  11  13
ATOM     13  C   UNL     1       0.981  10.564  18.977  0.00  0.00    +0.000 C 
BRANCH  13  14
ATOM     14  C   UNL     1      -0.483  10.759  18.677  0.00  0.00    +0.000 A 
ATOM     15  C   UNL     1      -1.099  10.002  17.671  0.00  0.00    +0.000 A 
ATOM     16  C   UNL     1      -2.448  10.191  17.369  0.00  0.00    +0.000 A 
ATOM     17  C   UNL     1      -3.191  11.143  18.064  0.00  0.00    +0.000 A 
ATOM     18  C   UNL     1      -2.587  11.905  19.063  0.00  0.00    +0.000 A 
ATOM     19  C   UNL     1      -1.239  11.716  19.368  0.00  0.00    +0.000 A 
ENDBRANCH  13  14
ENDBRANCH  11  13
ENDBRANCH   5   9
BRANCH   1  21
ATOM     20  C   UNL     1       4.417   2.424  19.903  0.00  0.00    +0.000 C 
ATOM     21  N   UNL     1       3.071   2.881  19.577  0.00  0.00    +0.000 N 
ATOM     22  C   UNL     1       2.079   1.858  19.255  0.00  0.00    +0.000 C 
ENDBRANCH   1  21
TORSDOF 4
ENDMDL
MODEL 4
REMARK VINA RESULT:      -7.0      1.844      2.487
REMARK  Name = 
REMARK  6 active torsions:
REMARK  status: ('A' for Active; 'I' for Inactive)
REMARK    1  A    between atoms: C_1  and  N_2
REMARK    2  A    between atoms: N_2  and  C_3
REMARK    3  A    between atoms: N_2  and  C_4
REMARK    4  A    between atoms: C_8  and  C_9
REMARK    5  A    between atoms: N_11  and  C_12
REMARK    6  A    between atoms: C_12  and  C_13
REMARK                            x       y       z     vdW  Elec       q    Type
REMARK                         _______ _______ _______ _____ _____    ______ ____
ROOT
ATOM      1  C   UNL     1       2.712   4.326  19.303  0.00  0.00    +0.000 A 
ATOM      2  C   UNL     1       2.857   4.819  17.984  0.00  0.00    +0.000 A 
ATOM      3  F   UNL     1       3.165   3.994  16.970  0.00  0.00    +0.000 F 
ATOM      4  C   UNL     1       2.667   6.166  17.640  0.00  0.00    +0.000 A 
ATOM      5  C   UNL     1       2.330   7.092  18.622  0.00  0.00    +0.000 A 
ATOM      6  C   UNL     1       2.186   6.656  19.935  0.00  0.00    +0.000 A 
ATOM      7  C   UNL     1       2.380   5.311  20.258  0.00  0.00    +0.000 A 
ATOM      8  F   UNL     1       2.235   4.994  21.557  0.00  0.00    +0.000 F 
ENDROOT
BRANCH   5   9
ATOM      9  C   UNL     1       2.069   8.526  18.330  0.00  0.00    +0.000 C 
ATOM     10  O   UNL     1       2.556   9.026  17.322  0.00  0.00    +0.000 OA
ATOM     11  N   UNL     1       1.257   9.210  19.203  0.00  0.00    +0.000 N 
ATOM     12  H   UNL     1       0.810   8.739  19.975  0.00  0.00    +0.000 HD
BRANCH  11  13
ATOM     13  C   UNL     1       0.924  10.602  18.991  0.00  0.00    +0.000 C 
BRANCH  13  14
ATOM     14  C   UNL     1      -0.540  10.759  18.670  0.00  0.00    +0.000 A 
ATOM     15  C   UNL     1      -1.128   9.964  17.677  0.00  0.00    +0.000 A 
ATOM     16  C   UNL     1      -2.478  10.117  17.356  0.00  0.00    +0.000 A 
ATOM     17  C   UNL     1      -3.249  11.069  18.019  0.00  0.00    +0.000 A 
ATOM     18  C   UNL     1      -2.673  11.867  19.006  0.00  0.00    +0.000 A 
ATOM     19  C   UNL     1      -1.324  11.715  19.329  0.00  0.00    +0.000 A 
ENDBRANCH  13  14
ENDBRANCH  11  13
ENDBRANCH   5   9
BRANCH   1  21
ATOM     20  C   UNL     1       4.203   2.454  19.998  0.00  0.00    +0.000 C 
ATOM     21  N   UNL     1       2.891   2.979  19.640  0.00  0.00    +0.000 N 
ATOM     22  C   UNL     1       1.837   2.007  19.362  0.00  0.00    +0.000 C 
ENDBRANCH   1  21
TORSDOF 4
ENDMDL
MODEL 5
REMARK VINA RESULT:      -7.0      2.926      7.967
REMARK  Name = 
REMARK  6 active torsions:
REMARK  status: ('A' for Active; 'I' for Inactive)
REMARK    1  A    between atoms: C_1  and  N_2
REMARK    2  A    between atoms: N_2  and  C_3
REMARK    3  A    between atoms: N_2  and  C_4
REMARK    4  A    between atoms: C_8  and  C_9
REMARK    5  A    between atoms: N_11  and  C_12
REMARK    6  A    between atoms: C_12  and  C_13
REMARK                            x       y       z     vdW  Elec       q    Type
REMARK                         _______ _______ _______ _____ _____    ______ ____
ROOT
ATOM      1  C   UNL     1       0.954   9.632  19.776  0.00  0.00    +0.000 A 
ATOM      2  C   UNL     1       1.063   8.670  20.808  0.00  0.00    +0.000 A 
ATOM      3  F   UNL     1       0.523   8.894  22.018  0.00  0.00    +0.000 F 
ATOM      4  C   UNL     1       1.699   7.431  20.644  0.00  0.00    +0.000 A 
ATOM      5  C   UNL     1       2.274   7.104  19.420  0.00  0.00    +0.000 A 
ATOM      6  C   UNL     1       2.201   8.022  18.376  0.00  0.00    +0.000 A 
ATOM      7  C   UNL     1       1.564   9.251  18.561  0.00  0.00    +0.000 A 
ATOM      8  F   UNL     1       1.563  10.075  17.499  0.00  0.00    +0.000 F 
ENDROOT
BRANCH   5   9
ATOM      9  C   UNL     1       2.927   5.795  19.153  0.00  0.00    +0.000 C 
ATOM     10  O   UNL     1       3.355   5.140  20.097  0.00  0.00    +0.000 OA
ATOM     11  N   UNL     1       2.982   5.372  17.847  0.00  0.00    +0.000 N 
ATOM     12  H   UNL     1       2.544   5.902  17.110  0.00  0.00    +0.000 HD
BRANCH  11  13
ATOM     13  C   UNL     1       3.575   4.101  17.489  0.00  0.00    +0.000 C 
BRANCH  13  14
ATOM     14  C   UNL     1       4.885   4.305  16.773  0.00  0.00    +0.000 A 
ATOM     15  C   UNL     1       6.061   4.506  17.507  0.00  0.00    +0.000 A 
ATOM     16  C   UNL     1       7.276   4.718  16.854  0.00  0.00    +0.000 A 
ATOM     17  C   UNL     1       7.324   4.738  15.461  0.00  0.00    +0.000 A 
ATOM     18  C   UNL     1       6.159   4.544  14.721  0.00  0.00    +0.000 A 
ATOM     19  C   UNL     1       4.944   4.330  15.373  0.00  0.00    +0.000 A 
ENDBRANCH  13  14
ENDBRANCH  11  13
ENDBRANCH   5   9
BRANCH   1  21
ATOM     20  C   UNL     1      -1.020  11.102  19.390  0.00  0.00    +0.000 C 
ATOM     21  N   UNL     1       0.308  10.862  19.941  0.00  0.00    +0.000 N 
ATOM     22  C   UNL     1       1.054  12.026  20.414  0.00  0.00    +0.000 C 
ENDBRANCH   1  21
TORSDOF 4
ENDMDL
MODEL 6
REMARK VINA RESULT:      -7.0      0.669      1.436
REMARK  Name = 
REMARK  6 active torsions:
REMARK  status: ('A' for Active; 'I' for Inactive)
REMARK    1  A    between atoms: C_1  and  N_2
REMARK    2  A    between atoms: N_2  and  C_3
REMARK    3  A    between atoms: N_2  and  C_4
REMARK    4  A    between atoms: C_8  and  C_9
REMARK    5  A    between atoms: N_11  and  C_12
REMARK    6  A    between atoms: C_12  and  C_13
REMARK                            x       y       z     vdW  Elec       q    Type
REMARK                         _______ _______ _______ _____ _____    ______ ____
ROOT
ATOM      1  C   UNL     1       2.917   4.288  19.231  0.00  0.00    +0.000 A 
ATOM      2  C   UNL     1       3.105   4.934  17.986  0.00  0.00    +0.000 A 
ATOM      3  F   UNL     1       3.550   4.253  16.917  0.00  0.00    +0.000 F 
ATOM      4  C   UNL     1       2.824   6.292  17.771  0.00  0.00    +0.000 A 
ATOM      5  C   UNL     1       2.344   7.074  18.816  0.00  0.00    +0.000 A 
ATOM      6  C   UNL     1       2.151   6.486  20.062  0.00  0.00    +0.000 A 
ATOM      7  C   UNL     1       2.438   5.133  20.256  0.00  0.00    +0.000 A 
ATOM      8  F   UNL     1       2.235   4.664  21.500  0.00  0.00    +0.000 F 
ENDROOT
BRANCH   5   9
ATOM      9  C   UNL     1       1.981   8.507  18.658  0.00  0.00    +0.000 C 
ATOM     10  O   UNL     1       2.315   9.096  17.635  0.00  0.00    +0.000 OA
ATOM     11  N   UNL     1       1.252   9.089  19.667  0.00  0.00    +0.000 N 
ATOM     12  H   UNL     1       0.928   8.547  20.453  0.00  0.00    +0.000 HD
BRANCH  11  13
ATOM     13  C   UNL     1       0.829  10.471  19.593  0.00  0.00    +0.000 C 
BRANCH  13  14
ATOM     14  C   UNL     1      -0.025  10.833  20.780  0.00  0.00    +0.000 A 
ATOM     15  C   UNL     1      -0.780  12.014  20.767  0.00  0.00    +0.000 A 
ATOM     16  C   UNL     1      -1.557  12.369  21.870  0.00  0.00    +0.000 A 
ATOM     17  C   UNL     1      -1.580  11.552  22.999  0.00  0.00    +0.000 A 
ATOM     18  C   UNL     1      -0.830  10.378  23.024  0.00  0.00    +0.000 A 
ATOM     19  C   UNL     1      -0.054  10.020  21.922  0.00  0.00    +0.000 A 
ENDBRANCH  13  14
ENDBRANCH  11  13
ENDBRANCH   5   9
BRANCH   1  21
ATOM     20  C   UNL     1       4.503   2.477  19.873  0.00  0.00    +0.000 C 
ATOM     21  N   UNL     1       3.188   2.931  19.437  0.00  0.00    +0.000 N 
ATOM     22  C   UNL     1       2.260   1.915  18.948  0.00  0.00    +0.000 C 
ENDBRANCH   1  21
TORSDOF 4
ENDMDL
MODEL 7
REMARK VINA RESULT:      -7.0      2.907      7.772
REMARK  Name = 
REMARK  6 active torsions:
REMARK  status: ('A' for Active; 'I' for Inactive)
REMARK    1  A    between atoms: C_1  and  N_2
REMARK    2  A    between atoms: N_2  and  C_3
REMARK    3  A    between atoms: N_2  and  C_4
REMARK    4  A    between atoms: C_8  and  C_9
REMARK    5  A    between atoms: N_11  and  C_12
REMARK    6  A    between atoms: C_12  and  C_13
REMARK                            x       y       z     vdW  Elec       q    Type
REMARK                         _______ _______ _______ _____ _____    ______ ____
ROOT
ATOM      1  C   UNL     1       0.982   9.564  19.852  0.00  0.00    +0.000 A 
ATOM      2  C   UNL     1       1.542   9.291  18.581  0.00  0.00    +0.000 A 
ATOM      3  F   UNL     1       1.473  10.195  17.590  0.00  0.00    +0.000 F 
ATOM      4  C   UNL     1       2.215   8.099  18.275  0.00  0.00    +0.000 A 
ATOM      5  C   UNL     1       2.349   7.110  19.244  0.00  0.00    +0.000 A 
ATOM      6  C   UNL     1       1.808   7.329  20.507  0.00  0.00    +0.000 A 
ATOM      7  C   UNL     1       1.140   8.522  20.791  0.00  0.00    +0.000 A 
ATOM      8  F   UNL     1       0.637   8.629  22.034  0.00  0.00    +0.000 F 
ENDROOT
BRANCH   5   9
ATOM      9  C   UNL     1       3.086   5.840  19.011  0.00  0.00    +0.000 C 
ATOM     10  O   UNL     1       3.744   5.358  19.927  0.00  0.00    +0.000 OA
ATOM     11  N   UNL     1       2.959   5.254  17.775  0.00  0.00    +0.000 N 
ATOM     12  H   UNL     1       2.342   5.640  17.077  0.00  0.00    +0.000 HD
BRANCH  11  13
ATOM     13  C   UNL     1       3.617   4.003  17.461  0.00  0.00    +0.000 C 
BRANCH  13  14
ATOM     14  C   UNL     1       4.919   4.250  16.744  0.00  0.00    +0.000 A 
ATOM     15  C   UNL     1       6.104   4.407  17.476  0.00  0.00    +0.000 A 
ATOM     16  C   UNL     1       7.311   4.658  16.823  0.00  0.00    +0.000 A 
ATOM     17  C   UNL     1       7.344   4.762  15.435  0.00  0.00    +0.000 A 
ATOM     18  C   UNL     1       6.172   4.612  14.697  0.00  0.00    +0.000 A 
ATOM     19  C   UNL     1       4.963   4.359  15.347  0.00  0.00    +0.000 A 
ENDBRANCH  13  14
ENDBRANCH  11  13
ENDBRANCH   5   9
BRANCH   1  21
ATOM     20  C   UNL     1      -1.040  11.011  19.700  0.00  0.00    +0.000 C 
ATOM     21  N   UNL     1       0.321  10.759  20.156  0.00  0.00    +0.000 N 
ATOM     22  C   UNL     1       1.069  11.898  20.683  0.00  0.00    +0.000 C 
ENDBRANCH   1  21
TORSDOF 4
ENDMDL
MODEL 8
REMARK VINA RESULT:      -6.9      1.945      2.622
REMARK  Name = 
REMARK  6 active torsions:
REMARK  status: ('A' for Active; 'I' for Inactive)
REMARK    1  A    between atoms: C_1  and  N_2
REMARK    2  A    between atoms: N_2  and  C_3
REMARK    3  A    between atoms: N_2  and  C_4
REMARK    4  A    between atoms: C_8  and  C_9
REMARK    5  A    between atoms: N_11  and  C_12
REMARK    6  A    between atoms: C_12  and  C_13
REMARK                            x       y       z     vdW  Elec       q    Type
REMARK                         _______ _______ _______ _____ _____    ______ ____
ROOT
ATOM      1  C   UNL     1       2.908   4.350  19.235  0.00  0.00    +0.000 A 
ATOM      2  C   UNL     1       3.195   5.438  18.376  0.00  0.00    +0.000 A 
ATOM      3  F   UNL     1       3.876   5.252  17.233  0.00  0.00    +0.000 F 
ATOM      4  C   UNL     1       2.777   6.753  18.631  0.00  0.00    +0.000 A 
ATOM      5  C   UNL     1       2.052   7.038  19.783  0.00  0.00    +0.000 A 
ATOM      6  C   UNL     1       1.753   6.003  20.664  0.00  0.00    +0.000 A 
ATOM      7  C   UNL     1       2.180   4.701  20.392  0.00  0.00    +0.000 A 
ATOM      8  F   UNL     1       1.857   3.775  21.312  0.00  0.00    +0.000 F 
ENDROOT
BRANCH   5   9
ATOM      9  C   UNL     1       1.537   8.396  20.103  0.00  0.00    +0.000 C 
ATOM     10  O   UNL     1       1.326   8.692  21.274  0.00  0.00    +0.000 OA
ATOM     11  N   UNL     1       1.356   9.265  19.054  0.00  0.00    +0.000 N 
ATOM     12  H   UNL     1       1.620   9.009  18.115  0.00  0.00    +0.000 HD
BRANCH  11  13
ATOM     13  C   UNL     1       0.882  10.616  19.266  0.00  0.00    +0.000 C 
BRANCH  13  14
ATOM     14  C   UNL     1      -0.534  10.770  18.775  0.00  0.00    +0.000 A 
ATOM     15  C   UNL     1      -1.388  11.703  19.379  0.00  0.00    +0.000 A 
ATOM     16  C   UNL     1      -2.708  11.837  18.946  0.00  0.00    +0.000 A 
ATOM     17  C   UNL     1      -3.188  11.035  17.913  0.00  0.00    +0.000 A 
ATOM     18  C   UNL     1      -2.349  10.101  17.309  0.00  0.00    +0.000 A 
ATOM     19  C   UNL     1      -1.028   9.966  17.738  0.00  0.00    +0.000 A 
ENDBRANCH  13  14
ENDBRANCH  11  13
ENDBRANCH   5   9
BRANCH   1  21
ATOM     20  C   UNL     1       2.574   2.182  18.053  0.00  0.00    +0.000 C 
ATOM     21  N   UNL     1       3.317   3.039  18.970  0.00  0.00    +0.000 N 
ATOM     22  C   UNL     1       4.320   2.397  19.816  0.00  0.00    +0.000 C 
ENDBRANCH   1  21
TORSDOF 4
ENDMDL
MODEL 9
REMARK VINA RESULT:      -6.9      1.753      3.042
REMARK  Name = 
REMARK  6 active torsions:
REMARK  status: ('A' for Active; 'I' for Inactive)
REMARK    1  A    between atoms: C_1  and  N_2
REMARK    2  A    between atoms: N_2  and  C_3
REMARK    3  A    between atoms: N_2  and  C_4
REMARK    4  A    between atoms: C_8  and  C_9
REMARK    5  A    between atoms: N_11  and  C_12
REMARK    6  A    between atoms: C_12  and  C_13
REMARK                            x       y       z     vdW  Elec       q    Type
REMARK                         _______ _______ _______ _____ _____    ______ ____
ROOT
ATOM      1  C   UNL     1       2.853   4.254  19.286  0.00  0.00    +0.000 A 
ATOM      2  C   UNL     1       2.226   5.110  20.222  0.00  0.00    +0.000 A 
ATOM      3  F   UNL     1       1.880   4.662  21.441  0.00  0.00    +0.000 F 
ATOM      4  C   UNL     1       1.950   6.462  19.968  0.00  0.00    +0.000 A 
ATOM      5  C   UNL     1       2.288   7.019  18.739  0.00  0.00    +0.000 A 
ATOM      6  C   UNL     1       2.899   6.215  17.782  0.00  0.00    +0.000 A 
ATOM      7  C   UNL     1       3.163   4.871  18.054  0.00  0.00    +0.000 A 
ATOM      8  F   UNL     1       3.739   4.174  17.058  0.00  0.00    +0.000 F 
ENDROOT
BRANCH   5   9
ATOM      9  C   UNL     1       2.069   8.452  18.410  0.00  0.00    +0.000 C 
ATOM     10  O   UNL     1       2.546   8.904  17.374  0.00  0.00    +0.000 OA
ATOM     11  N   UNL     1       1.306   9.191  19.281  0.00  0.00    +0.000 N 
ATOM     12  H   UNL     1       0.863   8.760  20.079  0.00  0.00    +0.000 HD
BRANCH  11  13
ATOM     13  C   UNL     1       1.015  10.587  19.035  0.00  0.00    +0.000 C 
BRANCH  13  14
ATOM     14  C   UNL     1      -0.440  10.779  18.693  0.00  0.00    +0.000 A 
ATOM     15  C   UNL     1      -1.198  11.741  19.373  0.00  0.00    +0.000 A 
ATOM     16  C   UNL     1      -2.552  11.911  19.081  0.00  0.00    +0.000 A 
ATOM     17  C   UNL     1      -3.161  11.116  18.112  0.00  0.00    +0.000 A 
ATOM     18  C   UNL     1      -2.417  10.153  17.434  0.00  0.00    +0.000 A 
ATOM     19  C   UNL     1      -1.063   9.982  17.723  0.00  0.00    +0.000 A 
ENDBRANCH  13  14
ENDBRANCH  11  13
ENDBRANCH   5   9
BRANCH   1  21
ATOM     20  C   UNL     1       4.473   2.477  19.940  0.00  0.00    +0.000 C 
ATOM     21  N   UNL     1       3.137   2.910  19.548  0.00  0.00    +0.000 N 
ATOM     22  C   UNL     1       2.187   1.870  19.159  0.00  0.00    +0.000 C 
ENDBRANCH   1  21
TORSDOF 4
ENDMDL
