MODEL 1
REMARK VINA RESULT:      -6.8      0.000      0.000
REMARK  Name = 
REMARK  7 active torsions:
REMARK  status: ('A' for Active; 'I' for Inactive)
REMARK    1  A    between atoms: C_1  and  C_2
REMARK    2  A    between atoms: C_2  and  C_3
REMARK    3  A    between atoms: C_3  and  C_4
REMARK    4  A    between atoms: C_4  and  C_5
REMARK    5  A    between atoms: C_5  and  N_6
REMARK    6  A    between atoms: N_8  and  C_9
REMARK    7  A    between atoms: N_11  and  C_12
REMARK                            x       y       z     vdW  Elec       q    Type
REMARK                         _______ _______ _______ _____ _____    ______ ____
ROOT
ATOM      1  N   UNL     1       3.957   3.572  17.529  0.00  0.00    +0.000 NA
ATOM      2  C   UNL     1       4.602   3.283  18.607  0.00  0.00    +0.000 C 
ATOM      3  N   UNL     1       4.061   2.585  19.655  0.00  0.00    +0.000 N 
ATOM      4  N   UNL     1       5.899   3.716  18.782  0.00  0.00    +0.000 N 
ATOM      5  H   UNL     1       3.123   2.242  19.526  0.00  0.00    +0.000 HD
ATOM      6  H   UNL     1       6.468   3.271  19.489  0.00  0.00    +0.000 HD
ENDROOT
BRANCH   4   7
ATOM      7  C   UNL     1       6.468   4.911  18.295  0.00  0.00    +0.000 A 
ATOM      8  C   UNL     1       7.385   5.606  19.093  0.00  0.00    +0.000 A 
ATOM      9  C   UNL     1       7.930   6.816  18.660  0.00  0.00    +0.000 A 
ATOM     10  C   UNL     1       7.558   7.297  17.417  0.00  0.00    +0.000 A 
ATOM     11  N   UNL     1       6.712   6.650  16.595  0.00  0.00    +0.000 NA
ATOM     12  C   UNL     1       6.201   5.475  17.045  0.00  0.00    +0.000 A 
ENDBRANCH   4   7
BRANCH   3  13
ATOM     13  C   UNL     1       4.875   1.855  20.581  0.00  0.00    +0.000 C 
ATOM     14  N   UNL     1       5.508   1.265  21.352  0.00  0.00    +0.000 NA
ENDBRANCH   3  13
BRANCH   1  15
ATOM     15  C   UNL     1       2.587   3.145  17.295  0.00  0.00    +0.000 C 
BRANCH  15  16
ATOM     16  C   UNL     1       1.647   4.116  18.016  0.00  0.00    +0.000 C 
BRANCH  16  17
ATOM     17  C   UNL     1       0.780   3.406  19.062  0.00  0.00    +0.000 C 
BRANCH  17  19
ATOM     18  C   UNL     1       1.231   2.874  21.474  0.00  0.00    +0.000 C 
ATOM     19  C   UNL     1       0.976   3.983  20.463  0.00  0.00    +0.000 C 
ENDBRANCH  17  19
ENDBRANCH  16  17
ENDBRANCH  15  16
ENDBRANCH   1  15
TORSDOF 6
ENDMDL
MODEL 2
REMARK VINA RESULT:      -6.8      1.039      1.332
REMARK  Name = 
REMARK  7 active torsions:
REMARK  status: ('A' for Active; 'I' for Inactive)
REMARK    1  A    between atoms: C_1  and  C_2
REMARK    2  A    between atoms: C_2  and  C_3
REMARK    3  A    between atoms: C_3  and  C_4
REMARK    4  A    between atoms: C_4  and  C_5
REMARK    5  A    between atoms: C_5  and  N_6
REMARK    6  A    between atoms: N_8  and  C_9
REMARK    7  A    between atoms: N_11  and  C_12
REMARK                            x       y       z     vdW  Elec       q    Type
REMARK                         _______ _______ _______ _____ _____    ______ ____
ROOT
ATOM      1  N   UNL     1       3.591   2.910  17.918  0.00  0.00    +0.000 NA
ATOM      2  C   UNL     1       4.356   2.781  18.949  0.00  0.00    +0.000 C 
ATOM      3  N   UNL     1       3.984   2.131  20.097  0.00  0.00    +0.000 N 
ATOM      4  N   UNL     1       5.612   3.346  18.961  0.00  0.00    +0.000 N 
ATOM      5  H   UNL     1       3.077   1.693  20.088  0.00  0.00    +0.000 HD
ATOM      6  H   UNL     1       6.285   3.022  19.642  0.00  0.00    +0.000 HD
ENDROOT
BRANCH   4   7
ATOM      7  C   UNL     1       6.012   4.541  18.326  0.00  0.00    +0.000 A 
ATOM      8  C   UNL     1       5.136   5.633  18.312  0.00  0.00    +0.000 A 
ATOM      9  C   UNL     1       5.482   6.812  17.651  0.00  0.00    +0.000 A 
ATOM     10  C   UNL     1       6.717   6.881  17.032  0.00  0.00    +0.000 A 
ATOM     11  N   UNL     1       7.611   5.876  17.049  0.00  0.00    +0.000 NA
ATOM     12  C   UNL     1       7.245   4.743  17.702  0.00  0.00    +0.000 A 
ENDBRANCH   4   7
BRANCH   3  13
ATOM     13  C   UNL     1       4.946   1.567  20.995  0.00  0.00    +0.000 C 
ATOM     14  N   UNL     1       5.749   1.115  21.699  0.00  0.00    +0.000 NA
ENDBRANCH   3  13
BRANCH   1  15
ATOM     15  C   UNL     1       2.256   2.338  17.855  0.00  0.00    +0.000 C 
BRANCH  15  16
ATOM     16  C   UNL     1       1.248   3.412  18.276  0.00  0.00    +0.000 C 
BRANCH  16  17
ATOM     17  C   UNL     1       0.630   3.113  19.647  0.00  0.00    +0.000 C 
BRANCH  17  19
ATOM     18  C   UNL     1       1.836   5.257  20.148  0.00  0.00    +0.000 C 
ATOM     19  C   UNL     1       1.201   4.010  20.745  0.00  0.00    +0.000 C 
ENDBRANCH  17  19
ENDBRANCH  16  17
ENDBRANCH  15  16
ENDBRANCH   1  15
TORSDOF 6
ENDMDL
MODEL 3
REMARK VINA RESULT:      -6.8      2.828      6.066
REMARK  Name = 
REMARK  7 active torsions:
REMARK  status: ('A' for Active; 'I' for Inactive)
REMARK    1  A    between atoms: C_1  and  C_2
REMARK    2  A    between atoms: C_2  and  C_3
REMARK    3  A    between atoms: C_3  and  C_4
REMARK    4  A    between atoms: C_4  and  C_5
REMARK    5  A    between atoms: C_5  and  N_6
REMARK    6  A    between atoms: N_8  and  C_9
REMARK    7  A    between atoms: N_11  and  C_12
REMARK                            x       y       z     vdW  Elec       q    Type
REMARK                         _______ _______ _______ _____ _____    ______ ____
ROOT
ATOM      1  N   UNL     1       5.061   4.898  16.218  0.00  0.00    +0.000 NA
ATOM      2  C   UNL     1       5.659   4.784  17.355  0.00  0.00    +0.000 C 
ATOM      3  N   UNL     1       7.021   4.817  17.506  0.00  0.00    +0.000 N 
ATOM      4  N   UNL     1       4.933   4.572  18.507  0.00  0.00    +0.000 N 
ATOM      5  H   UNL     1       7.558   4.996  16.673  0.00  0.00    +0.000 HD
ATOM      6  H   UNL     1       5.376   4.748  19.399  0.00  0.00    +0.000 HD
ENDROOT
BRANCH   4   7
ATOM      7  C   UNL     1       3.723   3.859  18.630  0.00  0.00    +0.000 A 
ATOM      8  C   UNL     1       2.528   4.567  18.806  0.00  0.00    +0.000 A 
ATOM      9  C   UNL     1       1.320   3.889  18.979  0.00  0.00    +0.000 A 
ATOM     10  C   UNL     1       1.332   2.506  18.948  0.00  0.00    +0.000 A 
ATOM     11  N   UNL     1       2.444   1.779  18.742  0.00  0.00    +0.000 NA
ATOM     12  C   UNL     1       3.603   2.469  18.576  0.00  0.00    +0.000 A 
ENDBRANCH   4   7
BRANCH   3  13
ATOM     13  C   UNL     1       7.637   5.187  18.744  0.00  0.00    +0.000 C 
ATOM     14  N   UNL     1       8.167   5.482  19.733  0.00  0.00    +0.000 NA
ENDBRANCH   3  13
BRANCH   1  15
ATOM     15  C   UNL     1       5.778   5.117  14.972  0.00  0.00    +0.000 C 
BRANCH  15  16
ATOM     16  C   UNL     1       5.902   3.776  14.242  0.00  0.00    +0.000 C 
BRANCH  16  17
ATOM     17  C   UNL     1       6.520   3.936  12.849  0.00  0.00    +0.000 C 
BRANCH  17  19
ATOM     18  C   UNL     1       4.455   3.231  11.606  0.00  0.00    +0.000 C 
ATOM     19  C   UNL     1       5.932   2.949  11.840  0.00  0.00    +0.000 C 
ENDBRANCH  17  19
ENDBRANCH  16  17
ENDBRANCH  15  16
ENDBRANCH   1  15
TORSDOF 6
ENDMDL
MODEL 4
REMARK VINA RESULT:      -6.8      3.110      6.458
REMARK  Name = 
REMARK  7 active torsions:
REMARK  status: ('A' for Active; 'I' for Inactive)
REMARK    1  A    between atoms: C_1  and  C_2
REMARK    2  A    between atoms: C_2  and  C_3
REMARK    3  A    between atoms: C_3  and  C_4
REMARK    4  A    between atoms: C_4  and  C_5
REMARK    5  A    between atoms: C_5  and  N_6
REMARK    6  A    between atoms: N_8  and  C_9
REMARK    7  A    between atoms: N_11  and  C_12
REMARK                            x       y       z     vdW  Elec       q    Type
REMARK                         _______ _______ _______ _____ _____    ______ ____
ROOT
ATOM      1  N   UNL     1       5.903   5.255  15.684  0.00  0.00    +0.000 NA
ATOM      2  C   UNL     1       6.276   6.062  16.618  0.00  0.00    +0.000 C 
ATOM      3  N   UNL     1       7.519   6.637  16.676  0.00  0.00    +0.000 N 
ATOM      4  N   UNL     1       5.428   6.361  17.662  0.00  0.00    +0.000 N 
ATOM      5  H   UNL     1       8.136   6.445  15.904  0.00  0.00    +0.000 HD
ATOM      6  H   UNL     1       5.622   7.177  18.227  0.00  0.00    +0.000 HD
ENDROOT
BRANCH   4   7
ATOM      7  C   UNL     1       4.463   5.512  18.243  0.00  0.00    +0.000 A 
ATOM      8  C   UNL     1       3.110   5.705  17.938  0.00  0.00    +0.000 A 
ATOM      9  C   UNL     1       2.128   4.913  18.532  0.00  0.00    +0.000 A 
ATOM     10  C   UNL     1       2.526   3.921  19.410  0.00  0.00    +0.000 A 
ATOM     11  N   UNL     1       3.813   3.667  19.708  0.00  0.00    +0.000 NA
ATOM     12  C   UNL     1       4.744   4.455  19.111  0.00  0.00    +0.000 A 
ENDBRANCH   4   7
BRANCH   3  13
ATOM     13  C   UNL     1       7.755   7.862  17.380  0.00  0.00    +0.000 C 
ATOM     14  N   UNL     1       7.966   8.836  17.972  0.00  0.00    +0.000 NA
ENDBRANCH   3  13
BRANCH   1  15
ATOM     15  C   UNL     1       6.758   4.901  14.563  0.00  0.00    +0.000 C 
BRANCH  15  16
ATOM     16  C   UNL     1       6.199   3.636  13.906  0.00  0.00    +0.000 C 
BRANCH  16  17
ATOM     17  C   UNL     1       6.366   3.658  12.382  0.00  0.00    +0.000 C 
BRANCH  17  19
ATOM     18  C   UNL     1       6.279   1.421  11.248  0.00  0.00    +0.000 C 
ATOM     19  C   UNL     1       5.471   2.632  11.689  0.00  0.00    +0.000 C 
ENDBRANCH  17  19
ENDBRANCH  16  17
ENDBRANCH  15  16
ENDBRANCH   1  15
TORSDOF 6
ENDMDL
MODEL 5
REMARK VINA RESULT:      -6.7      2.679      3.942
REMARK  Name = 
REMARK  7 active torsions:
REMARK  status: ('A' for Active; 'I' for Inactive)
REMARK    1  A    between atoms: C_1  and  C_2
REMARK    2  A    between atoms: C_2  and  C_3
REMARK    3  A    between atoms: C_3  and  C_4
REMARK    4  A    between atoms: C_4  and  C_5
REMARK    5  A    between atoms: C_5  and  N_6
REMARK    6  A    between atoms: N_8  and  C_9
REMARK    7  A    between atoms: N_11  and  C_12
REMARK                            x       y       z     vdW  Elec       q    Type
REMARK                         _______ _______ _______ _____ _____    ______ ____
ROOT
ATOM      1  N   UNL     1       3.155   3.712  17.724  0.00  0.00    +0.000 NA
ATOM      2  C   UNL     1       4.254   4.362  17.536  0.00  0.00    +0.000 C 
ATOM      3  N   UNL     1       5.486   3.767  17.454  0.00  0.00    +0.000 N 
ATOM      4  N   UNL     1       4.246   5.737  17.450  0.00  0.00    +0.000 N 
ATOM      5  H   UNL     1       5.498   2.760  17.490  0.00  0.00    +0.000 HD
ATOM      6  H   UNL     1       5.046   6.203  17.046  0.00  0.00    +0.000 HD
ENDROOT
BRANCH   4   7
ATOM      7  C   UNL     1       3.377   6.625  18.118  0.00  0.00    +0.000 A 
ATOM      8  C   UNL     1       2.955   7.789  17.465  0.00  0.00    +0.000 A 
ATOM      9  C   UNL     1       2.134   8.711  18.115  0.00  0.00    +0.000 A 
ATOM     10  C   UNL     1       1.733   8.435  19.410  0.00  0.00    +0.000 A 
ATOM     11  N   UNL     1       2.077   7.314  20.070  0.00  0.00    +0.000 NA
ATOM     12  C   UNL     1       2.875   6.436  19.407  0.00  0.00    +0.000 A 
ENDBRANCH   4   7
BRANCH   3  13
ATOM     13  C   UNL     1       6.582   4.385  16.771  0.00  0.00    +0.000 C 
ATOM     14  N   UNL     1       7.475   4.906  16.244  0.00  0.00    +0.000 NA
ENDBRANCH   3  13
BRANCH   1  15
ATOM     15  C   UNL     1       3.107   2.263  17.828  0.00  0.00    +0.000 C 
BRANCH  15  16
ATOM     16  C   UNL     1       2.040   1.885  18.859  0.00  0.00    +0.000 C 
BRANCH  16  17
ATOM     17  C   UNL     1       1.171   3.086  19.252  0.00  0.00    +0.000 C 
BRANCH  17  19
ATOM     18  C   UNL     1       2.332   2.929  21.473  0.00  0.00    +0.000 C 
ATOM     19  C   UNL     1       1.014   3.214  20.767  0.00  0.00    +0.000 C 
ENDBRANCH  17  19
ENDBRANCH  16  17
ENDBRANCH  15  16
ENDBRANCH   1  15
TORSDOF 6
ENDMDL
MODEL 6
REMARK VINA RESULT:      -6.7      1.061      1.375
REMARK  Name = 
REMARK  7 active torsions:
REMARK  status: ('A' for Active; 'I' for Inactive)
REMARK    1  A    between atoms: C_1  and  C_2
REMARK    2  A    between atoms: C_2  and  C_3
REMARK    3  A    between atoms: C_3  and  C_4
REMARK    4  A    between atoms: C_4  and  C_5
REMARK    5  A    between atoms: C_5  and  N_6
REMARK    6  A    between atoms: N_8  and  C_9
REMARK    7  A    between atoms: N_11  and  C_12
REMARK                            x       y       z     vdW  Elec       q    Type
REMARK                         _______ _______ _______ _____ _____    ______ ____
ROOT
ATOM      1  N   UNL     1       3.783   3.642  17.690  0.00  0.00    +0.000 NA
ATOM      2  C   UNL     1       4.515   3.296  18.694  0.00  0.00    +0.000 C 
ATOM      3  N   UNL     1       4.028   2.673  19.813  0.00  0.00    +0.000 N 
ATOM      4  N   UNL     1       5.863   3.585  18.708  0.00  0.00    +0.000 N 
ATOM      5  H   UNL     1       3.050   2.434  19.801  0.00  0.00    +0.000 HD
ATOM      6  H   UNL     1       6.459   3.088  19.355  0.00  0.00    +0.000 HD
ENDROOT
BRANCH   4   7
ATOM      7  C   UNL     1       6.497   4.704  18.130  0.00  0.00    +0.000 A 
ATOM      8  C   UNL     1       6.921   5.752  18.957  0.00  0.00    +0.000 A 
ATOM      9  C   UNL     1       7.508   6.894  18.413  0.00  0.00    +0.000 A 
ATOM     10  C   UNL     1       7.680   6.954  17.041  0.00  0.00    +0.000 A 
ATOM     11  N   UNL     1       7.326   5.961  16.205  0.00  0.00    +0.000 NA
ATOM     12  C   UNL     1       6.759   4.863  16.768  0.00  0.00    +0.000 A 
ENDBRANCH   4   7
BRANCH   3  13
ATOM     13  C   UNL     1       4.860   1.868  20.656  0.00  0.00    +0.000 C 
ATOM     14  N   UNL     1       5.518   1.229  21.366  0.00  0.00    +0.000 NA
ENDBRANCH   3  13
BRANCH   1  15
ATOM     15  C   UNL     1       2.357   3.366  17.626  0.00  0.00    +0.000 C 
BRANCH  15  16
ATOM     16  C   UNL     1       1.599   4.649  17.980  0.00  0.00    +0.000 C 
BRANCH  16  17
ATOM     17  C   UNL     1       2.531   5.863  18.062  0.00  0.00    +0.000 C 
BRANCH  17  19
ATOM     18  C   UNL     1       1.895   5.609  20.477  0.00  0.00    +0.000 C 
ATOM     19  C   UNL     1       2.465   6.549  19.426  0.00  0.00    +0.000 C 
ENDBRANCH  17  19
ENDBRANCH  16  17
ENDBRANCH  15  16
ENDBRANCH   1  15
TORSDOF 6
ENDMDL
MODEL 7
REMARK VINA RESULT:      -6.6      2.661      5.999
REMARK  Name = 
REMARK  7 active torsions:
REMARK  status: ('A' for Active; 'I' for Inactive)
REMARK    1  A    between atoms: C_1  and  C_2
REMARK    2  A    between atoms: C_2  and  C_3
REMARK    3  A    between atoms: C_3  and  C_4
REMARK    4  A    between atoms: C_4  and  C_5
REMARK    5  A    between atoms: C_5  and  N_6
REMARK    6  A    between atoms: N_8  and  C_9
REMARK    7  A    between atoms: N_11  and  C_12
REMARK                            x       y       z     vdW  Elec       q    Type
REMARK                         _______ _______ _______ _____ _____    ______ ____
ROOT
ATOM      1  N   UNL     1       4.663   5.333  16.662  0.00  0.00    +0.000 NA
ATOM      2  C   UNL     1       5.282   5.090  17.768  0.00  0.00    +0.000 C 
ATOM      3  N   UNL     1       6.647   5.092  17.893  0.00  0.00    +0.000 N 
ATOM      4  N   UNL     1       4.576   4.763  18.905  0.00  0.00    +0.000 N 
ATOM      5  H   UNL     1       7.169   5.355  17.073  0.00  0.00    +0.000 HD
ATOM      6  H   UNL     1       5.039   4.837  19.801  0.00  0.00    +0.000 HD
ENDROOT
BRANCH   4   7
ATOM      7  C   UNL     1       3.360   4.053  18.976  0.00  0.00    +0.000 A 
ATOM      8  C   UNL     1       3.271   2.789  18.380  0.00  0.00    +0.000 A 
ATOM      9  C   UNL     1       2.069   2.082  18.391  0.00  0.00    +0.000 A 
ATOM     10  C   UNL     1       0.977   2.651  19.022  0.00  0.00    +0.000 A 
ATOM     11  N   UNL     1       1.018   3.843  19.643  0.00  0.00    +0.000 NA
ATOM     12  C   UNL     1       2.204   4.505  19.616  0.00  0.00    +0.000 A 
ENDBRANCH   4   7
BRANCH   3  13
ATOM     13  C   UNL     1       7.292   5.321  19.150  0.00  0.00    +0.000 C 
ATOM     14  N   UNL     1       7.800   5.480  20.181  0.00  0.00    +0.000 NA
ENDBRANCH   3  13
BRANCH   1  15
ATOM     15  C   UNL     1       5.357   5.676  15.432  0.00  0.00    +0.000 C 
BRANCH  15  16
ATOM     16  C   UNL     1       5.306   4.468  14.492  0.00  0.00    +0.000 C 
BRANCH  16  17
ATOM     17  C   UNL     1       6.676   4.163  13.875  0.00  0.00    +0.000 C 
BRANCH  17  19
ATOM     18  C   UNL     1       5.193   3.227  12.078  0.00  0.00    +0.000 C 
ATOM     19  C   UNL     1       6.572   3.786  12.398  0.00  0.00    +0.000 C 
ENDBRANCH  17  19
ENDBRANCH  16  17
ENDBRANCH  15  16
ENDBRANCH   1  15
TORSDOF 6
ENDMDL
MODEL 8
REMARK VINA RESULT:      -6.6      2.451      6.550
REMARK  Name = 
REMARK  7 active torsions:
REMARK  status: ('A' for Active; 'I' for Inactive)
REMARK    1  A    between atoms: C_1  and  C_2
REMARK    2  A    between atoms: C_2  and  C_3
REMARK    3  A    between atoms: C_3  and  C_4
REMARK    4  A    between atoms: C_4  and  C_5
REMARK    5  A    between atoms: C_5  and  N_6
REMARK    6  A    between atoms: N_8  and  C_9
REMARK    7  A    between atoms: N_11  and  C_12
REMARK                            x       y       z     vdW  Elec       q    Type
REMARK                         _______ _______ _______ _____ _____    ______ ____
ROOT
ATOM      1  N   UNL     1       4.395   5.356  17.510  0.00  0.00    +0.000 NA
ATOM      2  C   UNL     1       3.522   6.239  17.860  0.00  0.00    +0.000 C 
ATOM      3  N   UNL     1       3.735   7.592  17.786  0.00  0.00    +0.000 N 
ATOM      4  N   UNL     1       2.308   5.851  18.383  0.00  0.00    +0.000 N 
ATOM      5  H   UNL     1       4.609   7.884  17.381  0.00  0.00    +0.000 HD
ATOM      6  H   UNL     1       1.551   6.521  18.402  0.00  0.00    +0.000 HD
ENDROOT
BRANCH   4   7
ATOM      7  C   UNL     1       2.049   4.713  19.174  0.00  0.00    +0.000 A 
ATOM      8  C   UNL     1       2.151   4.810  20.567  0.00  0.00    +0.000 A 
ATOM      9  C   UNL     1       1.948   3.690  21.374  0.00  0.00    +0.000 A 
ATOM     10  C   UNL     1       1.622   2.491  20.765  0.00  0.00    +0.000 A 
ATOM     11  N   UNL     1       1.472   2.352  19.436  0.00  0.00    +0.000 NA
ATOM     12  C   UNL     1       1.675   3.462  18.679  0.00  0.00    +0.000 A 
ENDBRANCH   4   7
BRANCH   3  13
ATOM     13  C   UNL     1       2.653   8.525  17.689  0.00  0.00    +0.000 C 
ATOM     14  N   UNL     1       1.786   9.288  17.579  0.00  0.00    +0.000 NA
ENDBRANCH   3  13
BRANCH   1  15
ATOM     15  C   UNL     1       5.693   5.710  16.958  0.00  0.00    +0.000 C 
BRANCH  15  16
ATOM     16  C   UNL     1       6.773   5.330  17.976  0.00  0.00    +0.000 C 
BRANCH  16  17
ATOM     17  C   UNL     1       7.560   6.553  18.460  0.00  0.00    +0.000 C 
BRANCH  17  19
ATOM     18  C   UNL     1       8.276   8.910  17.980  0.00  0.00    +0.000 C 
ATOM     19  C   UNL     1       7.562   7.683  17.433  0.00  0.00    +0.000 C 
ENDBRANCH  17  19
ENDBRANCH  16  17
ENDBRANCH  15  16
ENDBRANCH   1  15
TORSDOF 6
ENDMDL
MODEL 9
REMARK VINA RESULT:      -6.5      3.263      6.343
REMARK  Name = 
REMARK  7 active torsions:
REMARK  status: ('A' for Active; 'I' for Inactive)
REMARK    1  A    between atoms: C_1  and  C_2
REMARK    2  A    between atoms: C_2  and  C_3
REMARK    3  A    between atoms: C_3  and  C_4
REMARK    4  A    between atoms: C_4  and  C_5
REMARK    5  A    between atoms: C_5  and  N_6
REMARK    6  A    between atoms: N_8  and  C_9
REMARK    7  A    between atoms: N_11  and  C_12
REMARK                            x       y       z     vdW  Elec       q    Type
REMARK                         _______ _______ _______ _____ _____    ______ ____
ROOT
ATOM      1  N   UNL     1       5.598   4.358  15.807  0.00  0.00    +0.000 NA
ATOM      2  C   UNL     1       6.009   5.220  16.675  0.00  0.00    +0.000 C 
ATOM      3  N   UNL     1       7.269   5.762  16.672  0.00  0.00    +0.000 N 
ATOM      4  N   UNL     1       5.188   5.619  17.706  0.00  0.00    +0.000 N 
ATOM      5  H   UNL     1       7.867   5.496  15.907  0.00  0.00    +0.000 HD
ATOM      6  H   UNL     1       5.414   6.467  18.207  0.00  0.00    +0.000 HD
ENDROOT
BRANCH   4   7
ATOM      7  C   UNL     1       4.210   4.842  18.362  0.00  0.00    +0.000 A 
ATOM      8  C   UNL     1       4.617   3.835  19.246  0.00  0.00    +0.000 A 
ATOM      9  C   UNL     1       3.677   3.018  19.874  0.00  0.00    +0.000 A 
ATOM     10  C   UNL     1       2.336   3.242  19.617  0.00  0.00    +0.000 A 
ATOM     11  N   UNL     1       1.889   4.219  18.808  0.00  0.00    +0.000 NA
ATOM     12  C   UNL     1       2.831   4.998  18.214  0.00  0.00    +0.000 A 
ENDBRANCH   4   7
BRANCH   3  13
ATOM     13  C   UNL     1       7.551   7.027  17.281  0.00  0.00    +0.000 C 
ATOM     14  N   UNL     1       7.755   8.045  17.797  0.00  0.00    +0.000 NA
ENDBRANCH   3  13
BRANCH   1  15
ATOM     15  C   UNL     1       6.425   3.899  14.703  0.00  0.00    +0.000 C 
BRANCH  15  16
ATOM     16  C   UNL     1       5.600   3.974  13.415  0.00  0.00    +0.000 C 
BRANCH  16  17
ATOM     17  C   UNL     1       6.352   3.386  12.216  0.00  0.00    +0.000 C 
BRANCH  17  19
ATOM     18  C   UNL     1       6.532   1.164  11.062  0.00  0.00    +0.000 C 
ATOM     19  C   UNL     1       5.581   2.245  11.554  0.00  0.00    +0.000 C 
ENDBRANCH  17  19
ENDBRANCH  16  17
ENDBRANCH  15  16
ENDBRANCH   1  15
TORSDOF 6
ENDMDL
