MODEL 1
REMARK VINA RESULT:      -7.4      0.000      0.000
REMARK  Name = 
REMARK  11 active torsions:
REMARK  status: ('A' for Active; 'I' for Inactive)
REMARK    1  A    between atoms: C_1  and  C_2
REMARK    2  A    between atoms: C_2  and  C_4
REMARK    3  A    between atoms: C_7  and  N_8
REMARK    4  A    between atoms: C_9  and  C_11
REMARK    5  A    between atoms: C_11  and  N_12
REMARK    6  A    between atoms: N_12  and  C_13
REMARK    7  A    between atoms: C_13  and  C_14
REMARK    8  A    between atoms: C_14  and  C_15
REMARK    9  A    between atoms: C_14  and  N_21
REMARK   10  A    between atoms: N_21  and  C_22
REMARK   11  A    between atoms: N_21  and  C_23
REMARK                            x       y       z     vdW  Elec       q    Type
REMARK                         _______ _______ _______ _____ _____    ______ ____
ROOT
ATOM      1  C   UNL     1       4.603   3.627  19.092  0.00  0.00    +0.000 C 
ENDROOT
BRANCH   1   3
ATOM      2  N   UNL     1       3.559   5.790  19.589  0.00  0.00    +0.000 N 
ATOM      3  C   UNL     1       3.397   4.580  18.922  0.00  0.00    +0.000 C 
ATOM      4  O   UNL     1       2.428   4.294  18.224  0.00  0.00    +0.000 OA
ATOM      5  H   UNL     1       4.502   6.027  19.865  0.00  0.00    +0.000 HD
BRANCH   2   9
ATOM      6  C   UNL     1       1.200   9.300  19.390  0.00  0.00    +0.000 A 
ATOM      7  C   UNL     1       1.212   8.475  20.536  0.00  0.00    +0.000 A 
ATOM      8  C   UNL     1       1.871   7.245  20.579  0.00  0.00    +0.000 A 
ATOM      9  C   UNL     1       2.647   6.863  19.496  0.00  0.00    +0.000 A 
ATOM     10  C   UNL     1       2.609   7.637  18.325  0.00  0.00    +0.000 A 
ATOM     11  C   UNL     1       1.837   8.819  18.246  0.00  0.00    +0.000 A 
BRANCH   6  13
ATOM     12  C   UNL     1      -0.682  10.822  20.482  0.00  0.00    +0.000 C 
ATOM     13  C   UNL     1       0.398  10.567  19.477  0.00  0.00    +0.000 C 
ATOM     14  O   UNL     1       0.674  11.418  18.614  0.00  0.00    +0.000 OA
ENDBRANCH   6  13
ENDBRANCH   2   9
ENDBRANCH   1   3
BRANCH   1  15
ATOM     15  N   UNL     1       5.813   4.111  18.407  0.00  0.00    +0.000 NA
ATOM     16  H   UNL     1       6.555   3.421  18.567  0.00  0.00    +0.000 HD
BRANCH  15  17
ATOM     17  C   UNL     1       5.660   4.255  16.943  0.00  0.00    +0.000 C 
BRANCH  17  18
ATOM     18  C   UNL     1       6.747   5.098  16.174  0.00  0.00    +0.000 C 
BRANCH  18  19
ATOM     19  C   UNL     1       6.766   4.672  14.695  0.00  0.00    +0.000 A 
ATOM     20  C   UNL     1       7.677   5.223  13.777  0.00  0.00    +0.000 A 
ATOM     21  C   UNL     1       7.644   4.861  12.427  0.00  0.00    +0.000 A 
ATOM     22  C   UNL     1       6.703   3.943  11.967  0.00  0.00    +0.000 A 
ATOM     23  C   UNL     1       5.799   3.375  12.862  0.00  0.00    +0.000 A 
ATOM     24  C   UNL     1       5.836   3.731  14.216  0.00  0.00    +0.000 A 
ENDBRANCH  18  19
BRANCH  18  25
ATOM     25  N   UNL     1       6.559   6.572  16.363  0.00  0.00    +0.000 NA
ATOM     26  C   UNL     1       5.138   6.942  16.484  0.00  0.00    +0.000 C 
ATOM     27  C   UNL     1       7.244   7.067  17.565  0.00  0.00    +0.000 C 
ENDBRANCH  18  25
ENDBRANCH  17  18
ENDBRANCH  15  17
ENDBRANCH   1  15
TORSDOF 8
ENDMDL
MODEL 2
REMARK VINA RESULT:      -7.4      0.866      1.606
REMARK  Name = 
REMARK  11 active torsions:
REMARK  status: ('A' for Active; 'I' for Inactive)
REMARK    1  A    between atoms: C_1  and  C_2
REMARK    2  A    between atoms: C_2  and  C_4
REMARK    3  A    between atoms: C_7  and  N_8
REMARK    4  A    between atoms: C_9  and  C_11
REMARK    5  A    between atoms: C_11  and  N_12
REMARK    6  A    between atoms: N_12  and  C_13
REMARK    7  A    between atoms: C_13  and  C_14
REMARK    8  A    between atoms: C_14  and  C_15
REMARK    9  A    between atoms: C_14  and  N_21
REMARK   10  A    between atoms: N_21  and  C_22
REMARK   11  A    between atoms: N_21  and  C_23
REMARK                            x       y       z     vdW  Elec       q    Type
REMARK                         _______ _______ _______ _____ _____    ______ ____
ROOT
ATOM      1  C   UNL     1       3.476   3.186  18.022  0.00  0.00    +0.000 C 
ENDROOT
BRANCH   1   3
ATOM      2  N   UNL     1       3.263   5.444  18.953  0.00  0.00    +0.000 N 
ATOM      3  C   UNL     1       2.578   4.406  18.329  0.00  0.00    +0.000 C 
ATOM      4  O   UNL     1       1.396   4.450  18.001  0.00  0.00    +0.000 OA
ATOM      5  H   UNL     1       4.271   5.416  18.892  0.00  0.00    +0.000 HD
BRANCH   2   9
ATOM      6  C   UNL     1       1.112   9.008  19.723  0.00  0.00    +0.000 A 
ATOM      7  C   UNL     1       1.774   8.790  18.495  0.00  0.00    +0.000 A 
ATOM      8  C   UNL     1       2.600   7.688  18.264  0.00  0.00    +0.000 A 
ATOM      9  C   UNL     1       2.688   6.702  19.235  0.00  0.00    +0.000 A 
ATOM     10  C   UNL     1       2.085   6.921  20.484  0.00  0.00    +0.000 A 
ATOM     11  C   UNL     1       1.352   8.099  20.753  0.00  0.00    +0.000 A 
BRANCH   6  13
ATOM     12  C   UNL     1      -0.845  10.629  18.950  0.00  0.00    +0.000 C 
ATOM     13  C   UNL     1       0.304  10.269  19.840  0.00  0.00    +0.000 C 
ATOM     14  O   UNL     1       0.674  11.043  20.740  0.00  0.00    +0.000 OA
ENDBRANCH   6  13
ENDBRANCH   2   9
ENDBRANCH   1   3
BRANCH   1  15
ATOM     15  N   UNL     1       4.869   3.561  17.729  0.00  0.00    +0.000 NA
ATOM     16  H   UNL     1       5.428   2.701  17.731  0.00  0.00    +0.000 HD
BRANCH  15  17
ATOM     17  C   UNL     1       5.056   4.199  16.408  0.00  0.00    +0.000 C 
BRANCH  17  18
ATOM     18  C   UNL     1       6.508   4.684  16.029  0.00  0.00    +0.000 C 
BRANCH  18  19
ATOM     19  C   UNL     1       6.697   4.574  14.505  0.00  0.00    +0.000 A 
ATOM     20  C   UNL     1       5.962   3.660  13.732  0.00  0.00    +0.000 A 
ATOM     21  C   UNL     1       6.185   3.540  12.357  0.00  0.00    +0.000 A 
ATOM     22  C   UNL     1       7.145   4.328  11.728  0.00  0.00    +0.000 A 
ATOM     23  C   UNL     1       7.877   5.250  12.474  0.00  0.00    +0.000 A 
ATOM     24  C   UNL     1       7.648   5.378  13.850  0.00  0.00    +0.000 A 
ENDBRANCH  18  19
BRANCH  18  25
ATOM     25  N   UNL     1       6.807   6.049  16.566  0.00  0.00    +0.000 NA
ATOM     26  C   UNL     1       5.596   6.877  16.691  0.00  0.00    +0.000 C 
ATOM     27  C   UNL     1       7.439   5.995  17.892  0.00  0.00    +0.000 C 
ENDBRANCH  18  25
ENDBRANCH  17  18
ENDBRANCH  15  17
ENDBRANCH   1  15
TORSDOF 8
ENDMDL
MODEL 3
REMARK VINA RESULT:      -7.1      1.086      1.458
REMARK  Name = 
REMARK  11 active torsions:
REMARK  status: ('A' for Active; 'I' for Inactive)
REMARK    1  A    between atoms: C_1  and  C_2
REMARK    2  A    between atoms: C_2  and  C_4
REMARK    3  A    between atoms: C_7  and  N_8
REMARK    4  A    between atoms: C_9  and  C_11
REMARK    5  A    between atoms: C_11  and  N_12
REMARK    6  A    between atoms: N_12  and  C_13
REMARK    7  A    between atoms: C_13  and  C_14
REMARK    8  A    between atoms: C_14  and  C_15
REMARK    9  A    between atoms: C_14  and  N_21
REMARK   10  A    between atoms: N_21  and  C_22
REMARK   11  A    between atoms: N_21  and  C_23
REMARK                            x       y       z     vdW  Elec       q    Type
REMARK                         _______ _______ _______ _____ _____    ______ ____
ROOT
ATOM      1  C   UNL     1       3.191   3.145  17.671  0.00  0.00    +0.000 C 
ENDROOT
BRANCH   1   3
ATOM      2  N   UNL     1       3.186   5.451  18.504  0.00  0.00    +0.000 N 
ATOM      3  C   UNL     1       2.389   4.348  18.220  0.00  0.00    +0.000 C 
ATOM      4  O   UNL     1       1.167   4.323  18.335  0.00  0.00    +0.000 OA
ATOM      5  H   UNL     1       4.107   5.458  18.088  0.00  0.00    +0.000 HD
BRANCH   2   9
ATOM      6  C   UNL     1       1.213   9.010  19.671  0.00  0.00    +0.000 A 
ATOM      7  C   UNL     1       1.768   8.856  18.381  0.00  0.00    +0.000 A 
ATOM      8  C   UNL     1       2.540   7.751  18.015  0.00  0.00    +0.000 A 
ATOM      9  C   UNL     1       2.675   6.702  18.911  0.00  0.00    +0.000 A 
ATOM     10  C   UNL     1       2.180   6.854  20.216  0.00  0.00    +0.000 A 
ATOM     11  C   UNL     1       1.507   8.030  20.618  0.00  0.00    +0.000 A 
BRANCH   6  13
ATOM     12  C   UNL     1      -0.276  11.066  18.887  0.00  0.00    +0.000 C 
ATOM     13  C   UNL     1       0.456  10.281  19.932  0.00  0.00    +0.000 C 
ATOM     14  O   UNL     1       0.493  10.677  21.110  0.00  0.00    +0.000 OA
ENDBRANCH   6  13
ENDBRANCH   2   9
ENDBRANCH   1   3
BRANCH   1  15
ATOM     15  N   UNL     1       4.629   3.431  17.537  0.00  0.00    +0.000 NA
ATOM     16  H   UNL     1       5.125   2.533  17.546  0.00  0.00    +0.000 HD
BRANCH  15  17
ATOM     17  C   UNL     1       4.991   4.117  16.279  0.00  0.00    +0.000 C 
BRANCH  17  18
ATOM     18  C   UNL     1       6.518   4.417  16.023  0.00  0.00    +0.000 C 
BRANCH  18  19
ATOM     19  C   UNL     1       6.791   4.407  14.508  0.00  0.00    +0.000 A 
ATOM     20  C   UNL     1       7.701   5.297  13.914  0.00  0.00    +0.000 A 
ATOM     21  C   UNL     1       7.897   5.307  12.529  0.00  0.00    +0.000 A 
ATOM     22  C   UNL     1       7.187   4.430  11.712  0.00  0.00    +0.000 A 
ATOM     23  C   UNL     1       6.289   3.531  12.282  0.00  0.00    +0.000 A 
ATOM     24  C   UNL     1       6.099   3.514  13.670  0.00  0.00    +0.000 A 
ENDBRANCH  18  19
BRANCH  18  25
ATOM     25  N   UNL     1       6.968   5.677  16.697  0.00  0.00    +0.000 NA
ATOM     26  C   UNL     1       5.882   6.665  16.815  0.00  0.00    +0.000 C 
ATOM     27  C   UNL     1       7.481   5.427  18.051  0.00  0.00    +0.000 C 
ENDBRANCH  18  25
ENDBRANCH  17  18
ENDBRANCH  15  17
ENDBRANCH   1  15
TORSDOF 8
ENDMDL
MODEL 4
REMARK VINA RESULT:      -7.1      3.180      5.934
REMARK  Name = 
REMARK  11 active torsions:
REMARK  status: ('A' for Active; 'I' for Inactive)
REMARK    1  A    between atoms: C_1  and  C_2
REMARK    2  A    between atoms: C_2  and  C_4
REMARK    3  A    between atoms: C_7  and  N_8
REMARK    4  A    between atoms: C_9  and  C_11
REMARK    5  A    between atoms: C_11  and  N_12
REMARK    6  A    between atoms: N_12  and  C_13
REMARK    7  A    between atoms: C_13  and  C_14
REMARK    8  A    between atoms: C_14  and  C_15
REMARK    9  A    between atoms: C_14  and  N_21
REMARK   10  A    between atoms: N_21  and  C_22
REMARK   11  A    between atoms: N_21  and  C_23
REMARK                            x       y       z     vdW  Elec       q    Type
REMARK                         _______ _______ _______ _____ _____    ______ ____
ROOT
ATOM      1  C   UNL     1       2.133   9.006  17.959  0.00  0.00    +0.000 C 
ENDROOT
BRANCH   1   3
ATOM      2  N   UNL     1      -0.089  10.006  17.691  0.00  0.00    +0.000 N 
ATOM      3  C   UNL     1       0.832   9.526  18.615  0.00  0.00    +0.000 C 
ATOM      4  O   UNL     1       0.638   9.463  19.825  0.00  0.00    +0.000 OA
ATOM      5  H   UNL     1       0.052   9.727  16.729  0.00  0.00    +0.000 HD
BRANCH   2   9
ATOM      6  C   UNL     1      -4.001  11.511  18.291  0.00  0.00    +0.000 A 
ATOM      7  C   UNL     1      -2.876  12.090  18.920  0.00  0.00    +0.000 A 
ATOM      8  C   UNL     1      -1.598  11.534  18.849  0.00  0.00    +0.000 A 
ATOM      9  C   UNL     1      -1.391  10.432  18.033  0.00  0.00    +0.000 A 
ATOM     10  C   UNL     1      -2.500   9.806  17.442  0.00  0.00    +0.000 A 
ATOM     11  C   UNL     1      -3.811  10.303  17.620  0.00  0.00    +0.000 A 
BRANCH   6  13
ATOM     12  C   UNL     1      -6.006  12.322  19.834  0.00  0.00    +0.000 C 
ATOM     13  C   UNL     1      -5.321  12.194  18.507  0.00  0.00    +0.000 C 
ATOM     14  O   UNL     1      -5.850  12.644  17.476  0.00  0.00    +0.000 OA
ENDBRANCH   6  13
ENDBRANCH   2   9
ENDBRANCH   1   3
BRANCH   1  15
ATOM     15  N   UNL     1       2.404   7.592  18.272  0.00  0.00    +0.000 NA
ATOM     16  H   UNL     1       1.651   7.034  17.855  0.00  0.00    +0.000 HD
BRANCH  15  17
ATOM     17  C   UNL     1       3.679   7.087  17.719  0.00  0.00    +0.000 C 
BRANCH  17  18
ATOM     18  C   UNL     1       4.218   5.711  18.267  0.00  0.00    +0.000 C 
BRANCH  18  19
ATOM     19  C   UNL     1       3.040   4.888  18.819  0.00  0.00    +0.000 A 
ATOM     20  C   UNL     1       2.736   4.859  20.191  0.00  0.00    +0.000 A 
ATOM     21  C   UNL     1       1.693   4.066  20.679  0.00  0.00    +0.000 A 
ATOM     22  C   UNL     1       0.936   3.286  19.809  0.00  0.00    +0.000 A 
ATOM     23  C   UNL     1       1.212   3.309  18.443  0.00  0.00    +0.000 A 
ATOM     24  C   UNL     1       2.251   4.110  17.952  0.00  0.00    +0.000 A 
ENDBRANCH  18  19
BRANCH  18  25
ATOM     25  N   UNL     1       5.028   4.973  17.246  0.00  0.00    +0.000 NA
ATOM     26  C   UNL     1       5.228   5.760  16.018  0.00  0.00    +0.000 C 
ATOM     27  C   UNL     1       6.358   4.609  17.754  0.00  0.00    +0.000 C 
ENDBRANCH  18  25
ENDBRANCH  17  18
ENDBRANCH  15  17
ENDBRANCH   1  15
TORSDOF 8
ENDMDL
MODEL 5
REMARK VINA RESULT:      -6.9      3.173      6.146
REMARK  Name = 
REMARK  11 active torsions:
REMARK  status: ('A' for Active; 'I' for Inactive)
REMARK    1  A    between atoms: C_1  and  C_2
REMARK    2  A    between atoms: C_2  and  C_4
REMARK    3  A    between atoms: C_7  and  N_8
REMARK    4  A    between atoms: C_9  and  C_11
REMARK    5  A    between atoms: C_11  and  N_12
REMARK    6  A    between atoms: N_12  and  C_13
REMARK    7  A    between atoms: C_13  and  C_14
REMARK    8  A    between atoms: C_14  and  C_15
REMARK    9  A    between atoms: C_14  and  N_21
REMARK   10  A    between atoms: N_21  and  C_22
REMARK   11  A    between atoms: N_21  and  C_23
REMARK                            x       y       z     vdW  Elec       q    Type
REMARK                         _______ _______ _______ _____ _____    ______ ____
ROOT
ATOM      1  C   UNL     1       1.358   9.214  17.859  0.00  0.00    +0.000 C 
ENDROOT
BRANCH   1   3
ATOM      2  N   UNL     1      -0.254  10.009  19.526  0.00  0.00    +0.000 N 
ATOM      3  C   UNL     1       0.910  10.327  18.835  0.00  0.00    +0.000 C 
ATOM      4  O   UNL     1       1.560  11.355  19.001  0.00  0.00    +0.000 OA
ATOM      5  H   UNL     1      -0.519   9.034  19.534  0.00  0.00    +0.000 HD
BRANCH   2   9
ATOM      6  C   UNL     1      -2.211  12.064  22.669  0.00  0.00    +0.000 A 
ATOM      7  C   UNL     1      -2.437  12.390  21.313  0.00  0.00    +0.000 A 
ATOM      8  C   UNL     1      -1.707  11.824  20.265  0.00  0.00    +0.000 A 
ATOM      9  C   UNL     1      -0.801  10.813  20.549  0.00  0.00    +0.000 A 
ATOM     10  C   UNL     1      -0.519  10.511  21.891  0.00  0.00    +0.000 A 
ATOM     11  C   UNL     1      -1.173  11.177  22.952  0.00  0.00    +0.000 A 
BRANCH   6  13
ATOM     12  C   UNL     1      -2.736  14.179  24.188  0.00  0.00    +0.000 C 
ATOM     13  C   UNL     1      -3.036  12.800  23.686  0.00  0.00    +0.000 C 
ATOM     14  O   UNL     1      -4.009  12.164  24.126  0.00  0.00    +0.000 OA
ENDBRANCH   6  13
ENDBRANCH   2   9
ENDBRANCH   1   3
BRANCH   1  15
ATOM     15  N   UNL     1       2.667   8.638  18.213  0.00  0.00    +0.000 NA
ATOM     16  H   UNL     1       2.712   8.579  19.236  0.00  0.00    +0.000 HD
BRANCH  15  17
ATOM     17  C   UNL     1       2.886   7.274  17.687  0.00  0.00    +0.000 C 
BRANCH  17  18
ATOM     18  C   UNL     1       3.611   6.236  18.627  0.00  0.00    +0.000 C 
BRANCH  18  19
ATOM     19  C   UNL     1       2.629   5.106  18.985  0.00  0.00    +0.000 A 
ATOM     20  C   UNL     1       2.246   4.133  18.046  0.00  0.00    +0.000 A 
ATOM     21  C   UNL     1       1.314   3.144  18.375  0.00  0.00    +0.000 A 
ATOM     22  C   UNL     1       0.746   3.108  19.647  0.00  0.00    +0.000 A 
ATOM     23  C   UNL     1       1.121   4.056  20.597  0.00  0.00    +0.000 A 
ATOM     24  C   UNL     1       2.061   5.041  20.270  0.00  0.00    +0.000 A 
ENDBRANCH  18  19
BRANCH  18  25
ATOM     25  N   UNL     1       4.895   5.740  18.039  0.00  0.00    +0.000 NA
ATOM     26  C   UNL     1       5.584   6.775  17.249  0.00  0.00    +0.000 C 
ATOM     27  C   UNL     1       5.835   5.281  19.071  0.00  0.00    +0.000 C 
ENDBRANCH  18  25
ENDBRANCH  17  18
ENDBRANCH  15  17
ENDBRANCH   1  15
TORSDOF 8
ENDMDL
MODEL 6
REMARK VINA RESULT:      -6.9      2.539      8.637
REMARK  Name = 
REMARK  11 active torsions:
REMARK  status: ('A' for Active; 'I' for Inactive)
REMARK    1  A    between atoms: C_1  and  C_2
REMARK    2  A    between atoms: C_2  and  C_4
REMARK    3  A    between atoms: C_7  and  N_8
REMARK    4  A    between atoms: C_9  and  C_11
REMARK    5  A    between atoms: C_11  and  N_12
REMARK    6  A    between atoms: N_12  and  C_13
REMARK    7  A    between atoms: C_13  and  C_14
REMARK    8  A    between atoms: C_14  and  C_15
REMARK    9  A    between atoms: C_14  and  N_21
REMARK   10  A    between atoms: N_21  and  C_22
REMARK   11  A    between atoms: N_21  and  C_23
REMARK                            x       y       z     vdW  Elec       q    Type
REMARK                         _______ _______ _______ _____ _____    ______ ____
ROOT
ATOM      1  C   UNL     1       1.480   6.296  20.530  0.00  0.00    +0.000 C 
ENDROOT
BRANCH   1   3
ATOM      2  N   UNL     1       2.726   6.025  18.436  0.00  0.00    +0.000 N 
ATOM      3  C   UNL     1       2.712   5.722  19.793  0.00  0.00    +0.000 C 
ATOM      4  O   UNL     1       3.599   5.108  20.379  0.00  0.00    +0.000 OA
ATOM      5  H   UNL     1       2.120   6.777  18.138  0.00  0.00    +0.000 HD
BRANCH   2   9
ATOM      6  C   UNL     1       5.655   5.216  15.488  0.00  0.00    +0.000 A 
ATOM      7  C   UNL     1       4.888   4.186  16.077  0.00  0.00    +0.000 A 
ATOM      8  C   UNL     1       4.015   4.407  17.144  0.00  0.00    +0.000 A 
ATOM      9  C   UNL     1       3.797   5.707  17.574  0.00  0.00    +0.000 A 
ATOM     10  C   UNL     1       4.586   6.740  17.044  0.00  0.00    +0.000 A 
ATOM     11  C   UNL     1       5.559   6.489  16.049  0.00  0.00    +0.000 A 
BRANCH   6  13
ATOM     12  C   UNL     1       6.286   3.790  13.338  0.00  0.00    +0.000 C 
ATOM     13  C   UNL     1       6.594   4.813  14.387  0.00  0.00    +0.000 C 
ATOM     14  O   UNL     1       7.699   5.382  14.411  0.00  0.00    +0.000 OA
ENDBRANCH   6  13
ENDBRANCH   2   9
ENDBRANCH   1   3
BRANCH   1  15
ATOM     15  N   UNL     1       1.716   7.644  21.073  0.00  0.00    +0.000 NA
ATOM     16  H   UNL     1       2.389   8.112  20.457  0.00  0.00    +0.000 HD
BRANCH  15  17
ATOM     17  C   UNL     1       0.507   8.493  21.123  0.00  0.00    +0.000 C 
BRANCH  17  18
ATOM     18  C   UNL     1       0.711  10.046  21.307  0.00  0.00    +0.000 C 
BRANCH  18  19
ATOM     19  C   UNL     1       0.015  10.789  20.152  0.00  0.00    +0.000 A 
ATOM     20  C   UNL     1      -0.920  10.151  19.319  0.00  0.00    +0.000 A 
ATOM     21  C   UNL     1      -1.504  10.828  18.244  0.00  0.00    +0.000 A 
ATOM     22  C   UNL     1      -1.164  12.153  17.979  0.00  0.00    +0.000 A 
ATOM     23  C   UNL     1      -0.249  12.808  18.800  0.00  0.00    +0.000 A 
ATOM     24  C   UNL     1       0.330  12.133  19.882  0.00  0.00    +0.000 A 
ENDBRANCH  18  19
BRANCH  18  25
ATOM     25  N   UNL     1       0.278  10.518  22.660  0.00  0.00    +0.000 NA
ATOM     26  C   UNL     1      -1.054  11.145  22.633  0.00  0.00    +0.000 C 
ATOM     27  C   UNL     1       0.226   9.422  23.637  0.00  0.00    +0.000 C 
ENDBRANCH  18  25
ENDBRANCH  17  18
ENDBRANCH  15  17
ENDBRANCH   1  15
TORSDOF 8
ENDMDL
MODEL 7
REMARK VINA RESULT:      -6.9      4.021      8.556
REMARK  Name = 
REMARK  11 active torsions:
REMARK  status: ('A' for Active; 'I' for Inactive)
REMARK    1  A    between atoms: C_1  and  C_2
REMARK    2  A    between atoms: C_2  and  C_4
REMARK    3  A    between atoms: C_7  and  N_8
REMARK    4  A    between atoms: C_9  and  C_11
REMARK    5  A    between atoms: C_11  and  N_12
REMARK    6  A    between atoms: N_12  and  C_13
REMARK    7  A    between atoms: C_13  and  C_14
REMARK    8  A    between atoms: C_14  and  C_15
REMARK    9  A    between atoms: C_14  and  N_21
REMARK   10  A    between atoms: N_21  and  C_22
REMARK   11  A    between atoms: N_21  and  C_23
REMARK                            x       y       z     vdW  Elec       q    Type
REMARK                         _______ _______ _______ _____ _____    ______ ____
ROOT
ATOM      1  C   UNL     1       0.579   9.764  22.373  0.00  0.00    +0.000 C 
ENDROOT
BRANCH   1   3
ATOM      2  N   UNL     1       1.720   8.190  20.879  0.00  0.00    +0.000 N 
ATOM      3  C   UNL     1       0.490   8.551  21.417  0.00  0.00    +0.000 C 
ATOM      4  O   UNL     1      -0.563   7.955  21.211  0.00  0.00    +0.000 OA
ATOM      5  H   UNL     1       2.539   8.549  21.350  0.00  0.00    +0.000 HD
BRANCH   2   9
ATOM      6  C   UNL     1       2.733   4.726  18.665  0.00  0.00    +0.000 A 
ATOM      7  C   UNL     1       2.827   6.020  18.106  0.00  0.00    +0.000 A 
ATOM      8  C   UNL     1       2.373   7.165  18.764  0.00  0.00    +0.000 A 
ATOM      9  C   UNL     1       1.915   7.051  20.068  0.00  0.00    +0.000 A 
ATOM     10  C   UNL     1       1.760   5.772  20.625  0.00  0.00    +0.000 A 
ATOM     11  C   UNL     1       2.107   4.606  19.905  0.00  0.00    +0.000 A 
BRANCH   6  13
ATOM     12  C   UNL     1       2.702   2.180  17.907  0.00  0.00    +0.000 C 
ATOM     13  C   UNL     1       3.211   3.586  17.811  0.00  0.00    +0.000 C 
ATOM     14  O   UNL     1       4.110   3.880  17.004  0.00  0.00    +0.000 OA
ENDBRANCH   6  13
ENDBRANCH   2   9
ENDBRANCH   1   3
BRANCH   1  15
ATOM     15  N   UNL     1       1.144  10.960  21.726  0.00  0.00    +0.000 NA
ATOM     16  H   UNL     1       1.899  10.648  21.105  0.00  0.00    +0.000 HD
BRANCH  15  17
ATOM     17  C   UNL     1       0.177  11.709  20.895  0.00  0.00    +0.000 C 
BRANCH  17  18
ATOM     18  C   UNL     1       0.305  11.578  19.329  0.00  0.00    +0.000 C 
BRANCH  18  19
ATOM     19  C   UNL     1      -1.063  11.191  18.739  0.00  0.00    +0.000 A 
ATOM     20  C   UNL     1      -1.201  10.136  17.820  0.00  0.00    +0.000 A 
ATOM     21  C   UNL     1      -2.444   9.832  17.256  0.00  0.00    +0.000 A 
ATOM     22  C   UNL     1      -3.572  10.575  17.598  0.00  0.00    +0.000 A 
ATOM     23  C   UNL     1      -3.459  11.617  18.516  0.00  0.00    +0.000 A 
ATOM     24  C   UNL     1      -2.217  11.916  19.088  0.00  0.00    +0.000 A 
ENDBRANCH  18  19
BRANCH  18  25
ATOM     25  N   UNL     1       0.892  12.806  18.704  0.00  0.00    +0.000 NA
ATOM     26  C   UNL     1       0.793  13.982  19.585  0.00  0.00    +0.000 C 
ATOM     27  C   UNL     1       2.312  12.630  18.368  0.00  0.00    +0.000 C 
ENDBRANCH  18  25
ENDBRANCH  17  18
ENDBRANCH  15  17
ENDBRANCH   1  15
TORSDOF 8
ENDMDL
MODEL 8
REMARK VINA RESULT:      -6.8      4.399      8.680
REMARK  Name = 
REMARK  11 active torsions:
REMARK  status: ('A' for Active; 'I' for Inactive)
REMARK    1  A    between atoms: C_1  and  C_2
REMARK    2  A    between atoms: C_2  and  C_4
REMARK    3  A    between atoms: C_7  and  N_8
REMARK    4  A    between atoms: C_9  and  C_11
REMARK    5  A    between atoms: C_11  and  N_12
REMARK    6  A    between atoms: N_12  and  C_13
REMARK    7  A    between atoms: C_13  and  C_14
REMARK    8  A    between atoms: C_14  and  C_15
REMARK    9  A    between atoms: C_14  and  N_21
REMARK   10  A    between atoms: N_21  and  C_22
REMARK   11  A    between atoms: N_21  and  C_23
REMARK                            x       y       z     vdW  Elec       q    Type
REMARK                         _______ _______ _______ _____ _____    ______ ____
ROOT
ATOM      1  C   UNL     1       1.092   9.922  21.826  0.00  0.00    +0.000 C 
ENDROOT
BRANCH   1   3
ATOM      2  N   UNL     1       1.988   7.954  20.670  0.00  0.00    +0.000 N 
ATOM      3  C   UNL     1       0.841   8.525  21.211  0.00  0.00    +0.000 C 
ATOM      4  O   UNL     1      -0.256   7.977  21.253  0.00  0.00    +0.000 OA
ATOM      5  H   UNL     1       2.870   8.353  20.964  0.00  0.00    +0.000 HD
BRANCH   2   9
ATOM      6  C   UNL     1       1.705   4.109  18.922  0.00  0.00    +0.000 A 
ATOM      7  C   UNL     1       1.476   4.318  20.300  0.00  0.00    +0.000 A 
ATOM      8  C   UNL     1       1.695   5.546  20.927  0.00  0.00    +0.000 A 
ATOM      9  C   UNL     1       2.039   6.643  20.151  0.00  0.00    +0.000 A 
ATOM     10  C   UNL     1       2.326   6.449  18.790  0.00  0.00    +0.000 A 
ATOM     11  C   UNL     1       2.223   5.175  18.187  0.00  0.00    +0.000 A 
BRANCH   6  13
ATOM     12  C   UNL     1       2.547   1.848  17.809  0.00  0.00    +0.000 C 
ATOM     13  C   UNL     1       1.481   2.716  18.404  0.00  0.00    +0.000 C 
ATOM     14  O   UNL     1       0.306   2.317  18.475  0.00  0.00    +0.000 OA
ENDBRANCH   6  13
ENDBRANCH   2   9
ENDBRANCH   1   3
BRANCH   1  15
ATOM     15  N   UNL     1      -0.140  10.552  22.331  0.00  0.00    +0.000 NA
ATOM     16  H   UNL     1       0.092  11.018  23.215  0.00  0.00    +0.000 HD
BRANCH  15  17
ATOM     17  C   UNL     1      -0.702  11.581  21.430  0.00  0.00    +0.000 C 
BRANCH  17  18
ATOM     18  C   UNL     1      -0.131  11.658  19.962  0.00  0.00    +0.000 C 
BRANCH  18  19
ATOM     19  C   UNL     1      -1.218  11.201  18.972  0.00  0.00    +0.000 A 
ATOM     20  C   UNL     1      -0.962  10.230  17.988  0.00  0.00    +0.000 A 
ATOM     21  C   UNL     1      -1.946   9.866  17.065  0.00  0.00    +0.000 A 
ATOM     22  C   UNL     1      -3.204  10.464  17.105  0.00  0.00    +0.000 A 
ATOM     23  C   UNL     1      -3.483  11.419  18.079  0.00  0.00    +0.000 A 
ATOM     24  C   UNL     1      -2.500  11.778  19.010  0.00  0.00    +0.000 A 
ENDBRANCH  18  19
BRANCH  18  25
ATOM     25  N   UNL     1       0.431  13.008  19.643  0.00  0.00    +0.000 NA
ATOM     26  C   UNL     1      -0.219  14.080  20.416  0.00  0.00    +0.000 C 
ATOM     27  C   UNL     1       1.873  13.086  19.915  0.00  0.00    +0.000 C 
ENDBRANCH  18  25
ENDBRANCH  17  18
ENDBRANCH  15  17
ENDBRANCH   1  15
TORSDOF 8
ENDMDL
MODEL 9
REMARK VINA RESULT:      -6.8      2.761      5.725
REMARK  Name = 
REMARK  11 active torsions:
REMARK  status: ('A' for Active; 'I' for Inactive)
REMARK    1  A    between atoms: C_1  and  C_2
REMARK    2  A    between atoms: C_2  and  C_4
REMARK    3  A    between atoms: C_7  and  N_8
REMARK    4  A    between atoms: C_9  and  C_11
REMARK    5  A    between atoms: C_11  and  N_12
REMARK    6  A    between atoms: N_12  and  C_13
REMARK    7  A    between atoms: C_13  and  C_14
REMARK    8  A    between atoms: C_14  and  C_15
REMARK    9  A    between atoms: C_14  and  N_21
REMARK   10  A    between atoms: N_21  and  C_22
REMARK   11  A    between atoms: N_21  and  C_23
REMARK                            x       y       z     vdW  Elec       q    Type
REMARK                         _______ _______ _______ _____ _____    ______ ____
ROOT
ATOM      1  C   UNL     1       1.960   8.985  17.720  0.00  0.00    +0.000 C 
ENDROOT
BRANCH   1   3
ATOM      2  N   UNL     1       1.299   9.868  19.909  0.00  0.00    +0.000 N 
ATOM      3  C   UNL     1       0.883   9.663  18.598  0.00  0.00    +0.000 C 
ATOM      4  O   UNL     1      -0.201  10.020  18.147  0.00  0.00    +0.000 OA
ATOM      5  H   UNL     1       2.294   9.817  20.078  0.00  0.00    +0.000 HD
BRANCH   2   9
ATOM      6  C   UNL     1      -1.376  11.767  22.586  0.00  0.00    +0.000 A 
ATOM      7  C   UNL     1      -0.777  12.464  21.513  0.00  0.00    +0.000 A 
ATOM      8  C   UNL     1       0.209  11.902  20.700  0.00  0.00    +0.000 A 
ATOM      9  C   UNL     1       0.537  10.565  20.871  0.00  0.00    +0.000 A 
ATOM     10  C   UNL     1      -0.002   9.867  21.964  0.00  0.00    +0.000 A 
ATOM     11  C   UNL     1      -0.907  10.482  22.859  0.00  0.00    +0.000 A 
BRANCH   6  13
ATOM     12  C   UNL     1      -2.242  13.963  23.804  0.00  0.00    +0.000 C 
ATOM     13  C   UNL     1      -2.379  12.525  23.408  0.00  0.00    +0.000 C 
ATOM     14  O   UNL     1      -3.360  11.857  23.778  0.00  0.00    +0.000 OA
ENDBRANCH   6  13
ENDBRANCH   2   9
ENDBRANCH   1   3
BRANCH   1  15
ATOM     15  N   UNL     1       2.207   7.583  18.098  0.00  0.00    +0.000 NA
ATOM     16  H   UNL     1       1.871   6.992  17.331  0.00  0.00    +0.000 HD
BRANCH  15  17
ATOM     17  C   UNL     1       3.634   7.258  18.307  0.00  0.00    +0.000 C 
BRANCH  17  18
ATOM     18  C   UNL     1       4.055   5.740  18.239  0.00  0.00    +0.000 C 
BRANCH  18  19
ATOM     19  C   UNL     1       2.914   4.872  18.802  0.00  0.00    +0.000 A 
ATOM     20  C   UNL     1       2.604   4.857  20.173  0.00  0.00    +0.000 A 
ATOM     21  C   UNL     1       1.598   4.023  20.672  0.00  0.00    +0.000 A 
ATOM     22  C   UNL     1       0.885   3.189  19.814  0.00  0.00    +0.000 A 
ATOM     23  C   UNL     1       1.169   3.198  18.450  0.00  0.00    +0.000 A 
ATOM     24  C   UNL     1       2.170   4.039  17.948  0.00  0.00    +0.000 A 
ENDBRANCH  18  19
BRANCH  18  25
ATOM     25  N   UNL     1       4.485   5.332  16.864  0.00  0.00    +0.000 NA
ATOM     26  C   UNL     1       5.041   6.460  16.097  0.00  0.00    +0.000 C 
ATOM     27  C   UNL     1       5.507   4.277  16.895  0.00  0.00    +0.000 C 
ENDBRANCH  18  25
ENDBRANCH  17  18
ENDBRANCH  15  17
ENDBRANCH   1  15
TORSDOF 8
ENDMDL
