MODEL 1
REMARK VINA RESULT:      -8.2      0.000      0.000
REMARK  Name = 
REMARK  9 active torsions:
REMARK  status: ('A' for Active; 'I' for Inactive)
REMARK    1  A    between atoms: C_1  and  C_2
REMARK    2  A    between atoms: C_5  and  C_6
REMARK    3  A    between atoms: C_10  and  C_11
REMARK    4  A    between atoms: C_11  and  N_12
REMARK    5  A    between atoms: N_12  and  C_13
REMARK    6  A    between atoms: C_16  and  C_17
REMARK    7  A    between atoms: C_17  and  C_18
REMARK    8  A    between atoms: C_18  and  C_19
REMARK    9  A    between atoms: C_19  and  O_21
REMARK                            x       y       z     vdW  Elec       q    Type
REMARK                         _______ _______ _______ _____ _____    ______ ____
ROOT
ATOM      1  C   UNL     1       4.749   3.810  17.662  0.00  0.00    +0.000 C 
ENDROOT
BRANCH   1   6
ATOM      2  C   UNL     1       2.479   6.287  19.495  0.00  0.00    +0.000 A 
ATOM      3  C   UNL     1       2.026   5.492  20.561  0.00  0.00    +0.000 A 
ATOM      4  C   UNL     1       2.422   4.160  20.697  0.00  0.00    +0.000 A 
ATOM      5  C   UNL     1       3.298   3.591  19.775  0.00  0.00    +0.000 A 
ATOM      6  C   UNL     1       3.791   4.346  18.705  0.00  0.00    +0.000 A 
ATOM      7  C   UNL     1       3.361   5.684  18.578  0.00  0.00    +0.000 A 
BRANCH   2  12
ATOM      8  C   UNL     1       0.664  11.787  18.878  0.00  0.00    +0.000 C 
ATOM      9  C   UNL     1       1.155  10.380  19.030  0.00  0.00    +0.000 A 
ATOM     10  C   UNL     1       1.779   9.714  17.974  0.00  0.00    +0.000 A 
ATOM     11  C   UNL     1       2.220   8.394  18.130  0.00  0.00    +0.000 A 
ATOM     12  C   UNL     1       2.038   7.693  19.336  0.00  0.00    +0.000 A 
ATOM     13  C   UNL     1       1.409   8.385  20.387  0.00  0.00    +0.000 A 
ATOM     14  C   UNL     1       0.981   9.708  20.241  0.00  0.00    +0.000 A 
ENDBRANCH   2  12
ENDBRANCH   1   6
BRANCH   1  15
ATOM     15  N   UNL     1       6.157   4.016  17.962  0.00  0.00    +0.000 N 
ATOM     16  H   UNL     1       6.545   3.361  18.631  0.00  0.00    +0.000 HD
BRANCH  15  17
ATOM     17  C   UNL     1       6.786   5.251  17.900  0.00  0.00    +0.000 A 
ATOM     18  C   UNL     1       7.718   5.695  18.841  0.00  0.00    +0.000 A 
ATOM     19  C   UNL     1       8.229   6.997  18.806  0.00  0.00    +0.000 A 
ATOM     20  C   UNL     1       7.817   7.899  17.821  0.00  0.00    +0.000 A 
ATOM     21  C   UNL     1       6.884   7.469  16.874  0.00  0.00    +0.000 A 
ATOM     22  C   UNL     1       6.374   6.166  16.921  0.00  0.00    +0.000 A 
BRANCH  20  23
ATOM     23  C   UNL     1       8.327   9.319  17.813  0.00  0.00    +0.000 C 
BRANCH  23  24
ATOM     24  C   UNL     1       9.114   9.666  19.076  0.00  0.00    +0.000 C 
BRANCH  24  25
ATOM     25  C   UNL     1       9.821  10.987  18.930  0.00  0.00    +0.000 C 
ATOM     26  O   UNL     1      10.958  11.228  19.306  0.00  0.00    +0.000 OA
BRANCH  25  27
ATOM     27  O   UNL     1       9.054  11.917  18.313  0.00  0.00    +0.000 OA
ATOM     28  H   UNL     1       8.103  11.846  18.526  0.00  0.00    +0.000 HD
ENDBRANCH  25  27
ENDBRANCH  24  25
ENDBRANCH  23  24
ENDBRANCH  20  23
ENDBRANCH  15  17
ENDBRANCH   1  15
TORSDOF 8
ENDMDL
MODEL 2
REMARK VINA RESULT:      -7.9      0.833      1.661
REMARK  Name = 
REMARK  9 active torsions:
REMARK  status: ('A' for Active; 'I' for Inactive)
REMARK    1  A    between atoms: C_1  and  C_2
REMARK    2  A    between atoms: C_5  and  C_6
REMARK    3  A    between atoms: C_10  and  C_11
REMARK    4  A    between atoms: C_11  and  N_12
REMARK    5  A    between atoms: N_12  and  C_13
REMARK    6  A    between atoms: C_16  and  C_17
REMARK    7  A    between atoms: C_17  and  C_18
REMARK    8  A    between atoms: C_18  and  C_19
REMARK    9  A    between atoms: C_19  and  O_21
REMARK                            x       y       z     vdW  Elec       q    Type
REMARK                         _______ _______ _______ _____ _____    ______ ____
ROOT
ATOM      1  C   UNL     1       3.608   3.255  17.262  0.00  0.00    +0.000 C 
ENDROOT
BRANCH   1   6
ATOM      2  C   UNL     1       2.224   6.090  19.429  0.00  0.00    +0.000 A 
ATOM      3  C   UNL     1       2.022   5.419  20.646  0.00  0.00    +0.000 A 
ATOM      4  C   UNL     1       2.307   4.059  20.784  0.00  0.00    +0.000 A 
ATOM      5  C   UNL     1       2.817   3.336  19.708  0.00  0.00    +0.000 A 
ATOM      6  C   UNL     1       3.052   3.963  18.480  0.00  0.00    +0.000 A 
ATOM      7  C   UNL     1       2.739   5.332  18.358  0.00  0.00    +0.000 A 
BRANCH   2  12
ATOM      8  C   UNL     1       1.029  11.757  18.810  0.00  0.00    +0.000 C 
ATOM      9  C   UNL     1       1.312  10.296  18.977  0.00  0.00    +0.000 A 
ATOM     10  C   UNL     1       1.103   9.653  20.198  0.00  0.00    +0.000 A 
ATOM     11  C   UNL     1       1.384   8.289  20.339  0.00  0.00    +0.000 A 
ATOM     12  C   UNL     1       1.898   7.528  19.274  0.00  0.00    +0.000 A 
ATOM     13  C   UNL     1       2.099   8.196  18.053  0.00  0.00    +0.000 A 
ATOM     14  C   UNL     1       1.805   9.554  17.902  0.00  0.00    +0.000 A 
ENDBRANCH   2  12
ENDBRANCH   1   6
BRANCH   1  15
ATOM     15  N   UNL     1       5.052   3.348  17.108  0.00  0.00    +0.000 N 
ATOM     16  H   UNL     1       5.544   2.469  17.217  0.00  0.00    +0.000 HD
BRANCH  15  17
ATOM     17  C   UNL     1       5.787   4.486  17.406  0.00  0.00    +0.000 A 
ATOM     18  C   UNL     1       6.236   5.393  16.442  0.00  0.00    +0.000 A 
ATOM     19  C   UNL     1       7.082   6.456  16.778  0.00  0.00    +0.000 A 
ATOM     20  C   UNL     1       7.506   6.644  18.096  0.00  0.00    +0.000 A 
ATOM     21  C   UNL     1       7.065   5.743  19.070  0.00  0.00    +0.000 A 
ATOM     22  C   UNL     1       6.224   4.679  18.724  0.00  0.00    +0.000 A 
BRANCH  20  23
ATOM     23  C   UNL     1       8.458   7.758  18.450  0.00  0.00    +0.000 C 
BRANCH  23  24
ATOM     24  C   UNL     1       8.045   9.097  17.843  0.00  0.00    +0.000 C 
BRANCH  24  25
ATOM     25  C   UNL     1       8.763  10.241  18.508  0.00  0.00    +0.000 C 
ATOM     26  O   UNL     1       9.463  10.155  19.506  0.00  0.00    +0.000 OA
BRANCH  25  27
ATOM     27  O   UNL     1       8.561  11.418  17.870  0.00  0.00    +0.000 OA
ATOM     28  H   UNL     1       8.918  12.191  18.349  0.00  0.00    +0.000 HD
ENDBRANCH  25  27
ENDBRANCH  24  25
ENDBRANCH  23  24
ENDBRANCH  20  23
ENDBRANCH  15  17
ENDBRANCH   1  15
TORSDOF 8
ENDMDL
MODEL 3
REMARK VINA RESULT:      -7.8      0.827      1.316
REMARK  Name = 
REMARK  9 active torsions:
REMARK  status: ('A' for Active; 'I' for Inactive)
REMARK    1  A    between atoms: C_1  and  C_2
REMARK    2  A    between atoms: C_5  and  C_6
REMARK    3  A    between atoms: C_10  and  C_11
REMARK    4  A    between atoms: C_11  and  N_12
REMARK    5  A    between atoms: N_12  and  C_13
REMARK    6  A    between atoms: C_16  and  C_17
REMARK    7  A    between atoms: C_17  and  C_18
REMARK    8  A    between atoms: C_18  and  C_19
REMARK    9  A    between atoms: C_19  and  O_21
REMARK                            x       y       z     vdW  Elec       q    Type
REMARK                         _______ _______ _______ _____ _____    ______ ____
ROOT
ATOM      1  C   UNL     1       3.998   3.206  17.477  0.00  0.00    +0.000 C 
ENDROOT
BRANCH   1   6
ATOM      2  C   UNL     1       2.339   5.991  19.511  0.00  0.00    +0.000 A 
ATOM      3  C   UNL     1       2.038   5.306  20.701  0.00  0.00    +0.000 A 
ATOM      4  C   UNL     1       2.343   3.953  20.860  0.00  0.00    +0.000 A 
ATOM      5  C   UNL     1       2.973   3.251  19.836  0.00  0.00    +0.000 A 
ATOM      6  C   UNL     1       3.309   3.891  18.638  0.00  0.00    +0.000 A 
ATOM      7  C   UNL     1       2.973   5.253  18.493  0.00  0.00    +0.000 A 
BRANCH   2  12
ATOM      8  C   UNL     1       0.892  11.590  18.814  0.00  0.00    +0.000 C 
ATOM      9  C   UNL     1       1.289  10.155  18.986  0.00  0.00    +0.000 A 
ATOM     10  C   UNL     1       1.866   9.434  17.941  0.00  0.00    +0.000 A 
ATOM     11  C   UNL     1       2.219   8.090  18.116  0.00  0.00    +0.000 A 
ATOM     12  C   UNL     1       1.992   7.421  19.332  0.00  0.00    +0.000 A 
ATOM     13  C   UNL     1       1.412   8.168  20.372  0.00  0.00    +0.000 A 
ATOM     14  C   UNL     1       1.071   9.514  20.207  0.00  0.00    +0.000 A 
ENDBRANCH   2  12
ENDBRANCH   1   6
BRANCH   1  15
ATOM     15  N   UNL     1       4.787   4.086  16.630  0.00  0.00    +0.000 N 
ATOM     16  H   UNL     1       5.070   3.679  15.746  0.00  0.00    +0.000 HD
BRANCH  15  17
ATOM     17  C   UNL     1       5.613   5.088  17.118  0.00  0.00    +0.000 A 
ATOM     18  C   UNL     1       5.585   6.408  16.661  0.00  0.00    +0.000 A 
ATOM     19  C   UNL     1       6.523   7.352  17.093  0.00  0.00    +0.000 A 
ATOM     20  C   UNL     1       7.525   6.999  18.000  0.00  0.00    +0.000 A 
ATOM     21  C   UNL     1       7.567   5.681  18.465  0.00  0.00    +0.000 A 
ATOM     22  C   UNL     1       6.627   4.743  18.022  0.00  0.00    +0.000 A 
BRANCH  20  23
ATOM     23  C   UNL     1       8.569   8.000  18.426  0.00  0.00    +0.000 C 
BRANCH  23  24
ATOM     24  C   UNL     1       8.176   9.437  18.086  0.00  0.00    +0.000 C 
BRANCH  24  25
ATOM     25  C   UNL     1       9.125  10.424  18.712  0.00  0.00    +0.000 C 
ATOM     26  O   UNL     1       9.212  10.666  19.906  0.00  0.00    +0.000 OA
BRANCH  25  27
ATOM     27  O   UNL     1       9.911  11.037  17.794  0.00  0.00    +0.000 OA
ATOM     28  H   UNL     1       9.433  11.306  16.986  0.00  0.00    +0.000 HD
ENDBRANCH  25  27
ENDBRANCH  24  25
ENDBRANCH  23  24
ENDBRANCH  20  23
ENDBRANCH  15  17
ENDBRANCH   1  15
TORSDOF 8
ENDMDL
MODEL 4
REMARK VINA RESULT:      -7.8      0.897      1.414
REMARK  Name = 
REMARK  9 active torsions:
REMARK  status: ('A' for Active; 'I' for Inactive)
REMARK    1  A    between atoms: C_1  and  C_2
REMARK    2  A    between atoms: C_5  and  C_6
REMARK    3  A    between atoms: C_10  and  C_11
REMARK    4  A    between atoms: C_11  and  N_12
REMARK    5  A    between atoms: N_12  and  C_13
REMARK    6  A    between atoms: C_16  and  C_17
REMARK    7  A    between atoms: C_17  and  C_18
REMARK    8  A    between atoms: C_18  and  C_19
REMARK    9  A    between atoms: C_19  and  O_21
REMARK                            x       y       z     vdW  Elec       q    Type
REMARK                         _______ _______ _______ _____ _____    ______ ____
ROOT
ATOM      1  C   UNL     1       3.634   4.042  17.116  0.00  0.00    +0.000 C 
ENDROOT
BRANCH   1   6
ATOM      2  C   UNL     1       2.181   6.821  19.309  0.00  0.00    +0.000 A 
ATOM      3  C   UNL     1       1.960   6.124  20.509  0.00  0.00    +0.000 A 
ATOM      4  C   UNL     1       2.254   4.764  20.626  0.00  0.00    +0.000 A 
ATOM      5  C   UNL     1       2.792   4.067  19.547  0.00  0.00    +0.000 A 
ATOM      6  C   UNL     1       3.047   4.720  18.336  0.00  0.00    +0.000 A 
ATOM      7  C   UNL     1       2.724   6.089  18.235  0.00  0.00    +0.000 A 
BRANCH   2  12
ATOM      8  C   UNL     1       0.949  12.491  18.791  0.00  0.00    +0.000 C 
ATOM      9  C   UNL     1       1.240  11.027  18.929  0.00  0.00    +0.000 A 
ATOM     10  C   UNL     1       0.853  10.316  20.064  0.00  0.00    +0.000 A 
ATOM     11  C   UNL     1       1.145   8.951  20.181  0.00  0.00    +0.000 A 
ATOM     12  C   UNL     1       1.846   8.259  19.177  0.00  0.00    +0.000 A 
ATOM     13  C   UNL     1       2.224   8.996  18.040  0.00  0.00    +0.000 A 
ATOM     14  C   UNL     1       1.922  10.355  17.912  0.00  0.00    +0.000 A 
ENDBRANCH   2  12
ENDBRANCH   1   6
BRANCH   1  15
ATOM     15  N   UNL     1       5.060   3.768  17.197  0.00  0.00    +0.000 N 
ATOM     16  H   UNL     1       5.293   2.804  17.404  0.00  0.00    +0.000 HD
BRANCH  15  17
ATOM     17  C   UNL     1       6.004   4.709  17.583  0.00  0.00    +0.000 A 
ATOM     18  C   UNL     1       6.660   4.689  18.817  0.00  0.00    +0.000 A 
ATOM     19  C   UNL     1       7.508   5.729  19.211  0.00  0.00    +0.000 A 
ATOM     20  C   UNL     1       7.726   6.828  18.376  0.00  0.00    +0.000 A 
ATOM     21  C   UNL     1       7.076   6.862  17.139  0.00  0.00    +0.000 A 
ATOM     22  C   UNL     1       6.224   5.819  16.757  0.00  0.00    +0.000 A 
BRANCH  20  23
ATOM     23  C   UNL     1       8.599   7.975  18.821  0.00  0.00    +0.000 C 
BRANCH  23  24
ATOM     24  C   UNL     1       8.298   9.268  18.065  0.00  0.00    +0.000 C 
BRANCH  24  25
ATOM     25  C   UNL     1       9.075  10.424  18.634  0.00  0.00    +0.000 C 
ATOM     26  O   UNL     1       9.011  10.823  19.788  0.00  0.00    +0.000 OA
BRANCH  25  27
ATOM     27  O   UNL     1       9.887  11.001  17.717  0.00  0.00    +0.000 OA
ATOM     28  H   UNL     1       9.529  10.983  16.808  0.00  0.00    +0.000 HD
ENDBRANCH  25  27
ENDBRANCH  24  25
ENDBRANCH  23  24
ENDBRANCH  20  23
ENDBRANCH  15  17
ENDBRANCH   1  15
TORSDOF 8
ENDMDL
MODEL 5
REMARK VINA RESULT:      -7.7      0.988      1.458
REMARK  Name = 
REMARK  9 active torsions:
REMARK  status: ('A' for Active; 'I' for Inactive)
REMARK    1  A    between atoms: C_1  and  C_2
REMARK    2  A    between atoms: C_5  and  C_6
REMARK    3  A    between atoms: C_10  and  C_11
REMARK    4  A    between atoms: C_11  and  N_12
REMARK    5  A    between atoms: N_12  and  C_13
REMARK    6  A    between atoms: C_16  and  C_17
REMARK    7  A    between atoms: C_17  and  C_18
REMARK    8  A    between atoms: C_18  and  C_19
REMARK    9  A    between atoms: C_19  and  O_21
REMARK                            x       y       z     vdW  Elec       q    Type
REMARK                         _______ _______ _______ _____ _____    ______ ____
ROOT
ATOM      1  C   UNL     1       4.575   2.881  18.604  0.00  0.00    +0.000 C 
ENDROOT
BRANCH   1   6
ATOM      2  C   UNL     1       2.138   5.605  19.740  0.00  0.00    +0.000 A 
ATOM      3  C   UNL     1       1.306   4.873  20.602  0.00  0.00    +0.000 A 
ATOM      4  C   UNL     1       1.499   3.506  20.816  0.00  0.00    +0.000 A 
ATOM      5  C   UNL     1       2.545   2.839  20.183  0.00  0.00    +0.000 A 
ATOM      6  C   UNL     1       3.412   3.527  19.328  0.00  0.00    +0.000 A 
ATOM      7  C   UNL     1       3.185   4.902  19.112  0.00  0.00    +0.000 A 
BRANCH   2  12
ATOM      8  C   UNL     1       1.358  11.294  18.762  0.00  0.00    +0.000 C 
ATOM      9  C   UNL     1       1.534   9.829  19.020  0.00  0.00    +0.000 A 
ATOM     10  C   UNL     1       1.200   9.266  20.253  0.00  0.00    +0.000 A 
ATOM     11  C   UNL     1       1.382   7.897  20.480  0.00  0.00    +0.000 A 
ATOM     12  C   UNL     1       1.918   7.050  19.493  0.00  0.00    +0.000 A 
ATOM     13  C   UNL     1       2.245   7.638  18.258  0.00  0.00    +0.000 A 
ATOM     14  C   UNL     1       2.050   9.003  18.020  0.00  0.00    +0.000 A 
ENDBRANCH   2  12
ENDBRANCH   1   6
BRANCH   1  15
ATOM     15  N   UNL     1       4.971   3.545  17.372  0.00  0.00    +0.000 N 
ATOM     16  H   UNL     1       5.041   2.933  16.567  0.00  0.00    +0.000 HD
BRANCH  15  17
ATOM     17  C   UNL     1       5.765   4.681  17.329  0.00  0.00    +0.000 A 
ATOM     18  C   UNL     1       7.055   4.747  17.862  0.00  0.00    +0.000 A 
ATOM     19  C   UNL     1       7.767   5.950  17.909  0.00  0.00    +0.000 A 
ATOM     20  C   UNL     1       7.204   7.132  17.420  0.00  0.00    +0.000 A 
ATOM     21  C   UNL     1       5.914   7.082  16.885  0.00  0.00    +0.000 A 
ATOM     22  C   UNL     1       5.207   5.874  16.849  0.00  0.00    +0.000 A 
BRANCH  20  23
ATOM     23  C   UNL     1       7.948   8.440  17.517  0.00  0.00    +0.000 C 
BRANCH  23  24
ATOM     24  C   UNL     1       8.661   8.611  18.858  0.00  0.00    +0.000 C 
BRANCH  24  25
ATOM     25  C   UNL     1       9.070  10.042  19.078  0.00  0.00    +0.000 C 
ATOM     26  O   UNL     1       9.325  10.549  20.160  0.00  0.00    +0.000 OA
BRANCH  25  27
ATOM     27  O   UNL     1       9.140  10.743  17.920  0.00  0.00    +0.000 OA
ATOM     28  H   UNL     1       8.396  10.569  17.311  0.00  0.00    +0.000 HD
ENDBRANCH  25  27
ENDBRANCH  24  25
ENDBRANCH  23  24
ENDBRANCH  20  23
ENDBRANCH  15  17
ENDBRANCH   1  15
TORSDOF 8
ENDMDL
MODEL 6
REMARK VINA RESULT:      -7.7      1.051      1.394
REMARK  Name = 
REMARK  9 active torsions:
REMARK  status: ('A' for Active; 'I' for Inactive)
REMARK    1  A    between atoms: C_1  and  C_2
REMARK    2  A    between atoms: C_5  and  C_6
REMARK    3  A    between atoms: C_10  and  C_11
REMARK    4  A    between atoms: C_11  and  N_12
REMARK    5  A    between atoms: N_12  and  C_13
REMARK    6  A    between atoms: C_16  and  C_17
REMARK    7  A    between atoms: C_17  and  C_18
REMARK    8  A    between atoms: C_18  and  C_19
REMARK    9  A    between atoms: C_19  and  O_21
REMARK                            x       y       z     vdW  Elec       q    Type
REMARK                         _______ _______ _______ _____ _____    ______ ____
ROOT
ATOM      1  C   UNL     1       4.220   2.473  18.339  0.00  0.00    +0.000 C 
ENDROOT
BRANCH   1   6
ATOM      2  C   UNL     1       2.403   5.481  19.855  0.00  0.00    +0.000 A 
ATOM      3  C   UNL     1       1.936   4.929  21.059  0.00  0.00    +0.000 A 
ATOM      4  C   UNL     1       2.178   3.594  21.391  0.00  0.00    +0.000 A 
ATOM      5  C   UNL     1       2.910   2.779  20.532  0.00  0.00    +0.000 A 
ATOM      6  C   UNL     1       3.412   3.286  19.328  0.00  0.00    +0.000 A 
ATOM      7  C   UNL     1       3.138   4.631  19.005  0.00  0.00    +0.000 A 
BRANCH   2  12
ATOM      8  C   UNL     1       1.223  11.003  18.426  0.00  0.00    +0.000 C 
ATOM      9  C   UNL     1       1.552   9.587  18.786  0.00  0.00    +0.000 A 
ATOM     10  C   UNL     1       2.146   8.724  17.865  0.00  0.00    +0.000 A 
ATOM     11  C   UNL     1       2.435   7.400  18.215  0.00  0.00    +0.000 A 
ATOM     12  C   UNL     1       2.125   6.890  19.490  0.00  0.00    +0.000 A 
ATOM     13  C   UNL     1       1.528   7.778  20.403  0.00  0.00    +0.000 A 
ATOM     14  C   UNL     1       1.252   9.106  20.063  0.00  0.00    +0.000 A 
ENDBRANCH   2  12
ENDBRANCH   1   6
BRANCH   1  15
ATOM     15  N   UNL     1       4.608   3.188  17.133  0.00  0.00    +0.000 N 
ATOM     16  H   UNL     1       4.651   2.615  16.299  0.00  0.00    +0.000 HD
BRANCH  15  17
ATOM     17  C   UNL     1       5.426   4.309  17.131  0.00  0.00    +0.000 A 
ATOM     18  C   UNL     1       6.431   4.538  18.074  0.00  0.00    +0.000 A 
ATOM     19  C   UNL     1       7.143   5.742  18.106  0.00  0.00    +0.000 A 
ATOM     20  C   UNL     1       6.866   6.760  17.190  0.00  0.00    +0.000 A 
ATOM     21  C   UNL     1       5.862   6.546  16.242  0.00  0.00    +0.000 A 
ATOM     22  C   UNL     1       5.151   5.339  16.221  0.00  0.00    +0.000 A 
BRANCH  20  23
ATOM     23  C   UNL     1       7.596   8.078  17.256  0.00  0.00    +0.000 C 
BRANCH  23  24
ATOM     24  C   UNL     1       8.395   8.241  18.548  0.00  0.00    +0.000 C 
BRANCH  24  25
ATOM     25  C   UNL     1       8.812   9.673  18.752  0.00  0.00    +0.000 C 
ATOM     26  O   UNL     1       9.555  10.076  19.634  0.00  0.00    +0.000 OA
BRANCH  25  27
ATOM     27  O   UNL     1       8.272  10.504  17.829  0.00  0.00    +0.000 OA
ATOM     28  H   UNL     1       7.359  10.781  18.037  0.00  0.00    +0.000 HD
ENDBRANCH  25  27
ENDBRANCH  24  25
ENDBRANCH  23  24
ENDBRANCH  20  23
ENDBRANCH  15  17
ENDBRANCH   1  15
TORSDOF 8
ENDMDL
MODEL 7
REMARK VINA RESULT:      -7.7      0.785      1.679
REMARK  Name = 
REMARK  9 active torsions:
REMARK  status: ('A' for Active; 'I' for Inactive)
REMARK    1  A    between atoms: C_1  and  C_2
REMARK    2  A    between atoms: C_5  and  C_6
REMARK    3  A    between atoms: C_10  and  C_11
REMARK    4  A    between atoms: C_11  and  N_12
REMARK    5  A    between atoms: N_12  and  C_13
REMARK    6  A    between atoms: C_16  and  C_17
REMARK    7  A    between atoms: C_17  and  C_18
REMARK    8  A    between atoms: C_18  and  C_19
REMARK    9  A    between atoms: C_19  and  O_21
REMARK                            x       y       z     vdW  Elec       q    Type
REMARK                         _______ _______ _______ _____ _____    ______ ____
ROOT
ATOM      1  C   UNL     1       5.055   3.387  19.498  0.00  0.00    +0.000 C 
ENDROOT
BRANCH   1   6
ATOM      2  C   UNL     1       2.095   5.745  20.064  0.00  0.00    +0.000 A 
ATOM      3  C   UNL     1       1.162   4.865  20.638  0.00  0.00    +0.000 A 
ATOM      4  C   UNL     1       1.457   3.514  20.833  0.00  0.00    +0.000 A 
ATOM      5  C   UNL     1       2.705   3.011  20.473  0.00  0.00    +0.000 A 
ATOM      6  C   UNL     1       3.675   3.849  19.914  0.00  0.00    +0.000 A 
ATOM      7  C   UNL     1       3.346   5.205  19.708  0.00  0.00    +0.000 A 
BRANCH   2  12
ATOM      8  C   UNL     1       0.913  11.374  19.144  0.00  0.00    +0.000 C 
ATOM      9  C   UNL     1       1.192   9.922  19.389  0.00  0.00    +0.000 A 
ATOM     10  C   UNL     1       0.985   9.348  20.644  0.00  0.00    +0.000 A 
ATOM     11  C   UNL     1       1.264   7.992  20.858  0.00  0.00    +0.000 A 
ATOM     12  C   UNL     1       1.772   7.173  19.833  0.00  0.00    +0.000 A 
ATOM     13  C   UNL     1       1.971   7.773  18.577  0.00  0.00    +0.000 A 
ATOM     14  C   UNL     1       1.680   9.122  18.354  0.00  0.00    +0.000 A 
ENDBRANCH   2  12
ENDBRANCH   1   6
BRANCH   1  15
ATOM     15  N   UNL     1       5.534   3.944  18.243  0.00  0.00    +0.000 N 
ATOM     16  H   UNL     1       5.830   3.255  17.562  0.00  0.00    +0.000 HD
BRANCH  15  17
ATOM     17  C   UNL     1       6.134   5.190  18.133  0.00  0.00    +0.000 A 
ATOM     18  C   UNL     1       5.697   6.186  17.256  0.00  0.00    +0.000 A 
ATOM     19  C   UNL     1       6.411   7.378  17.088  0.00  0.00    +0.000 A 
ATOM     20  C   UNL     1       7.592   7.608  17.799  0.00  0.00    +0.000 A 
ATOM     21  C   UNL     1       8.042   6.620  18.679  0.00  0.00    +0.000 A 
ATOM     22  C   UNL     1       7.324   5.428  18.835  0.00  0.00    +0.000 A 
BRANCH  20  23
ATOM     23  C   UNL     1       8.390   8.869  17.581  0.00  0.00    +0.000 C 
BRANCH  23  24
ATOM     24  C   UNL     1       8.748   9.570  18.891  0.00  0.00    +0.000 C 
BRANCH  24  25
ATOM     25  C   UNL     1       9.364  10.919  18.636  0.00  0.00    +0.000 C 
ATOM     26  O   UNL     1       8.823  11.848  18.055  0.00  0.00    +0.000 OA
BRANCH  25  27
ATOM     27  O   UNL     1      10.620  11.015  19.134  0.00  0.00    +0.000 OA
ATOM     28  H   UNL     1      11.128  11.768  18.775  0.00  0.00    +0.000 HD
ENDBRANCH  25  27
ENDBRANCH  24  25
ENDBRANCH  23  24
ENDBRANCH  20  23
ENDBRANCH  15  17
ENDBRANCH   1  15
TORSDOF 8
ENDMDL
MODEL 8
REMARK VINA RESULT:      -7.6      4.784      8.160
REMARK  Name = 
REMARK  9 active torsions:
REMARK  status: ('A' for Active; 'I' for Inactive)
REMARK    1  A    between atoms: C_1  and  C_2
REMARK    2  A    between atoms: C_5  and  C_6
REMARK    3  A    between atoms: C_10  and  C_11
REMARK    4  A    between atoms: C_11  and  N_12
REMARK    5  A    between atoms: N_12  and  C_13
REMARK    6  A    between atoms: C_16  and  C_17
REMARK    7  A    between atoms: C_17  and  C_18
REMARK    8  A    between atoms: C_18  and  C_19
REMARK    9  A    between atoms: C_19  and  O_21
REMARK                            x       y       z     vdW  Elec       q    Type
REMARK                         _______ _______ _______ _____ _____    ______ ____
ROOT
ATOM      1  C   UNL     1       1.677   6.866  21.265  0.00  0.00    +0.000 C 
ENDROOT
BRANCH   1   6
ATOM      2  C   UNL     1       3.019   4.669  18.433  0.00  0.00    +0.000 A 
ATOM      3  C   UNL     1       2.223   3.522  18.588  0.00  0.00    +0.000 A 
ATOM      4  C   UNL     1       1.267   3.430  19.601  0.00  0.00    +0.000 A 
ATOM      5  C   UNL     1       1.071   4.492  20.480  0.00  0.00    +0.000 A 
ATOM      6  C   UNL     1       1.827   5.663  20.358  0.00  0.00    +0.000 A 
ATOM      7  C   UNL     1       2.800   5.726  19.338  0.00  0.00    +0.000 A 
BRANCH   2  12
ATOM      8  C   UNL     1       7.017   5.051  14.214  0.00  0.00    +0.000 C 
ATOM      9  C   UNL     1       6.005   4.938  15.313  0.00  0.00    +0.000 A 
ATOM     10  C   UNL     1       5.596   3.695  15.796  0.00  0.00    +0.000 A 
ATOM     11  C   UNL     1       4.641   3.608  16.815  0.00  0.00    +0.000 A 
ATOM     12  C   UNL     1       4.052   4.758  17.373  0.00  0.00    +0.000 A 
ATOM     13  C   UNL     1       4.481   6.000  16.873  0.00  0.00    +0.000 A 
ATOM     14  C   UNL     1       5.446   6.092  15.866  0.00  0.00    +0.000 A 
ENDBRANCH   2  12
ENDBRANCH   1   6
BRANCH   1  15
ATOM     15  N   UNL     1       1.989   8.143  20.643  0.00  0.00    +0.000 N 
ATOM     16  H   UNL     1       2.719   8.670  21.107  0.00  0.00    +0.000 HD
BRANCH  15  17
ATOM     17  C   UNL     1       1.071   8.896  19.926  0.00  0.00    +0.000 A 
ATOM     18  C   UNL     1       1.181   9.158  18.558  0.00  0.00    +0.000 A 
ATOM     19  C   UNL     1       0.300  10.027  17.906  0.00  0.00    +0.000 A 
ATOM     20  C   UNL     1      -0.725  10.665  18.611  0.00  0.00    +0.000 A 
ATOM     21  C   UNL     1      -0.847  10.414  19.980  0.00  0.00    +0.000 A 
ATOM     22  C   UNL     1       0.044   9.547  20.624  0.00  0.00    +0.000 A 
BRANCH  20  23
ATOM     23  C   UNL     1      -1.643  11.643  17.921  0.00  0.00    +0.000 C 
BRANCH  23  24
ATOM     24  C   UNL     1      -3.117  11.267  18.069  0.00  0.00    +0.000 C 
BRANCH  24  25
ATOM     25  C   UNL     1      -3.874  11.523  16.794  0.00  0.00    +0.000 C 
ATOM     26  O   UNL     1      -5.060  11.808  16.718  0.00  0.00    +0.000 OA
BRANCH  25  27
ATOM     27  O   UNL     1      -3.089  11.412  15.696  0.00  0.00    +0.000 OA
ATOM     28  H   UNL     1      -2.551  10.597  15.680  0.00  0.00    +0.000 HD
ENDBRANCH  25  27
ENDBRANCH  24  25
ENDBRANCH  23  24
ENDBRANCH  20  23
ENDBRANCH  15  17
ENDBRANCH   1  15
TORSDOF 8
ENDMDL
MODEL 9
REMARK VINA RESULT:      -7.6      5.283      8.855
REMARK  Name = 
REMARK  9 active torsions:
REMARK  status: ('A' for Active; 'I' for Inactive)
REMARK    1  A    between atoms: C_1  and  C_2
REMARK    2  A    between atoms: C_5  and  C_6
REMARK    3  A    between atoms: C_10  and  C_11
REMARK    4  A    between atoms: C_11  and  N_12
REMARK    5  A    between atoms: N_12  and  C_13
REMARK    6  A    between atoms: C_16  and  C_17
REMARK    7  A    between atoms: C_17  and  C_18
REMARK    8  A    between atoms: C_18  and  C_19
REMARK    9  A    between atoms: C_19  and  O_21
REMARK                            x       y       z     vdW  Elec       q    Type
REMARK                         _______ _______ _______ _____ _____    ______ ____
ROOT
ATOM      1  C   UNL     1       1.741   7.721  20.993  0.00  0.00    +0.000 C 
ENDROOT
BRANCH   1   6
ATOM      2  C   UNL     1       3.023   5.117  18.498  0.00  0.00    +0.000 A 
ATOM      3  C   UNL     1       2.272   3.993  18.879  0.00  0.00    +0.000 A 
ATOM      4  C   UNL     1       1.366   4.047  19.941  0.00  0.00    +0.000 A 
ATOM      5  C   UNL     1       1.177   5.236  20.641  0.00  0.00    +0.000 A 
ATOM      6  C   UNL     1       1.888   6.388  20.290  0.00  0.00    +0.000 A 
ATOM      7  C   UNL     1       2.812   6.304  19.227  0.00  0.00    +0.000 A 
BRANCH   2  12
ATOM      8  C   UNL     1       6.933   4.830  14.190  0.00  0.00    +0.000 C 
ATOM      9  C   UNL     1       5.912   4.920  15.283  0.00  0.00    +0.000 A 
ATOM     10  C   UNL     1       5.503   6.152  15.792  0.00  0.00    +0.000 A 
ATOM     11  C   UNL     1       4.557   6.216  16.822  0.00  0.00    +0.000 A 
ATOM     12  C   UNL     1       4.004   5.054  17.388  0.00  0.00    +0.000 A 
ATOM     13  C   UNL     1       4.429   3.822  16.859  0.00  0.00    +0.000 A 
ATOM     14  C   UNL     1       5.362   3.753  15.819  0.00  0.00    +0.000 A 
ENDBRANCH   2  12
ENDBRANCH   1   6
BRANCH   1  15
ATOM     15  N   UNL     1       0.849   8.663  20.335  0.00  0.00    +0.000 N 
ATOM     16  H   UNL     1       1.073   8.846  19.364  0.00  0.00    +0.000 HD
BRANCH  15  17
ATOM     17  C   UNL     1       0.179   9.681  20.998  0.00  0.00    +0.000 A 
ATOM     18  C   UNL     1       0.012  10.967  20.478  0.00  0.00    +0.000 A 
ATOM     19  C   UNL     1      -0.559  11.994  21.237  0.00  0.00    +0.000 A 
ATOM     20  C   UNL     1      -0.982  11.762  22.549  0.00  0.00    +0.000 A 
ATOM     21  C   UNL     1      -0.820  10.481  23.083  0.00  0.00    +0.000 A 
ATOM     22  C   UNL     1      -0.241   9.461  22.317  0.00  0.00    +0.000 A 
BRANCH  20  23
ATOM     23  C   UNL     1      -1.550  12.880  23.386  0.00  0.00    +0.000 C 
BRANCH  23  24
ATOM     24  C   UNL     1      -2.873  13.411  22.836  0.00  0.00    +0.000 C 
BRANCH  24  25
ATOM     25  C   UNL     1      -4.025  12.539  23.257  0.00  0.00    +0.000 C 
ATOM     26  O   UNL     1      -4.181  12.056  24.368  0.00  0.00    +0.000 OA
BRANCH  25  27
ATOM     27  O   UNL     1      -4.913  12.338  22.253  0.00  0.00    +0.000 OA
ATOM     28  H   UNL     1      -5.363  13.153  21.958  0.00  0.00    +0.000 HD
ENDBRANCH  25  27
ENDBRANCH  24  25
ENDBRANCH  23  24
ENDBRANCH  20  23
ENDBRANCH  15  17
ENDBRANCH   1  15
TORSDOF 8
ENDMDL
