MODEL 1
REMARK VINA RESULT:      -7.9      0.000      0.000
REMARK  Name = 
REMARK  9 active torsions:
REMARK  status: ('A' for Active; 'I' for Inactive)
REMARK    1  A    between atoms: C_1  and  O_2
REMARK    2  A    between atoms: O_2  and  C_3
REMARK    3  A    between atoms: C_7  and  C_8
REMARK    4  A    between atoms: C_8  and  N_9
REMARK    5  A    between atoms: C_10  and  C_12
REMARK    6  A    between atoms: N_15  and  C_16
REMARK    7  A    between atoms: C_16  and  C_17
REMARK    8  A    between atoms: N_19  and  C_20
REMARK    9  A    between atoms: C_27  and  N_28
REMARK                            x       y       z     vdW  Elec       q    Type
REMARK                         _______ _______ _______ _____ _____    ______ ____
ROOT
ATOM      1  C   UNL     1       5.950   4.740  17.513  0.00  0.00    +0.000 A 
ATOM      2  N   UNL     1       6.296   5.521  18.595  0.00  0.00    +0.000 NA
ATOM      3  N   UNL     1       5.340   5.419  19.508  0.00  0.00    +0.000 NA
ATOM      4  N   UNL     1       4.402   4.579  19.026  0.00  0.00    +0.000 N 
ATOM      5  C   UNL     1       4.722   4.148  17.759  0.00  0.00    +0.000 A 
ENDROOT
BRANCH   1   7
ATOM      6  N   UNL     1       6.151   4.795  15.146  0.00  0.00    +0.000 N 
ATOM      7  C   UNL     1       6.805   4.582  16.341  0.00  0.00    +0.000 C 
ATOM      8  O   UNL     1       7.998   4.306  16.413  0.00  0.00    +0.000 OA
ATOM      9  H   UNL     1       5.168   5.040  15.184  0.00  0.00    +0.000 HD
BRANCH   6  10
ATOM     10  C   UNL     1       6.808   4.709  13.863  0.00  0.00    +0.000 C 
BRANCH  10  15
ATOM     11  C   UNL     1       6.035   1.868  11.424  0.00  0.00    +0.000 A 
ATOM     12  C   UNL     1       4.735   2.201  11.031  0.00  0.00    +0.000 A 
ATOM     13  C   UNL     1       4.104   3.326  11.560  0.00  0.00    +0.000 A 
ATOM     14  C   UNL     1       4.768   4.128  12.488  0.00  0.00    +0.000 A 
ATOM     15  C   UNL     1       6.070   3.809  12.901  0.00  0.00    +0.000 A 
ATOM     16  C   UNL     1       6.696   2.671  12.358  0.00  0.00    +0.000 A 
BRANCH  11  18
ATOM     17  C   UNL     1       6.122  -0.506  11.317  0.00  0.00    +0.000 C 
ATOM     18  O   UNL     1       6.544   0.755  10.815  0.00  0.00    +0.000 OA
ENDBRANCH  11  18
ENDBRANCH  10  15
ENDBRANCH   6  10
ENDBRANCH   1   7
BRANCH   5  19
ATOM     19  N   UNL     1       3.949   3.315  17.023  0.00  0.00    +0.000 N 
ATOM     20  H   UNL     1       2.998   3.554  16.722  0.00  0.00    +0.000 HD
ATOM     21  H   UNL     1       4.082   2.305  17.122  0.00  0.00    +0.000 HD
ENDBRANCH   5  19
BRANCH   4  22
ATOM     22  C   UNL     1       3.243   4.285  19.840  0.00  0.00    +0.000 C 
BRANCH  22  23
ATOM     23  C   UNL     1       2.348   5.492  19.999  0.00  0.00    +0.000 C 
ATOM     24  O   UNL     1       1.414   5.443  20.803  0.00  0.00    +0.000 OA
ATOM     25  N   UNL     1       2.658   6.577  19.192  0.00  0.00    +0.000 N 
ATOM     26  H   UNL     1       3.384   6.461  18.493  0.00  0.00    +0.000 HD
BRANCH  25  27
ATOM     27  C   UNL     1       2.026   7.846  19.225  0.00  0.00    +0.000 A 
ATOM     28  C   UNL     1       1.874   8.654  18.094  0.00  0.00    +0.000 A 
ATOM     29  C   UNL     1       1.217   9.885  18.167  0.00  0.00    +0.000 A 
ATOM     30  C   UNL     1       0.706  10.325  19.382  0.00  0.00    +0.000 A 
ATOM     31 BR   UNL     1      -0.201  11.981  19.471  0.00  0.00    +0.000 Br
ATOM     32  C   UNL     1       0.855   9.543  20.525  0.00  0.00    +0.000 A 
ATOM     33  C   UNL     1       1.507   8.303  20.445  0.00  0.00    +0.000 A 
ENDBRANCH  25  27
ENDBRANCH  22  23
ENDBRANCH   4  22
TORSDOF 8
ENDMDL
MODEL 2
REMARK VINA RESULT:      -7.8      1.143      2.249
REMARK  Name = 
REMARK  9 active torsions:
REMARK  status: ('A' for Active; 'I' for Inactive)
REMARK    1  A    between atoms: C_1  and  O_2
REMARK    2  A    between atoms: O_2  and  C_3
REMARK    3  A    between atoms: C_7  and  C_8
REMARK    4  A    between atoms: C_8  and  N_9
REMARK    5  A    between atoms: C_10  and  C_12
REMARK    6  A    between atoms: N_15  and  C_16
REMARK    7  A    between atoms: C_16  and  C_17
REMARK    8  A    between atoms: N_19  and  C_20
REMARK    9  A    between atoms: C_27  and  N_28
REMARK                            x       y       z     vdW  Elec       q    Type
REMARK                         _______ _______ _______ _____ _____    ______ ____
ROOT
ATOM      1  C   UNL     1       5.190   4.194  17.329  0.00  0.00    +0.000 A 
ATOM      2  N   UNL     1       4.075   3.419  17.090  0.00  0.00    +0.000 NA
ATOM      3  N   UNL     1       3.342   3.389  18.195  0.00  0.00    +0.000 NA
ATOM      4  N   UNL     1       3.970   4.139  19.123  0.00  0.00    +0.000 N 
ATOM      5  C   UNL     1       5.155   4.643  18.639  0.00  0.00    +0.000 A 
ENDROOT
BRANCH   1   7
ATOM      6  N   UNL     1       5.849   4.024  15.052  0.00  0.00    +0.000 N 
ATOM      7  C   UNL     1       6.191   4.480  16.307  0.00  0.00    +0.000 C 
ATOM      8  O   UNL     1       7.232   5.088  16.539  0.00  0.00    +0.000 OA
ATOM      9  H   UNL     1       4.958   3.550  14.951  0.00  0.00    +0.000 HD
BRANCH   6  10
ATOM     10  C   UNL     1       6.684   4.213  13.889  0.00  0.00    +0.000 C 
BRANCH  10  15
ATOM     11  C   UNL     1       4.386   2.921  11.122  0.00  0.00    +0.000 A 
ATOM     12  C   UNL     1       5.200   1.951  10.531  0.00  0.00    +0.000 A 
ATOM     13  C   UNL     1       6.490   1.724  11.010  0.00  0.00    +0.000 A 
ATOM     14  C   UNL     1       6.976   2.467  12.086  0.00  0.00    +0.000 A 
ATOM     15  C   UNL     1       6.177   3.449  12.690  0.00  0.00    +0.000 A 
ATOM     16  C   UNL     1       4.877   3.667  12.196  0.00  0.00    +0.000 A 
BRANCH  11  18
ATOM     17  C   UNL     1       2.935   4.074   9.631  0.00  0.00    +0.000 C 
ATOM     18  O   UNL     1       3.139   3.027  10.570  0.00  0.00    +0.000 OA
ENDBRANCH  11  18
ENDBRANCH  10  15
ENDBRANCH   6  10
ENDBRANCH   1   7
BRANCH   5  19
ATOM     19  N   UNL     1       6.003   5.413  19.360  0.00  0.00    +0.000 N 
ATOM     20  H   UNL     1       6.408   5.113  20.254  0.00  0.00    +0.000 HD
ATOM     21  H   UNL     1       5.922   6.431  19.293  0.00  0.00    +0.000 HD
ENDBRANCH   5  19
BRANCH   4  22
ATOM     22  C   UNL     1       3.367   4.281  20.430  0.00  0.00    +0.000 C 
BRANCH  22  23
ATOM     23  C   UNL     1       2.264   5.315  20.431  0.00  0.00    +0.000 C 
ATOM     24  O   UNL     1       1.117   4.966  20.722  0.00  0.00    +0.000 OA
ATOM     25  N   UNL     1       2.649   6.600  20.079  0.00  0.00    +0.000 N 
ATOM     26  H   UNL     1       3.600   6.743  19.755  0.00  0.00    +0.000 HD
BRANCH  25  27
ATOM     27  C   UNL     1       1.820   7.750  20.094  0.00  0.00    +0.000 A 
ATOM     28  C   UNL     1       1.109   8.165  21.225  0.00  0.00    +0.000 A 
ATOM     29  C   UNL     1       0.326   9.323  21.204  0.00  0.00    +0.000 A 
ATOM     30  C   UNL     1       0.244  10.080  20.041  0.00  0.00    +0.000 A 
ATOM     31 BR   UNL     1      -0.798  11.657  20.025  0.00  0.00    +0.000 Br
ATOM     32  C   UNL     1       0.934   9.681  18.900  0.00  0.00    +0.000 A 
ATOM     33  C   UNL     1       1.726   8.523  18.928  0.00  0.00    +0.000 A 
ENDBRANCH  25  27
ENDBRANCH  22  23
ENDBRANCH   4  22
TORSDOF 8
ENDMDL
MODEL 3
REMARK VINA RESULT:      -7.6      5.663      8.017
REMARK  Name = 
REMARK  9 active torsions:
REMARK  status: ('A' for Active; 'I' for Inactive)
REMARK    1  A    between atoms: C_1  and  O_2
REMARK    2  A    between atoms: O_2  and  C_3
REMARK    3  A    between atoms: C_7  and  C_8
REMARK    4  A    between atoms: C_8  and  N_9
REMARK    5  A    between atoms: C_10  and  C_12
REMARK    6  A    between atoms: N_15  and  C_16
REMARK    7  A    between atoms: C_16  and  C_17
REMARK    8  A    between atoms: N_19  and  C_20
REMARK    9  A    between atoms: C_27  and  N_28
REMARK                            x       y       z     vdW  Elec       q    Type
REMARK                         _______ _______ _______ _____ _____    ______ ____
ROOT
ATOM      1  C   UNL     1       6.967   6.067  17.371  0.00  0.00    +0.000 A 
ATOM      2  N   UNL     1       6.893   7.168  16.544  0.00  0.00    +0.000 NA
ATOM      3  N   UNL     1       7.547   8.167  17.119  0.00  0.00    +0.000 NA
ATOM      4  N   UNL     1       8.043   7.714  18.289  0.00  0.00    +0.000 N 
ATOM      5  C   UNL     1       7.679   6.406  18.510  0.00  0.00    +0.000 A 
ENDROOT
BRANCH   1   7
ATOM      6  N   UNL     1       5.140   4.560  17.558  0.00  0.00    +0.000 N 
ATOM      7  C   UNL     1       6.393   4.772  17.022  0.00  0.00    +0.000 C 
ATOM      8  O   UNL     1       6.962   3.956  16.303  0.00  0.00    +0.000 OA
ATOM      9  H   UNL     1       4.738   5.299  18.123  0.00  0.00    +0.000 HD
BRANCH   6  10
ATOM     10  C   UNL     1       4.378   3.355  17.327  0.00  0.00    +0.000 C 
BRANCH  10  15
ATOM     11  C   UNL     1       1.609   4.334  19.774  0.00  0.00    +0.000 A 
ATOM     12  C   UNL     1       0.768   3.221  19.684  0.00  0.00    +0.000 A 
ATOM     13  C   UNL     1       1.082   2.167  18.827  0.00  0.00    +0.000 A 
ATOM     14  C   UNL     1       2.241   2.217  18.053  0.00  0.00    +0.000 A 
ATOM     15  C   UNL     1       3.096   3.327  18.123  0.00  0.00    +0.000 A 
ATOM     16  C   UNL     1       2.767   4.384  18.993  0.00  0.00    +0.000 A 
BRANCH  11  18
ATOM     17  C   UNL     1       1.871   6.537  20.633  0.00  0.00    +0.000 C 
ATOM     18  O   UNL     1       1.197   5.286  20.666  0.00  0.00    +0.000 OA
ENDBRANCH  11  18
ENDBRANCH  10  15
ENDBRANCH   6  10
ENDBRANCH   1   7
BRANCH   5  19
ATOM     19  N   UNL     1       8.018   5.701  19.615  0.00  0.00    +0.000 N 
ATOM     20  H   UNL     1       7.634   4.773  19.826  0.00  0.00    +0.000 HD
ATOM     21  H   UNL     1       8.288   6.211  20.460  0.00  0.00    +0.000 HD
ENDBRANCH   5  19
BRANCH   4  22
ATOM     22  C   UNL     1       8.816   8.614  19.115  0.00  0.00    +0.000 C 
BRANCH  22  23
ATOM     23  C   UNL     1       8.894   9.999  18.516  0.00  0.00    +0.000 C 
ATOM     24  O   UNL     1       7.938  10.423  17.861  0.00  0.00    +0.000 OA
ATOM     25  N   UNL     1      10.075  10.687  18.752  0.00  0.00    +0.000 N 
ATOM     26  H   UNL     1      10.832  10.194  19.214  0.00  0.00    +0.000 HD
BRANCH  25  27
ATOM     27  C   UNL     1      10.347  12.027  18.375  0.00  0.00    +0.000 A 
ATOM     28  C   UNL     1      11.031  12.367  17.203  0.00  0.00    +0.000 A 
ATOM     29  C   UNL     1      11.250  13.703  16.856  0.00  0.00    +0.000 A 
ATOM     30  C   UNL     1      10.788  14.718  17.685  0.00  0.00    +0.000 A 
ATOM     31 BR   UNL     1      11.068  16.523  17.198  0.00  0.00    +0.000 Br
ATOM     32  C   UNL     1      10.114  14.403  18.862  0.00  0.00    +0.000 A 
ATOM     33  C   UNL     1       9.887  13.062  19.203  0.00  0.00    +0.000 A 
ENDBRANCH  25  27
ENDBRANCH  22  23
ENDBRANCH   4  22
TORSDOF 8
ENDMDL
MODEL 4
REMARK VINA RESULT:      -7.6      4.302      9.688
REMARK  Name = 
REMARK  9 active torsions:
REMARK  status: ('A' for Active; 'I' for Inactive)
REMARK    1  A    between atoms: C_1  and  O_2
REMARK    2  A    between atoms: O_2  and  C_3
REMARK    3  A    between atoms: C_7  and  C_8
REMARK    4  A    between atoms: C_8  and  N_9
REMARK    5  A    between atoms: C_10  and  C_12
REMARK    6  A    between atoms: N_15  and  C_16
REMARK    7  A    between atoms: C_16  and  C_17
REMARK    8  A    between atoms: N_19  and  C_20
REMARK    9  A    between atoms: C_27  and  N_28
REMARK                            x       y       z     vdW  Elec       q    Type
REMARK                         _______ _______ _______ _____ _____    ______ ____
ROOT
ATOM      1  C   UNL     1       1.418   9.044  19.160  0.00  0.00    +0.000 A 
ATOM      2  N   UNL     1       1.968   8.901  17.903  0.00  0.00    +0.000 NA
ATOM      3  N   UNL     1       2.717   7.807  17.895  0.00  0.00    +0.000 NA
ATOM      4  N   UNL     1       2.642   7.251  19.121  0.00  0.00    +0.000 N 
ATOM      5  C   UNL     1       1.862   8.007  19.965  0.00  0.00    +0.000 A 
ENDROOT
BRANCH   1   7
ATOM      6  N   UNL     1       0.303  11.032  18.490  0.00  0.00    +0.000 N 
ATOM      7  C   UNL     1       0.498  10.121  19.507  0.00  0.00    +0.000 C 
ATOM      8  O   UNL     1      -0.066  10.198  20.594  0.00  0.00    +0.000 OA
ATOM      9  H   UNL     1       0.795  10.876  17.618  0.00  0.00    +0.000 HD
BRANCH   6  10
ATOM     10  C   UNL     1      -0.581  12.168  18.609  0.00  0.00    +0.000 C 
BRANCH  10  15
ATOM     11  C   UNL     1      -3.628  11.106  16.561  0.00  0.00    +0.000 A 
ATOM     12  C   UNL     1      -4.655  11.308  17.487  0.00  0.00    +0.000 A 
ATOM     13  C   UNL     1      -4.367  11.768  18.772  0.00  0.00    +0.000 A 
ATOM     14  C   UNL     1      -3.048  12.032  19.140  0.00  0.00    +0.000 A 
ATOM     15  C   UNL     1      -2.001  11.830  18.228  0.00  0.00    +0.000 A 
ATOM     16  C   UNL     1      -2.307  11.365  16.934  0.00  0.00    +0.000 A 
BRANCH  11  18
ATOM     17  C   UNL     1      -3.089  10.015  14.517  0.00  0.00    +0.000 C 
ATOM     18  O   UNL     1      -4.049  10.673  15.333  0.00  0.00    +0.000 OA
ENDBRANCH  11  18
ENDBRANCH  10  15
ENDBRANCH   6  10
ENDBRANCH   1   7
BRANCH   5  19
ATOM     19  N   UNL     1       1.630   7.700  21.263  0.00  0.00    +0.000 N 
ATOM     20  H   UNL     1       0.723   7.848  21.719  0.00  0.00    +0.000 HD
ATOM     21  H   UNL     1       2.409   7.741  21.925  0.00  0.00    +0.000 HD
ENDBRANCH   5  19
BRANCH   4  22
ATOM     22  C   UNL     1       3.368   6.027  19.378  0.00  0.00    +0.000 C 
BRANCH  22  23
ATOM     23  C   UNL     1       3.708   5.297  18.099  0.00  0.00    +0.000 C 
ATOM     24  O   UNL     1       2.911   4.468  17.653  0.00  0.00    +0.000 OA
ATOM     25  N   UNL     1       4.930   5.624  17.531  0.00  0.00    +0.000 N 
ATOM     26  H   UNL     1       5.548   6.242  18.047  0.00  0.00    +0.000 HD
BRANCH  25  27
ATOM     27  C   UNL     1       5.426   5.145  16.292  0.00  0.00    +0.000 A 
ATOM     28  C   UNL     1       4.634   4.460  15.365  0.00  0.00    +0.000 A 
ATOM     29  C   UNL     1       5.159   4.032  14.142  0.00  0.00    +0.000 A 
ATOM     30  C   UNL     1       6.491   4.283  13.835  0.00  0.00    +0.000 A 
ATOM     31 BR   UNL     1       7.188   3.721  12.170  0.00  0.00    +0.000 Br
ATOM     32  C   UNL     1       7.301   4.954  14.747  0.00  0.00    +0.000 A 
ATOM     33  C   UNL     1       6.769   5.390  15.969  0.00  0.00    +0.000 A 
ENDBRANCH  25  27
ENDBRANCH  22  23
ENDBRANCH   4  22
TORSDOF 8
ENDMDL
MODEL 5
REMARK VINA RESULT:      -7.6      4.580     10.362
REMARK  Name = 
REMARK  9 active torsions:
REMARK  status: ('A' for Active; 'I' for Inactive)
REMARK    1  A    between atoms: C_1  and  O_2
REMARK    2  A    between atoms: O_2  and  C_3
REMARK    3  A    between atoms: C_7  and  C_8
REMARK    4  A    between atoms: C_8  and  N_9
REMARK    5  A    between atoms: C_10  and  C_12
REMARK    6  A    between atoms: N_15  and  C_16
REMARK    7  A    between atoms: C_16  and  C_17
REMARK    8  A    between atoms: N_19  and  C_20
REMARK    9  A    between atoms: C_27  and  N_28
REMARK                            x       y       z     vdW  Elec       q    Type
REMARK                         _______ _______ _______ _____ _____    ______ ____
ROOT
ATOM      1  C   UNL     1       1.232   9.345  19.499  0.00  0.00    +0.000 A 
ATOM      2  N   UNL     1       1.627   9.014  18.220  0.00  0.00    +0.000 NA
ATOM      3  N   UNL     1       2.218   7.828  18.258  0.00  0.00    +0.000 NA
ATOM      4  N   UNL     1       2.192   7.398  19.536  0.00  0.00    +0.000 N 
ATOM      5  C   UNL     1       1.611   8.331  20.364  0.00  0.00    +0.000 A 
ENDROOT
BRANCH   1   7
ATOM      6  N   UNL     1      -0.361  10.972  18.818  0.00  0.00    +0.000 N 
ATOM      7  C   UNL     1       0.505  10.570  19.813  0.00  0.00    +0.000 C 
ATOM      8  O   UNL     1       0.636  11.175  20.873  0.00  0.00    +0.000 OA
ATOM      9  H   UNL     1      -0.419  10.398  17.985  0.00  0.00    +0.000 HD
BRANCH   6  10
ATOM     10  C   UNL     1      -1.194  12.146  18.925  0.00  0.00    +0.000 C 
BRANCH  10  15
ATOM     11  C   UNL     1      -5.006  11.863  18.963  0.00  0.00    +0.000 A 
ATOM     12  C   UNL     1      -5.243  11.291  17.710  0.00  0.00    +0.000 A 
ATOM     13  C   UNL     1      -4.181  11.012  16.849  0.00  0.00    +0.000 A 
ATOM     14  C   UNL     1      -2.874  11.303  17.235  0.00  0.00    +0.000 A 
ATOM     15  C   UNL     1      -2.614  11.883  18.486  0.00  0.00    +0.000 A 
ATOM     16  C   UNL     1      -3.695  12.159  19.345  0.00  0.00    +0.000 A 
BRANCH  11  18
ATOM     17  C   UNL     1      -7.165  11.097  19.604  0.00  0.00    +0.000 C 
ATOM     18  O   UNL     1      -6.130  12.065  19.715  0.00  0.00    +0.000 OA
ENDBRANCH  11  18
ENDBRANCH  10  15
ENDBRANCH   6  10
ENDBRANCH   1   7
BRANCH   5  19
ATOM     19  N   UNL     1       1.471   8.176  21.701  0.00  0.00    +0.000 N 
ATOM     20  H   UNL     1       2.214   7.802  22.302  0.00  0.00    +0.000 HD
ATOM     21  H   UNL     1       0.538   7.997  22.081  0.00  0.00    +0.000 HD
ENDBRANCH   5  19
BRANCH   4  22
ATOM     22  C   UNL     1       2.769   6.111  19.852  0.00  0.00    +0.000 C 
BRANCH  22  23
ATOM     23  C   UNL     1       3.174   5.357  18.606  0.00  0.00    +0.000 C 
ATOM     24  O   UNL     1       2.434   4.467  18.178  0.00  0.00    +0.000 OA
ATOM     25  N   UNL     1       4.385   5.734  18.047  0.00  0.00    +0.000 N 
ATOM     26  H   UNL     1       4.957   6.405  18.550  0.00  0.00    +0.000 HD
BRANCH  25  27
ATOM     27  C   UNL     1       4.931   5.241  16.834  0.00  0.00    +0.000 A 
ATOM     28  C   UNL     1       5.240   3.892  16.628  0.00  0.00    +0.000 A 
ATOM     29  C   UNL     1       5.749   3.446  15.405  0.00  0.00    +0.000 A 
ATOM     30  C   UNL     1       5.959   4.351  14.372  0.00  0.00    +0.000 A 
ATOM     31 BR   UNL     1       6.627   3.737  12.712  0.00  0.00    +0.000 Br
ATOM     32  C   UNL     1       5.669   5.700  14.558  0.00  0.00    +0.000 A 
ATOM     33  C   UNL     1       5.150   6.143  15.783  0.00  0.00    +0.000 A 
ENDBRANCH  25  27
ENDBRANCH  22  23
ENDBRANCH   4  22
TORSDOF 8
ENDMDL
MODEL 6
REMARK VINA RESULT:      -7.5      3.592      6.330
REMARK  Name = 
REMARK  9 active torsions:
REMARK  status: ('A' for Active; 'I' for Inactive)
REMARK    1  A    between atoms: C_1  and  O_2
REMARK    2  A    between atoms: O_2  and  C_3
REMARK    3  A    between atoms: C_7  and  C_8
REMARK    4  A    between atoms: C_8  and  N_9
REMARK    5  A    between atoms: C_10  and  C_12
REMARK    6  A    between atoms: N_15  and  C_16
REMARK    7  A    between atoms: C_16  and  C_17
REMARK    8  A    between atoms: N_19  and  C_20
REMARK    9  A    between atoms: C_27  and  N_28
REMARK                            x       y       z     vdW  Elec       q    Type
REMARK                         _______ _______ _______ _____ _____    ______ ____
ROOT
ATOM      1  C   UNL     1       1.940   8.039  18.899  0.00  0.00    +0.000 A 
ATOM      2  N   UNL     1       1.850   8.915  17.838  0.00  0.00    +0.000 NA
ATOM      3  N   UNL     1       1.431  10.086  18.297  0.00  0.00    +0.000 NA
ATOM      4  N   UNL     1       1.264   9.968  19.630  0.00  0.00    +0.000 N 
ATOM      5  C   UNL     1       1.540   8.689  20.056  0.00  0.00    +0.000 A 
ENDROOT
BRANCH   1   7
ATOM      6  N   UNL     1       3.444   6.348  19.623  0.00  0.00    +0.000 N 
ATOM      7  C   UNL     1       2.418   6.668  18.759  0.00  0.00    +0.000 C 
ATOM      8  O   UNL     1       1.939   5.867  17.961  0.00  0.00    +0.000 OA
ATOM      9  H   UNL     1       3.761   7.066  20.263  0.00  0.00    +0.000 HD
BRANCH   6  10
ATOM     10  C   UNL     1       4.056   5.041  19.670  0.00  0.00    +0.000 C 
BRANCH  10  15
ATOM     11  C   UNL     1       6.152   4.187  16.589  0.00  0.00    +0.000 A 
ATOM     12  C   UNL     1       7.419   4.603  17.006  0.00  0.00    +0.000 A 
ATOM     13  C   UNL     1       7.597   5.171  18.267  0.00  0.00    +0.000 A 
ATOM     14  C   UNL     1       6.507   5.327  19.123  0.00  0.00    +0.000 A 
ATOM     15  C   UNL     1       5.225   4.922  18.722  0.00  0.00    +0.000 A 
ATOM     16  C   UNL     1       5.060   4.350  17.446  0.00  0.00    +0.000 A 
BRANCH  11  18
ATOM     17  C   UNL     1       6.596   4.427  14.264  0.00  0.00    +0.000 C 
ATOM     18  O   UNL     1       6.120   3.629  15.341  0.00  0.00    +0.000 OA
ENDBRANCH  11  18
ENDBRANCH  10  15
ENDBRANCH   6  10
ENDBRANCH   1   7
BRANCH   5  19
ATOM     19  N   UNL     1       1.435   8.278  21.341  0.00  0.00    +0.000 N 
ATOM     20  H   UNL     1       2.128   7.672  21.793  0.00  0.00    +0.000 HD
ATOM     21  H   UNL     1       0.502   8.173  21.749  0.00  0.00    +0.000 HD
ENDBRANCH   5  19
BRANCH   4  22
ATOM     22  C   UNL     1       0.817  11.119  20.382  0.00  0.00    +0.000 C 
BRANCH  22  23
ATOM     23  C   UNL     1      -0.690  11.238  20.383  0.00  0.00    +0.000 C 
ATOM     24  O   UNL     1      -1.299  11.128  21.450  0.00  0.00    +0.000 OA
ATOM     25  N   UNL     1      -1.273  11.454  19.143  0.00  0.00    +0.000 N 
ATOM     26  H   UNL     1      -0.678  11.419  18.322  0.00  0.00    +0.000 HD
BRANCH  25  27
ATOM     27  C   UNL     1      -2.650  11.689  18.901  0.00  0.00    +0.000 A 
ATOM     28  C   UNL     1      -3.490  12.326  19.820  0.00  0.00    +0.000 A 
ATOM     29  C   UNL     1      -4.836  12.564  19.527  0.00  0.00    +0.000 A 
ATOM     30  C   UNL     1      -5.359  12.159  18.305  0.00  0.00    +0.000 A 
ATOM     31 BR   UNL     1      -7.175  12.504  17.905  0.00  0.00    +0.000 Br
ATOM     32  C   UNL     1      -4.545  11.513  17.378  0.00  0.00    +0.000 A 
ATOM     33  C   UNL     1      -3.193  11.284  17.672  0.00  0.00    +0.000 A 
ENDBRANCH  25  27
ENDBRANCH  22  23
ENDBRANCH   4  22
TORSDOF 8
ENDMDL
MODEL 7
REMARK VINA RESULT:      -7.5      3.461      6.233
REMARK  Name = 
REMARK  9 active torsions:
REMARK  status: ('A' for Active; 'I' for Inactive)
REMARK    1  A    between atoms: C_1  and  O_2
REMARK    2  A    between atoms: O_2  and  C_3
REMARK    3  A    between atoms: C_7  and  C_8
REMARK    4  A    between atoms: C_8  and  N_9
REMARK    5  A    between atoms: C_10  and  C_12
REMARK    6  A    between atoms: N_15  and  C_16
REMARK    7  A    between atoms: C_16  and  C_17
REMARK    8  A    between atoms: N_19  and  C_20
REMARK    9  A    between atoms: C_27  and  N_28
REMARK                            x       y       z     vdW  Elec       q    Type
REMARK                         _______ _______ _______ _____ _____    ______ ____
ROOT
ATOM      1  C   UNL     1       2.047   7.172  19.834  0.00  0.00    +0.000 A 
ATOM      2  N   UNL     1       1.522   7.596  21.037  0.00  0.00    +0.000 NA
ATOM      3  N   UNL     1       1.093   8.842  20.890  0.00  0.00    +0.000 NA
ATOM      4  N   UNL     1       1.328   9.209  19.614  0.00  0.00    +0.000 N 
ATOM      5  C   UNL     1       1.957   8.205  18.914  0.00  0.00    +0.000 A 
ENDROOT
BRANCH   1   7
ATOM      6  N   UNL     1       2.593   5.440  18.301  0.00  0.00    +0.000 N 
ATOM      7  C   UNL     1       2.567   5.825  19.625  0.00  0.00    +0.000 C 
ATOM      8  O   UNL     1       2.965   5.110  20.540  0.00  0.00    +0.000 OA
ATOM      9  H   UNL     1       2.264   6.106  17.611  0.00  0.00    +0.000 HD
BRANCH   6  10
ATOM     10  C   UNL     1       3.086   4.156  17.864  0.00  0.00    +0.000 C 
BRANCH  10  15
ATOM     11  C   UNL     1       6.885   4.557  17.736  0.00  0.00    +0.000 A 
ATOM     12  C   UNL     1       7.114   4.485  16.359  0.00  0.00    +0.000 A 
ATOM     13  C   UNL     1       6.052   4.293  15.476  0.00  0.00    +0.000 A 
ATOM     14  C   UNL     1       4.752   4.170  15.963  0.00  0.00    +0.000 A 
ATOM     15  C   UNL     1       4.500   4.233  17.342  0.00  0.00    +0.000 A 
ATOM     16  C   UNL     1       5.581   4.428  18.222  0.00  0.00    +0.000 A 
BRANCH  11  18
ATOM     17  C   UNL     1       7.918   5.735  19.526  0.00  0.00    +0.000 C 
ATOM     18  O   UNL     1       8.008   4.769  18.487  0.00  0.00    +0.000 OA
ENDBRANCH  11  18
ENDBRANCH  10  15
ENDBRANCH   6  10
ENDBRANCH   1   7
BRANCH   5  19
ATOM     19  N   UNL     1       2.333   8.304  17.618  0.00  0.00    +0.000 N 
ATOM     20  H   UNL     1       2.278   7.521  16.958  0.00  0.00    +0.000 HD
ATOM     21  H   UNL     1       3.069   8.971  17.369  0.00  0.00    +0.000 HD
ENDBRANCH   5  19
BRANCH   4  22
ATOM     22  C   UNL     1       0.941  10.535  19.186  0.00  0.00    +0.000 C 
BRANCH  22  23
ATOM     23  C   UNL     1      -0.436  10.906  19.686  0.00  0.00    +0.000 C 
ATOM     24  O   UNL     1      -1.426  10.458  19.101  0.00  0.00    +0.000 OA
ATOM     25  N   UNL     1      -0.465  11.754  20.782  0.00  0.00    +0.000 N 
ATOM     26  H   UNL     1       0.413  12.142  21.111  0.00  0.00    +0.000 HD
BRANCH  25  27
ATOM     27  C   UNL     1      -1.626  12.168  21.484  0.00  0.00    +0.000 A 
ATOM     28  C   UNL     1      -1.931  11.737  22.779  0.00  0.00    +0.000 A 
ATOM     29  C   UNL     1      -3.073  12.195  23.444  0.00  0.00    +0.000 A 
ATOM     30  C   UNL     1      -3.928  13.090  22.813  0.00  0.00    +0.000 A 
ATOM     31 BR   UNL     1      -5.458  13.723  23.726  0.00  0.00    +0.000 Br
ATOM     32  C   UNL     1      -3.650  13.524  21.519  0.00  0.00    +0.000 A 
ATOM     33  C   UNL     1      -2.500  13.070  20.859  0.00  0.00    +0.000 A 
ENDBRANCH  25  27
ENDBRANCH  22  23
ENDBRANCH   4  22
TORSDOF 8
ENDMDL
MODEL 8
REMARK VINA RESULT:      -7.4      4.545     10.158
REMARK  Name = 
REMARK  9 active torsions:
REMARK  status: ('A' for Active; 'I' for Inactive)
REMARK    1  A    between atoms: C_1  and  O_2
REMARK    2  A    between atoms: O_2  and  C_3
REMARK    3  A    between atoms: C_7  and  C_8
REMARK    4  A    between atoms: C_8  and  N_9
REMARK    5  A    between atoms: C_10  and  C_12
REMARK    6  A    between atoms: N_15  and  C_16
REMARK    7  A    between atoms: C_16  and  C_17
REMARK    8  A    between atoms: N_19  and  C_20
REMARK    9  A    between atoms: C_27  and  N_28
REMARK                            x       y       z     vdW  Elec       q    Type
REMARK                         _______ _______ _______ _____ _____    ______ ____
ROOT
ATOM      1  C   UNL     1       0.933   9.759  20.088  0.00  0.00    +0.000 A 
ATOM      2  N   UNL     1       1.455   9.543  18.830  0.00  0.00    +0.000 NA
ATOM      3  N   UNL     1       2.018   8.343  18.811  0.00  0.00    +0.000 NA
ATOM      4  N   UNL     1       1.851   7.793  20.031  0.00  0.00    +0.000 N 
ATOM      5  C   UNL     1       1.202   8.656  20.883  0.00  0.00    +0.000 A 
ENDROOT
BRANCH   1   7
ATOM      6  N   UNL     1      -1.028  11.075  19.823  0.00  0.00    +0.000 N 
ATOM      7  C   UNL     1       0.197  10.967  20.446  0.00  0.00    +0.000 C 
ATOM      8  O   UNL     1       0.620  11.799  21.243  0.00  0.00    +0.000 OA
ATOM      9  H   UNL     1      -1.304  10.328  19.195  0.00  0.00    +0.000 HD
BRANCH   6  10
ATOM     10  C   UNL     1      -1.930  12.180  20.044  0.00  0.00    +0.000 C 
BRANCH  10  15
ATOM     11  C   UNL     1      -4.320  11.400  17.164  0.00  0.00    +0.000 A 
ATOM     12  C   UNL     1      -5.510  11.947  17.651  0.00  0.00    +0.000 A 
ATOM     13  C   UNL     1      -5.549  12.550  18.908  0.00  0.00    +0.000 A 
ATOM     14  C   UNL     1      -4.395  12.612  19.688  0.00  0.00    +0.000 A 
ATOM     15  C   UNL     1      -3.191  12.064  19.222  0.00  0.00    +0.000 A 
ATOM     16  C   UNL     1      -3.166  11.458  17.951  0.00  0.00    +0.000 A 
BRANCH  11  18
ATOM     17  C   UNL     1      -3.212  10.754  15.161  0.00  0.00    +0.000 C 
ATOM     18  O   UNL     1      -4.415  10.859  15.912  0.00  0.00    +0.000 OA
ENDBRANCH  11  18
ENDBRANCH  10  15
ENDBRANCH   6  10
ENDBRANCH   1   7
BRANCH   5  19
ATOM     19  N   UNL     1       0.921   8.377  22.177  0.00  0.00    +0.000 N 
ATOM     20  H   UNL     1       1.636   8.094  22.856  0.00  0.00    +0.000 HD
ATOM     21  H   UNL     1      -0.005   8.008  22.411  0.00  0.00    +0.000 HD
ENDBRANCH   5  19
BRANCH   4  22
ATOM     22  C   UNL     1       2.370   6.465  20.275  0.00  0.00    +0.000 C 
BRANCH  22  23
ATOM     23  C   UNL     1       2.763   5.771  18.992  0.00  0.00    +0.000 C 
ATOM     24  O   UNL     1       1.915   5.116  18.381  0.00  0.00    +0.000 OA
ATOM     25  N   UNL     1       4.088   5.926  18.610  0.00  0.00    +0.000 N 
ATOM     26  H   UNL     1       4.718   6.399  19.249  0.00  0.00    +0.000 HD
BRANCH  25  27
ATOM     27  C   UNL     1       4.667   5.450  17.406  0.00  0.00    +0.000 A 
ATOM     28  C   UNL     1       5.004   4.109  17.197  0.00  0.00    +0.000 A 
ATOM     29  C   UNL     1       5.546   3.679  15.983  0.00  0.00    +0.000 A 
ATOM     30  C   UNL     1       5.762   4.595  14.960  0.00  0.00    +0.000 A 
ATOM     31 BR   UNL     1       6.474   4.004  13.311  0.00  0.00    +0.000 Br
ATOM     32  C   UNL     1       5.445   5.938  15.148  0.00  0.00    +0.000 A 
ATOM     33  C   UNL     1       4.893   6.363  16.365  0.00  0.00    +0.000 A 
ENDBRANCH  25  27
ENDBRANCH  22  23
ENDBRANCH   4  22
TORSDOF 8
ENDMDL
MODEL 9
REMARK VINA RESULT:      -7.4      4.749      9.321
REMARK  Name = 
REMARK  9 active torsions:
REMARK  status: ('A' for Active; 'I' for Inactive)
REMARK    1  A    between atoms: C_1  and  O_2
REMARK    2  A    between atoms: O_2  and  C_3
REMARK    3  A    between atoms: C_7  and  C_8
REMARK    4  A    between atoms: C_8  and  N_9
REMARK    5  A    between atoms: C_10  and  C_12
REMARK    6  A    between atoms: N_15  and  C_16
REMARK    7  A    between atoms: C_16  and  C_17
REMARK    8  A    between atoms: N_19  and  C_20
REMARK    9  A    between atoms: C_27  and  N_28
REMARK                            x       y       z     vdW  Elec       q    Type
REMARK                         _______ _______ _______ _____ _____    ______ ____
ROOT
ATOM      1  C   UNL     1       4.014   5.467  19.061  0.00  0.00    +0.000 A 
ATOM      2  N   UNL     1       4.943   4.527  19.454  0.00  0.00    +0.000 NA
ATOM      3  N   UNL     1       6.082   4.775  18.822  0.00  0.00    +0.000 NA
ATOM      4  N   UNL     1       5.891   5.860  18.044  0.00  0.00    +0.000 N 
ATOM      5  C   UNL     1       4.596   6.316  18.133  0.00  0.00    +0.000 A 
ENDROOT
BRANCH   1   7
ATOM      6  N   UNL     1       2.408   6.643  20.358  0.00  0.00    +0.000 N 
ATOM      7  C   UNL     1       2.660   5.519  19.601  0.00  0.00    +0.000 C 
ATOM      8  O   UNL     1       1.816   4.654  19.384  0.00  0.00    +0.000 OA
ATOM      9  H   UNL     1       3.159   7.316  20.466  0.00  0.00    +0.000 HD
BRANCH   6  10
ATOM     10  C   UNL     1       1.129   6.909  20.974  0.00  0.00    +0.000 C 
BRANCH  10  15
ATOM     11  C   UNL     1      -0.115  10.298  22.230  0.00  0.00    +0.000 A 
ATOM     12  C   UNL     1       0.153  11.107  21.123  0.00  0.00    +0.000 A 
ATOM     13  C   UNL     1       0.747  10.568  19.982  0.00  0.00    +0.000 A 
ATOM     14  C   UNL     1       1.077   9.214  19.939  0.00  0.00    +0.000 A 
ATOM     15  C   UNL     1       0.822   8.385  21.042  0.00  0.00    +0.000 A 
ATOM     16  C   UNL     1       0.222   8.942  22.187  0.00  0.00    +0.000 A 
BRANCH  11  18
ATOM     17  C   UNL     1      -1.282  12.221  23.003  0.00  0.00    +0.000 C 
ATOM     18  O   UNL     1      -0.717  10.946  23.274  0.00  0.00    +0.000 OA
ENDBRANCH  11  18
ENDBRANCH  10  15
ENDBRANCH   6  10
ENDBRANCH   1   7
BRANCH   5  19
ATOM     19  N   UNL     1       4.117   7.377  17.444  0.00  0.00    +0.000 N 
ATOM     20  H   UNL     1       4.662   7.875  16.732  0.00  0.00    +0.000 HD
ATOM     21  H   UNL     1       3.421   7.981  17.891  0.00  0.00    +0.000 HD
ENDBRANCH   5  19
BRANCH   4  22
ATOM     22  C   UNL     1       6.994   6.351  17.249  0.00  0.00    +0.000 C 
BRANCH  22  23
ATOM     23  C   UNL     1       7.796   7.398  17.987  0.00  0.00    +0.000 C 
ATOM     24  O   UNL     1       8.526   7.047  18.917  0.00  0.00    +0.000 OA
ATOM     25  N   UNL     1       7.624   8.702  17.547  0.00  0.00    +0.000 N 
ATOM     26  H   UNL     1       6.915   8.881  16.844  0.00  0.00    +0.000 HD
BRANCH  25  27
ATOM     27  C   UNL     1       8.331   9.838  18.017  0.00  0.00    +0.000 A 
ATOM     28  C   UNL     1       8.208  11.107  17.443  0.00  0.00    +0.000 A 
ATOM     29  C   UNL     1       8.902  12.206  17.958  0.00  0.00    +0.000 A 
ATOM     30  C   UNL     1       9.735  12.043  19.059  0.00  0.00    +0.000 A 
ATOM     31 BR   UNL     1      10.653  13.537  19.765  0.00  0.00    +0.000 Br
ATOM     32  C   UNL     1       9.882  10.786  19.641  0.00  0.00    +0.000 A 
ATOM     33  C   UNL     1       9.177   9.688  19.127  0.00  0.00    +0.000 A 
ENDBRANCH  25  27
ENDBRANCH  22  23
ENDBRANCH   4  22
TORSDOF 8
ENDMDL
