MODEL 1
REMARK VINA RESULT:      -7.3      0.000      0.000
REMARK  Name = 
REMARK  5 active torsions:
REMARK  status: ('A' for Active; 'I' for Inactive)
REMARK    1  A    between atoms: C_1  and  N_2
REMARK    2  A    between atoms: C_4  and  C_5
REMARK    3  A    between atoms: C_8  and  C_9
REMARK    4  A    between atoms: C_12  and  N_13
REMARK    5  A    between atoms: C_16  and  N_17
REMARK                            x       y       z     vdW  Elec       q    Type
REMARK                         _______ _______ _______ _____ _____    ______ ____
ROOT
ATOM      1  C   UNL     1      10.082  13.368  18.343  0.00  0.00    +0.000 A 
ATOM      2  C   UNL     1      10.814  13.685  17.188  0.00  0.00    +0.000 A 
ATOM      3  N   UNL     1      11.412  14.865  16.920  0.00  0.00    +0.000 NA
ATOM      4  C   UNL     1      11.307  15.817  17.854  0.00  0.00    +0.000 A 
ATOM      5  C   UNL     1      10.647  15.618  19.085  0.00  0.00    +0.000 A 
ATOM      6 CL   UNL     1      10.782  16.918  20.243  0.00  0.00    +0.000 Cl
ATOM      7  C   UNL     1       9.997  14.377  19.366  0.00  0.00    +0.000 A 
ENDROOT
BRANCH   7   8
ATOM      8  N   UNL     1       9.253  14.128  20.541  0.00  0.00    +0.000 N 
ATOM      9  C   UNL     1       8.004  14.842  20.818  0.00  0.00    +0.000 C 
ATOM     10  C   UNL     1       7.028  13.855  21.443  0.00  0.00    +0.000 C 
ATOM     11  C   UNL     1       7.621  13.162  22.667  0.00  0.00    +0.000 C 
ATOM     12  C   UNL     1       9.076  12.717  22.546  0.00  0.00    +0.000 C 
ATOM     13  C   UNL     1       9.960  13.695  21.758  0.00  0.00    +0.000 C 
ATOM     14  N   UNL     1       6.764  12.046  23.056  0.00  0.00    +0.000 N 
ATOM     15  C   UNL     1       6.163  12.241  24.272  0.00  0.00    +0.000 C 
ATOM     16  O   UNL     1       5.398  11.459  24.805  0.00  0.00    +0.000 OA
ATOM     17  N   UNL     1       6.571  13.430  24.764  0.00  0.00    +0.000 N 
ATOM     18  C   UNL     1       7.461  14.029  23.925  0.00  0.00    +0.000 C 
ATOM     19  O   UNL     1       8.032  15.083  24.150  0.00  0.00    +0.000 OA
ATOM     20  H   UNL     1       6.559  11.230  22.495  0.00  0.00    +0.000 HD
ATOM     21  H   UNL     1       6.307  13.785  25.666  0.00  0.00    +0.000 HD
ENDBRANCH   7   8
BRANCH   1  25
ATOM     22  C   UNL     1       8.377   9.381  18.254  0.00  0.00    +0.000 A 
ATOM     23  C   UNL     1       7.782  10.418  17.531  0.00  0.00    +0.000 A 
ATOM     24  C   UNL     1       8.307  11.720  17.587  0.00  0.00    +0.000 A 
ATOM     25  C   UNL     1       9.417  12.033  18.393  0.00  0.00    +0.000 A 
ATOM     26  C   UNL     1       9.880  11.017  19.240  0.00  0.00    +0.000 A 
ATOM     27  C   UNL     1       9.403   9.702  19.141  0.00  0.00    +0.000 A 
BRANCH  22  31
ATOM     28  C   UNL     1       6.125   5.321  16.511  0.00  0.00    +0.000 C 
ATOM     29  N   UNL     1       6.936   6.226  17.283  0.00  0.00    +0.000 N 
ATOM     30  C   UNL     1       7.105   7.566  17.076  0.00  0.00    +0.000 A 
ATOM     31  C   UNL     1       7.956   8.005  18.066  0.00  0.00    +0.000 A 
ATOM     32  C   UNL     1       8.224   6.846  18.825  0.00  0.00    +0.000 A 
ATOM     33  N   UNL     1       7.610   5.760  18.344  0.00  0.00    +0.000 NA
ENDBRANCH  22  31
ENDBRANCH   1  25
BRANCH   4  34
ATOM     34  N   UNL     1      11.830  17.054  17.469  0.00  0.00    +0.000 N 
ATOM     35  H   UNL     1      11.836  17.662  18.283  0.00  0.00    +0.000 HD
ATOM     36  H   UNL     1      11.354  17.444  16.665  0.00  0.00    +0.000 HD
ENDBRANCH   4  34
TORSDOF 4
ENDMDL
MODEL 2
REMARK VINA RESULT:      -7.2      7.546     10.040
REMARK  Name = 
REMARK  5 active torsions:
REMARK  status: ('A' for Active; 'I' for Inactive)
REMARK    1  A    between atoms: C_1  and  N_2
REMARK    2  A    between atoms: C_4  and  C_5
REMARK    3  A    between atoms: C_8  and  C_9
REMARK    4  A    between atoms: C_12  and  N_13
REMARK    5  A    between atoms: C_16  and  N_17
REMARK                            x       y       z     vdW  Elec       q    Type
REMARK                         _______ _______ _______ _____ _____    ______ ____
ROOT
ATOM      1  C   UNL     1      -1.818  12.654  22.361  0.00  0.00    +0.000 A 
ATOM      2  C   UNL     1      -2.844  12.217  23.214  0.00  0.00    +0.000 A 
ATOM      3  N   UNL     1      -3.528  12.977  24.095  0.00  0.00    +0.000 NA
ATOM      4  C   UNL     1      -3.205  14.274  24.147  0.00  0.00    +0.000 A 
ATOM      5  C   UNL     1      -2.231  14.858  23.310  0.00  0.00    +0.000 A 
ATOM      6 CL   UNL     1      -2.088  16.596  23.402  0.00  0.00    +0.000 Cl
ATOM      7  C   UNL     1      -1.490  14.055  22.389  0.00  0.00    +0.000 A 
ENDROOT
BRANCH   7   8
ATOM      8  N   UNL     1      -0.449  14.552  21.573  0.00  0.00    +0.000 N 
ATOM      9  C   UNL     1       0.813  15.021  22.150  0.00  0.00    +0.000 C 
ATOM     10  C   UNL     1       1.942  14.579  21.231  0.00  0.00    +0.000 C 
ATOM     11  C   UNL     1       1.720  15.035  19.791  0.00  0.00    +0.000 C 
ATOM     12  C   UNL     1       0.296  14.899  19.257  0.00  0.00    +0.000 C 
ATOM     13  C   UNL     1      -0.789  15.207  20.299  0.00  0.00    +0.000 C 
ATOM     14  N   UNL     1       2.674  14.360  18.915  0.00  0.00    +0.000 N 
ATOM     15  C   UNL     1       3.579  15.225  18.356  0.00  0.00    +0.000 C 
ATOM     16  O   UNL     1       4.476  14.901  17.600  0.00  0.00    +0.000 OA
ATOM     17  N   UNL     1       3.296  16.474  18.782  0.00  0.00    +0.000 N 
ATOM     18  C   UNL     1       2.199  16.481  19.589  0.00  0.00    +0.000 C 
ATOM     19  O   UNL     1       1.689  17.481  20.065  0.00  0.00    +0.000 OA
ATOM     20  H   UNL     1       2.734  13.363  18.758  0.00  0.00    +0.000 HD
ATOM     21  H   UNL     1       3.789  17.295  18.479  0.00  0.00    +0.000 HD
ENDBRANCH   7   8
BRANCH   1  25
ATOM     22  C   UNL     1       0.454   9.889  19.910  0.00  0.00    +0.000 A 
ATOM     23  C   UNL     1      -0.608  10.609  19.359  0.00  0.00    +0.000 A 
ATOM     24  C   UNL     1      -1.373  11.477  20.158  0.00  0.00    +0.000 A 
ATOM     25  C   UNL     1      -1.123  11.623  21.535  0.00  0.00    +0.000 A 
ATOM     26  C   UNL     1      -0.172  10.759  22.092  0.00  0.00    +0.000 A 
ATOM     27  C   UNL     1       0.637   9.939  21.292  0.00  0.00    +0.000 A 
BRANCH  22  31
ATOM     28  C   UNL     1       3.586   6.420  18.253  0.00  0.00    +0.000 C 
ATOM     29  N   UNL     1       2.751   7.587  18.361  0.00  0.00    +0.000 N 
ATOM     30  C   UNL     1       1.949   7.936  19.411  0.00  0.00    +0.000 A 
ATOM     31  C   UNL     1       1.357   9.131  19.065  0.00  0.00    +0.000 A 
ATOM     32  C   UNL     1       1.889   9.419  17.790  0.00  0.00    +0.000 A 
ATOM     33  N   UNL     1       2.732   8.476  17.357  0.00  0.00    +0.000 NA
ENDBRANCH  22  31
ENDBRANCH   1  25
BRANCH   4  34
ATOM     34  N   UNL     1      -3.850  14.982  25.163  0.00  0.00    +0.000 N 
ATOM     35  H   UNL     1      -3.350  14.816  26.032  0.00  0.00    +0.000 HD
ATOM     36  H   UNL     1      -4.841  14.779  25.211  0.00  0.00    +0.000 HD
ENDBRANCH   4  34
TORSDOF 4
ENDMDL
MODEL 3
REMARK VINA RESULT:      -7.0      7.391      9.941
REMARK  Name = 
REMARK  5 active torsions:
REMARK  status: ('A' for Active; 'I' for Inactive)
REMARK    1  A    between atoms: C_1  and  N_2
REMARK    2  A    between atoms: C_4  and  C_5
REMARK    3  A    between atoms: C_8  and  C_9
REMARK    4  A    between atoms: C_12  and  N_13
REMARK    5  A    between atoms: C_16  and  N_17
REMARK                            x       y       z     vdW  Elec       q    Type
REMARK                         _______ _______ _______ _____ _____    ______ ____
ROOT
ATOM      1  C   UNL     1      -1.508  12.150  22.477  0.00  0.00    +0.000 A 
ATOM      2  C   UNL     1      -2.557  11.708  23.297  0.00  0.00    +0.000 A 
ATOM      3  N   UNL     1      -3.457  12.487  23.933  0.00  0.00    +0.000 NA
ATOM      4  C   UNL     1      -3.344  13.807  23.749  0.00  0.00    +0.000 A 
ATOM      5  C   UNL     1      -2.370  14.386  22.908  0.00  0.00    +0.000 A 
ATOM      6 CL   UNL     1      -2.507  16.108  22.654  0.00  0.00    +0.000 Cl
ATOM      7  C   UNL     1      -1.404  13.567  22.248  0.00  0.00    +0.000 A 
ENDROOT
BRANCH   7   8
ATOM      8  N   UNL     1      -0.353  14.077  21.451  0.00  0.00    +0.000 N 
ATOM      9  C   UNL     1       0.822  14.710  22.054  0.00  0.00    +0.000 C 
ATOM     10  C   UNL     1       2.045  14.286  21.254  0.00  0.00    +0.000 C 
ATOM     11  C   UNL     1       1.886  14.585  19.765  0.00  0.00    +0.000 C 
ATOM     12  C   UNL     1       0.519  14.272  19.162  0.00  0.00    +0.000 C 
ATOM     13  C   UNL     1      -0.658  14.577  20.100  0.00  0.00    +0.000 C 
ATOM     14  N   UNL     1       2.951  13.920  19.020  0.00  0.00    +0.000 N 
ATOM     15  C   UNL     1       3.817  14.806  18.435  0.00  0.00    +0.000 C 
ATOM     16  O   UNL     1       4.789  14.495  17.771  0.00  0.00    +0.000 OA
ATOM     17  N   UNL     1       3.402  16.059  18.717  0.00  0.00    +0.000 N 
ATOM     18  C   UNL     1       2.256  16.043  19.451  0.00  0.00    +0.000 C 
ATOM     19  O   UNL     1       1.632  17.033  19.794  0.00  0.00    +0.000 OA
ATOM     20  H   UNL     1       3.105  12.922  18.966  0.00  0.00    +0.000 HD
ATOM     21  H   UNL     1       3.845  16.890  18.365  0.00  0.00    +0.000 HD
ENDBRANCH   7   8
BRANCH   1  25
ATOM     22  C   UNL     1       0.963   8.960  20.886  0.00  0.00    +0.000 A 
ATOM     23  C   UNL     1       0.819   9.118  22.266  0.00  0.00    +0.000 A 
ATOM     24  C   UNL     1       0.051  10.173  22.788  0.00  0.00    +0.000 A 
ATOM     25  C   UNL     1      -0.563  11.121  21.950  0.00  0.00    +0.000 A 
ATOM     26  C   UNL     1      -0.255  11.042  20.586  0.00  0.00    +0.000 A 
ATOM     27  C   UNL     1       0.456   9.956  20.053  0.00  0.00    +0.000 A 
BRANCH  22  31
ATOM     28  C   UNL     1       3.445   5.896  17.878  0.00  0.00    +0.000 C 
ATOM     29  N   UNL     1       2.693   6.441  18.978  0.00  0.00    +0.000 N 
ATOM     30  C   UNL     1       2.300   7.740  19.147  0.00  0.00    +0.000 A 
ATOM     31  C   UNL     1       1.601   7.780  20.334  0.00  0.00    +0.000 A 
ATOM     32  C   UNL     1       1.621   6.444  20.787  0.00  0.00    +0.000 A 
ATOM     33  N   UNL     1       2.293   5.629  19.967  0.00  0.00    +0.000 NA
ENDBRANCH  22  31
ENDBRANCH   1  25
BRANCH   4  34
ATOM     34  N   UNL     1      -4.215  14.569  24.530  0.00  0.00    +0.000 N 
ATOM     35  H   UNL     1      -3.922  14.491  25.500  0.00  0.00    +0.000 HD
ATOM     36  H   UNL     1      -5.187  14.333  24.373  0.00  0.00    +0.000 HD
ENDBRANCH   4  34
TORSDOF 4
ENDMDL
MODEL 4
REMARK VINA RESULT:      -6.9      7.960     10.468
REMARK  Name = 
REMARK  5 active torsions:
REMARK  status: ('A' for Active; 'I' for Inactive)
REMARK    1  A    between atoms: C_1  and  N_2
REMARK    2  A    between atoms: C_4  and  C_5
REMARK    3  A    between atoms: C_8  and  C_9
REMARK    4  A    between atoms: C_12  and  N_13
REMARK    5  A    between atoms: C_16  and  N_17
REMARK                            x       y       z     vdW  Elec       q    Type
REMARK                         _______ _______ _______ _____ _____    ______ ____
ROOT
ATOM      1  C   UNL     1      -2.404  13.213  22.695  0.00  0.00    +0.000 A 
ATOM      2  C   UNL     1      -3.505  12.954  23.526  0.00  0.00    +0.000 A 
ATOM      3  N   UNL     1      -4.209  13.867  24.228  0.00  0.00    +0.000 NA
ATOM      4  C   UNL     1      -3.826  15.144  24.104  0.00  0.00    +0.000 A 
ATOM      5  C   UNL     1      -2.771  15.552  23.262  0.00  0.00    +0.000 A 
ATOM      6 CL   UNL     1      -2.549  17.277  23.098  0.00  0.00    +0.000 Cl
ATOM      7  C   UNL     1      -2.011  14.587  22.532  0.00  0.00    +0.000 A 
ENDROOT
BRANCH   7   8
ATOM      8  N   UNL     1      -0.894  14.911  21.729  0.00  0.00    +0.000 N 
ATOM      9  C   UNL     1       0.398  15.259  22.325  0.00  0.00    +0.000 C 
ATOM     10  C   UNL     1       1.491  14.634  21.470  0.00  0.00    +0.000 C 
ATOM     11  C   UNL     1       1.368  15.033  20.002  0.00  0.00    +0.000 C 
ATOM     12  C   UNL     1      -0.046  15.038  19.425  0.00  0.00    +0.000 C 
ATOM     13  C   UNL     1      -1.115  15.530  20.411  0.00  0.00    +0.000 C 
ATOM     14  N   UNL     1       2.258  14.202  19.196  0.00  0.00    +0.000 N 
ATOM     15  C   UNL     1       3.276  14.920  18.626  0.00  0.00    +0.000 C 
ATOM     16  O   UNL     1       4.150  14.451  17.920  0.00  0.00    +0.000 OA
ATOM     17  N   UNL     1       3.135  16.217  18.976  0.00  0.00    +0.000 N 
ATOM     18  C   UNL     1       2.024  16.398  19.742  0.00  0.00    +0.000 C 
ATOM     19  O   UNL     1       1.624  17.477  20.148  0.00  0.00    +0.000 OA
ATOM     20  H   UNL     1       2.202  13.198  19.093  0.00  0.00    +0.000 HD
ATOM     21  H   UNL     1       3.732  16.955  18.649  0.00  0.00    +0.000 HD
ENDBRANCH   7   8
BRANCH   1  25
ATOM     22  C   UNL     1      -0.085   9.986  20.955  0.00  0.00    +0.000 A 
ATOM     23  C   UNL     1      -0.817  10.849  20.136  0.00  0.00    +0.000 A 
ATOM     24  C   UNL     1      -1.601  11.872  20.696  0.00  0.00    +0.000 A 
ATOM     25  C   UNL     1      -1.707  12.041  22.089  0.00  0.00    +0.000 A 
ATOM     26  C   UNL     1      -1.108  11.055  22.884  0.00  0.00    +0.000 A 
ATOM     27  C   UNL     1      -0.273  10.071  22.334  0.00  0.00    +0.000 A 
BRANCH  22  31
ATOM     28  C   UNL     1       2.996   7.686  17.824  0.00  0.00    +0.000 C 
ATOM     29  N   UNL     1       2.211   8.040  18.977  0.00  0.00    +0.000 N 
ATOM     30  C   UNL     1       1.416   9.141  19.131  0.00  0.00    +0.000 A 
ATOM     31  C   UNL     1       0.862   9.045  20.388  0.00  0.00    +0.000 A 
ATOM     32  C   UNL     1       1.381   7.836  20.899  0.00  0.00    +0.000 A 
ATOM     33  N   UNL     1       2.208   7.227  20.044  0.00  0.00    +0.000 NA
ENDBRANCH  22  31
ENDBRANCH   1  25
BRANCH   4  34
ATOM     34  N   UNL     1      -4.502  16.026  24.950  0.00  0.00    +0.000 N 
ATOM     35  H   UNL     1      -3.837  16.716  25.286  0.00  0.00    +0.000 HD
ATOM     36  H   UNL     1      -5.009  15.549  25.685  0.00  0.00    +0.000 HD
ENDBRANCH   4  34
TORSDOF 4
ENDMDL
MODEL 5
REMARK VINA RESULT:      -6.7      7.353      9.866
REMARK  Name = 
REMARK  5 active torsions:
REMARK  status: ('A' for Active; 'I' for Inactive)
REMARK    1  A    between atoms: C_1  and  N_2
REMARK    2  A    between atoms: C_4  and  C_5
REMARK    3  A    between atoms: C_8  and  C_9
REMARK    4  A    between atoms: C_12  and  N_13
REMARK    5  A    between atoms: C_16  and  N_17
REMARK                            x       y       z     vdW  Elec       q    Type
REMARK                         _______ _______ _______ _____ _____    ______ ____
ROOT
ATOM      1  C   UNL     1      -1.162  11.816  22.181  0.00  0.00    +0.000 A 
ATOM      2  C   UNL     1      -2.119  11.435  23.135  0.00  0.00    +0.000 A 
ATOM      3  N   UNL     1      -2.967  12.256  23.789  0.00  0.00    +0.000 NA
ATOM      4  C   UNL     1      -2.896  13.557  23.484  0.00  0.00    +0.000 A 
ATOM      5  C   UNL     1      -2.019  14.072  22.506  0.00  0.00    +0.000 A 
ATOM      6 CL   UNL     1      -2.210  15.765  22.125  0.00  0.00    +0.000 Cl
ATOM      7  C   UNL     1      -1.107  13.209  21.825  0.00  0.00    +0.000 A 
ENDROOT
BRANCH   7   8
ATOM      8  N   UNL     1      -0.148  13.660  20.889  0.00  0.00    +0.000 N 
ATOM      9  C   UNL     1      -0.378  13.544  19.448  0.00  0.00    +0.000 C 
ATOM     10  C   UNL     1       0.162  14.802  18.784  0.00  0.00    +0.000 C 
ATOM     11  C   UNL     1       1.620  15.063  19.152  0.00  0.00    +0.000 C 
ATOM     12  C   UNL     1       1.993  14.835  20.615  0.00  0.00    +0.000 C 
ATOM     13  C   UNL     1       1.277  13.638  21.258  0.00  0.00    +0.000 C 
ATOM     14  N   UNL     1       1.998  16.405  18.719  0.00  0.00    +0.000 N 
ATOM     15  C   UNL     1       2.937  16.392  17.721  0.00  0.00    +0.000 C 
ATOM     16  O   UNL     1       3.403  17.383  17.189  0.00  0.00    +0.000 OA
ATOM     17  N   UNL     1       3.250  15.108  17.445  0.00  0.00    +0.000 N 
ATOM     18  C   UNL     1       2.571  14.252  18.257  0.00  0.00    +0.000 C 
ATOM     19  O   UNL     1       2.706  13.040  18.263  0.00  0.00    +0.000 OA
ATOM     20  H   UNL     1       1.594  17.272  19.048  0.00  0.00    +0.000 HD
ATOM     21  H   UNL     1       3.949  14.832  16.778  0.00  0.00    +0.000 HD
ENDBRANCH   7   8
BRANCH   1  25
ATOM     22  C   UNL     1       1.207   8.516  20.661  0.00  0.00    +0.000 A 
ATOM     23  C   UNL     1       1.284   8.876  22.008  0.00  0.00    +0.000 A 
ATOM     24  C   UNL     1       0.548   9.969  22.498  0.00  0.00    +0.000 A 
ATOM     25  C   UNL     1      -0.255  10.755  21.652  0.00  0.00    +0.000 A 
ATOM     26  C   UNL     1      -0.173  10.481  20.281  0.00  0.00    +0.000 A 
ATOM     27  C   UNL     1       0.507   9.354  19.794  0.00  0.00    +0.000 A 
BRANCH  22  31
ATOM     28  C   UNL     1       3.646   5.229  17.861  0.00  0.00    +0.000 C 
ATOM     29  N   UNL     1       2.892   5.852  18.916  0.00  0.00    +0.000 N 
ATOM     30  C   UNL     1       2.536   7.169  19.013  0.00  0.00    +0.000 A 
ATOM     31  C   UNL     1       1.818   7.291  20.181  0.00  0.00    +0.000 A 
ATOM     32  C   UNL     1       1.788   5.979  20.702  0.00  0.00    +0.000 A 
ATOM     33  N   UNL     1       2.448   5.104  19.937  0.00  0.00    +0.000 NA
ENDBRANCH  22  31
ENDBRANCH   1  25
BRANCH   4  34
ATOM     34  N   UNL     1      -3.701  14.374  24.282  0.00  0.00    +0.000 N 
ATOM     35  H   UNL     1      -3.130  14.739  25.039  0.00  0.00    +0.000 HD
ATOM     36  H   UNL     1      -4.546  13.908  24.588  0.00  0.00    +0.000 HD
ENDBRANCH   4  34
TORSDOF 4
ENDMDL
MODEL 6
REMARK VINA RESULT:      -6.7      7.288      9.779
REMARK  Name = 
REMARK  5 active torsions:
REMARK  status: ('A' for Active; 'I' for Inactive)
REMARK    1  A    between atoms: C_1  and  N_2
REMARK    2  A    between atoms: C_4  and  C_5
REMARK    3  A    between atoms: C_8  and  C_9
REMARK    4  A    between atoms: C_12  and  N_13
REMARK    5  A    between atoms: C_16  and  N_17
REMARK                            x       y       z     vdW  Elec       q    Type
REMARK                         _______ _______ _______ _____ _____    ______ ____
ROOT
ATOM      1  C   UNL     1      -1.334  12.093  22.117  0.00  0.00    +0.000 A 
ATOM      2  C   UNL     1      -2.288  11.778  23.096  0.00  0.00    +0.000 A 
ATOM      3  N   UNL     1      -2.951  12.655  23.878  0.00  0.00    +0.000 NA
ATOM      4  C   UNL     1      -2.682  13.952  23.687  0.00  0.00    +0.000 A 
ATOM      5  C   UNL     1      -1.785  14.414  22.701  0.00  0.00    +0.000 A 
ATOM      6 CL   UNL     1      -1.712  16.145  22.487  0.00  0.00    +0.000 Cl
ATOM      7  C   UNL     1      -1.066  13.488  21.884  0.00  0.00    +0.000 A 
ENDROOT
BRANCH   7   8
ATOM      8  N   UNL     1      -0.097  13.870  20.929  0.00  0.00    +0.000 N 
ATOM      9  C   UNL     1      -0.421  13.941  19.502  0.00  0.00    +0.000 C 
ATOM     10  C   UNL     1       0.287  15.156  18.921  0.00  0.00    +0.000 C 
ATOM     11  C   UNL     1       1.786  15.137  19.208  0.00  0.00    +0.000 C 
ATOM     12  C   UNL     1       2.194  14.703  20.614  0.00  0.00    +0.000 C 
ATOM     13  C   UNL     1       1.322  13.579  21.193  0.00  0.00    +0.000 C 
ATOM     14  N   UNL     1       2.362  16.437  18.875  0.00  0.00    +0.000 N 
ATOM     15  C   UNL     1       3.229  16.374  17.816  0.00  0.00    +0.000 C 
ATOM     16  O   UNL     1       3.826  17.325  17.346  0.00  0.00    +0.000 OA
ATOM     17  N   UNL     1       3.306  15.091  17.401  0.00  0.00    +0.000 N 
ATOM     18  C   UNL     1       2.536  14.279  18.177  0.00  0.00    +0.000 C 
ATOM     19  O   UNL     1       2.465  13.067  18.063  0.00  0.00    +0.000 OA
ATOM     20  H   UNL     1       2.128  17.319  19.310  0.00  0.00    +0.000 HD
ATOM     21  H   UNL     1       3.911  14.774  16.665  0.00  0.00    +0.000 HD
ENDBRANCH   7   8
BRANCH   1  25
ATOM     22  C   UNL     1       0.938   9.006  20.086  0.00  0.00    +0.000 A 
ATOM     23  C   UNL     1      -0.030   9.739  19.394  0.00  0.00    +0.000 A 
ATOM     24  C   UNL     1      -0.796  10.714  20.056  0.00  0.00    +0.000 A 
ATOM     25  C   UNL     1      -0.645  10.959  21.434  0.00  0.00    +0.000 A 
ATOM     26  C   UNL     1       0.202  10.090  22.134  0.00  0.00    +0.000 A 
ATOM     27  C   UNL     1       1.016   9.160  21.470  0.00  0.00    +0.000 A 
BRANCH  22  31
ATOM     28  C   UNL     1       3.957   5.234  18.970  0.00  0.00    +0.000 C 
ATOM     29  N   UNL     1       3.194   6.453  18.917  0.00  0.00    +0.000 N 
ATOM     30  C   UNL     1       2.336   6.934  19.867  0.00  0.00    +0.000 A 
ATOM     31  C   UNL     1       1.853   8.129  19.381  0.00  0.00    +0.000 A 
ATOM     32  C   UNL     1       2.500   8.278  18.136  0.00  0.00    +0.000 A 
ATOM     33  N   UNL     1       3.310   7.254  17.849  0.00  0.00    +0.000 NA
ENDBRANCH  22  31
ENDBRANCH   1  25
BRANCH   4  34
ATOM     34  N   UNL     1      -3.296  14.804  24.608  0.00  0.00    +0.000 N 
ATOM     35  H   UNL     1      -4.072  14.304  25.033  0.00  0.00    +0.000 HD
ATOM     36  H   UNL     1      -3.551  15.696  24.203  0.00  0.00    +0.000 HD
ENDBRANCH   4  34
TORSDOF 4
ENDMDL
MODEL 7
REMARK VINA RESULT:      -6.7     11.484     14.081
REMARK  Name = 
REMARK  5 active torsions:
REMARK  status: ('A' for Active; 'I' for Inactive)
REMARK    1  A    between atoms: C_1  and  N_2
REMARK    2  A    between atoms: C_4  and  C_5
REMARK    3  A    between atoms: C_8  and  C_9
REMARK    4  A    between atoms: C_12  and  N_13
REMARK    5  A    between atoms: C_16  and  N_17
REMARK                            x       y       z     vdW  Elec       q    Type
REMARK                         _______ _______ _______ _____ _____    ______ ____
ROOT
ATOM      1  C   UNL     1      -3.767  15.141  24.054  0.00  0.00    +0.000 A 
ATOM      2  C   UNL     1      -3.275  16.051  25.002  0.00  0.00    +0.000 A 
ATOM      3  N   UNL     1      -3.902  17.161  25.445  0.00  0.00    +0.000 NA
ATOM      4  C   UNL     1      -5.117  17.406  24.940  0.00  0.00    +0.000 A 
ATOM      5  C   UNL     1      -5.754  16.548  24.020  0.00  0.00    +0.000 A 
ATOM      6 CL   UNL     1      -7.408  16.946  23.624  0.00  0.00    +0.000 Cl
ATOM      7  C   UNL     1      -5.087  15.382  23.534  0.00  0.00    +0.000 A 
ENDROOT
BRANCH   7   8
ATOM      8  N   UNL     1      -5.628  14.516  22.556  0.00  0.00    +0.000 N 
ATOM      9  C   UNL     1      -5.155  14.541  21.171  0.00  0.00    +0.000 C 
ATOM     10  C   UNL     1      -5.103  13.105  20.668  0.00  0.00    +0.000 C 
ATOM     11  C   UNL     1      -6.438  12.387  20.846  0.00  0.00    +0.000 C 
ATOM     12  C   UNL     1      -7.160  12.634  22.168  0.00  0.00    +0.000 C 
ATOM     13  C   UNL     1      -7.026  14.072  22.689  0.00  0.00    +0.000 C 
ATOM     14  N   UNL     1      -6.258  10.958  20.607  0.00  0.00    +0.000 N 
ATOM     15  C   UNL     1      -6.920  10.523  19.489  0.00  0.00    +0.000 C 
ATOM     16  O   UNL     1      -6.914   9.377  19.077  0.00  0.00    +0.000 OA
ATOM     17  N   UNL     1      -7.571  11.572  18.942  0.00  0.00    +0.000 N 
ATOM     18  C   UNL     1      -7.393  12.700  19.683  0.00  0.00    +0.000 C 
ATOM     19  O   UNL     1      -7.916  13.777  19.451  0.00  0.00    +0.000 OA
ATOM     20  H   UNL     1      -5.670  10.336  21.144  0.00  0.00    +0.000 HD
ATOM     21  H   UNL     1      -8.167  11.504  18.136  0.00  0.00    +0.000 HD
ENDBRANCH   7   8
BRANCH   1  25
ATOM     22  C   UNL     1      -1.306  11.915  22.521  0.00  0.00    +0.000 A 
ATOM     23  C   UNL     1      -2.394  11.637  23.352  0.00  0.00    +0.000 A 
ATOM     24  C   UNL     1      -3.172  12.680  23.883  0.00  0.00    +0.000 A 
ATOM     25  C   UNL     1      -2.864  14.030  23.631  0.00  0.00    +0.000 A 
ATOM     26  C   UNL     1      -1.669  14.281  22.945  0.00  0.00    +0.000 A 
ATOM     27  C   UNL     1      -0.925  13.246  22.358  0.00  0.00    +0.000 A 
BRANCH  22  31
ATOM     28  C   UNL     1       1.216   9.357  19.102  0.00  0.00    +0.000 C 
ATOM     29  N   UNL     1       0.498   9.736  20.290  0.00  0.00    +0.000 N 
ATOM     30  C   UNL     1       0.007  10.974  20.600  0.00  0.00    +0.000 A 
ATOM     31  C   UNL     1      -0.608  10.850  21.826  0.00  0.00    +0.000 A 
ATOM     32  C   UNL     1      -0.441   9.488  22.156  0.00  0.00    +0.000 A 
ATOM     33  N   UNL     1       0.240   8.811  21.225  0.00  0.00    +0.000 NA
ENDBRANCH  22  31
ENDBRANCH   1  25
BRANCH   4  34
ATOM     34  N   UNL     1      -5.661  18.631  25.333  0.00  0.00    +0.000 N 
ATOM     35  H   UNL     1      -5.415  19.326  24.635  0.00  0.00    +0.000 HD
ATOM     36  H   UNL     1      -5.404  18.886  26.279  0.00  0.00    +0.000 HD
ENDBRANCH   4  34
TORSDOF 4
ENDMDL
MODEL 8
REMARK VINA RESULT:      -6.7      9.632     12.102
REMARK  Name = 
REMARK  5 active torsions:
REMARK  status: ('A' for Active; 'I' for Inactive)
REMARK    1  A    between atoms: C_1  and  N_2
REMARK    2  A    between atoms: C_4  and  C_5
REMARK    3  A    between atoms: C_8  and  C_9
REMARK    4  A    between atoms: C_12  and  N_13
REMARK    5  A    between atoms: C_16  and  N_17
REMARK                            x       y       z     vdW  Elec       q    Type
REMARK                         _______ _______ _______ _____ _____    ______ ____
ROOT
ATOM      1  C   UNL     1      -3.197  12.061  19.194  0.00  0.00    +0.000 A 
ATOM      2  C   UNL     1      -3.637  11.317  18.089  0.00  0.00    +0.000 A 
ATOM      3  N   UNL     1      -4.898  10.891  17.862  0.00  0.00    +0.000 NA
ATOM      4  C   UNL     1      -5.817  11.227  18.774  0.00  0.00    +0.000 A 
ATOM      5  C   UNL     1      -5.526  12.017  19.906  0.00  0.00    +0.000 A 
ATOM      6 CL   UNL     1      -6.896  12.500  20.874  0.00  0.00    +0.000 Cl
ATOM      7  C   UNL     1      -4.189  12.454  20.160  0.00  0.00    +0.000 A 
ENDROOT
BRANCH   7   8
ATOM      8  N   UNL     1      -3.805  13.183  21.309  0.00  0.00    +0.000 N 
ATOM      9  C   UNL     1      -4.066  12.673  22.657  0.00  0.00    +0.000 C 
ATOM     10  C   UNL     1      -2.864  13.010  23.526  0.00  0.00    +0.000 C 
ATOM     11  C   UNL     1      -2.530  14.499  23.489  0.00  0.00    +0.000 C 
ATOM     12  C   UNL     1      -2.605  15.168  22.119  0.00  0.00    +0.000 C 
ATOM     13  C   UNL     1      -3.753  14.652  21.239  0.00  0.00    +0.000 C 
ATOM     14  N   UNL     1      -1.226  14.720  24.108  0.00  0.00    +0.000 N 
ATOM     15  C   UNL     1      -1.310  15.438  25.272  0.00  0.00    +0.000 C 
ATOM     16  O   UNL     1      -0.363  15.741  25.974  0.00  0.00    +0.000 OA
ATOM     17  N   UNL     1      -2.606  15.748  25.491  0.00  0.00    +0.000 N 
ATOM     18  C   UNL     1      -3.397  15.286  24.484  0.00  0.00    +0.000 C 
ATOM     19  O   UNL     1      -4.599  15.475  24.397  0.00  0.00    +0.000 OA
ATOM     20  H   UNL     1      -0.343  14.351  23.782  0.00  0.00    +0.000 HD
ATOM     21  H   UNL     1      -2.927  16.310  26.259  0.00  0.00    +0.000 HD
ENDBRANCH   7   8
BRANCH   1  25
ATOM     22  C   UNL     1       0.970  13.175  19.650  0.00  0.00    +0.000 A 
ATOM     23  C   UNL     1       0.321  13.362  18.427  0.00  0.00    +0.000 A 
ATOM     24  C   UNL     1      -1.018  12.967  18.262  0.00  0.00    +0.000 A 
ATOM     25  C   UNL     1      -1.735  12.342  19.299  0.00  0.00    +0.000 A 
ATOM     26  C   UNL     1      -1.007  12.008  20.448  0.00  0.00    +0.000 A 
ATOM     27  C   UNL     1       0.308  12.455  20.644  0.00  0.00    +0.000 A 
BRANCH  22  31
ATOM     28  C   UNL     1       5.483  15.107  18.949  0.00  0.00    +0.000 C 
ATOM     29  N   UNL     1       4.286  14.579  19.548  0.00  0.00    +0.000 N 
ATOM     30  C   UNL     1       3.150  14.170  18.906  0.00  0.00    +0.000 A 
ATOM     31  C   UNL     1       2.286  13.736  19.887  0.00  0.00    +0.000 A 
ATOM     32  C   UNL     1       3.013  13.913  21.084  0.00  0.00    +0.000 A 
ATOM     33  N   UNL     1       4.227  14.434  20.880  0.00  0.00    +0.000 NA
ENDBRANCH  22  31
ENDBRANCH   1  25
BRANCH   4  34
ATOM     34  N   UNL     1      -7.072  10.652  18.558  0.00  0.00    +0.000 N 
ATOM     35  H   UNL     1      -7.378  10.903  17.622  0.00  0.00    +0.000 HD
ATOM     36  H   UNL     1      -7.737  10.884  19.286  0.00  0.00    +0.000 HD
ENDBRANCH   4  34
TORSDOF 4
ENDMDL
MODEL 9
REMARK VINA RESULT:      -6.6      4.068      5.796
REMARK  Name = 
REMARK  5 active torsions:
REMARK  status: ('A' for Active; 'I' for Inactive)
REMARK    1  A    between atoms: C_1  and  N_2
REMARK    2  A    between atoms: C_4  and  C_5
REMARK    3  A    between atoms: C_8  and  C_9
REMARK    4  A    between atoms: C_12  and  N_13
REMARK    5  A    between atoms: C_16  and  N_17
REMARK                            x       y       z     vdW  Elec       q    Type
REMARK                         _______ _______ _______ _____ _____    ______ ____
ROOT
ATOM      1  C   UNL     1       9.784  13.642  20.267  0.00  0.00    +0.000 A 
ATOM      2  C   UNL     1      10.827  12.915  19.670  0.00  0.00    +0.000 A 
ATOM      3  N   UNL     1      11.362  13.139  18.452  0.00  0.00    +0.000 NA
ATOM      4  C   UNL     1      10.858  14.164  17.754  0.00  0.00    +0.000 A 
ATOM      5  C   UNL     1       9.846  15.010  18.253  0.00  0.00    +0.000 A 
ATOM      6 CL   UNL     1       9.457  16.399  17.268  0.00  0.00    +0.000 Cl
ATOM      7  C   UNL     1       9.263  14.766  19.535  0.00  0.00    +0.000 A 
ENDROOT
BRANCH   7   8
ATOM      8  N   UNL     1       8.196  15.522  20.070  0.00  0.00    +0.000 N 
ATOM      9  C   UNL     1       6.823  15.347  19.591  0.00  0.00    +0.000 C 
ATOM     10  C   UNL     1       5.892  15.439  20.791  0.00  0.00    +0.000 C 
ATOM     11  C   UNL     1       6.104  16.728  21.582  0.00  0.00    +0.000 C 
ATOM     12  C   UNL     1       7.555  17.152  21.794  0.00  0.00    +0.000 C 
ATOM     13  C   UNL     1       8.466  16.873  20.589  0.00  0.00    +0.000 C 
ATOM     14  N   UNL     1       5.394  16.640  22.854  0.00  0.00    +0.000 N 
ATOM     15  C   UNL     1       4.357  17.532  22.942  0.00  0.00    +0.000 C 
ATOM     16  O   UNL     1       3.612  17.643  23.898  0.00  0.00    +0.000 OA
ATOM     17  N   UNL     1       4.316  18.253  21.802  0.00  0.00    +0.000 N 
ATOM     18  C   UNL     1       5.323  17.895  20.958  0.00  0.00    +0.000 C 
ATOM     19  O   UNL     1       5.557  18.425  19.885  0.00  0.00    +0.000 OA
ATOM     20  H   UNL     1       5.573  15.970  23.590  0.00  0.00    +0.000 HD
ATOM     21  H   UNL     1       3.671  19.006  21.636  0.00  0.00    +0.000 HD
ENDBRANCH   7   8
BRANCH   1  25
ATOM     22  C   UNL     1       7.990  12.357  24.001  0.00  0.00    +0.000 A 
ATOM     23  C   UNL     1       8.690  13.565  23.934  0.00  0.00    +0.000 A 
ATOM     24  C   UNL     1       9.306  13.968  22.737  0.00  0.00    +0.000 A 
ATOM     25  C   UNL     1       9.274  13.161  21.584  0.00  0.00    +0.000 A 
ATOM     26  C   UNL     1       8.722  11.883  21.732  0.00  0.00    +0.000 A 
ATOM     27  C   UNL     1       8.049  11.501  22.902  0.00  0.00    +0.000 A 
BRANCH  22  31
ATOM     28  C   UNL     1       4.503  10.440  26.959  0.00  0.00    +0.000 C 
ATOM     29  N   UNL     1       5.640  11.164  26.456  0.00  0.00    +0.000 N 
ATOM     30  C   UNL     1       6.110  11.179  25.173  0.00  0.00    +0.000 A 
ATOM     31  C   UNL     1       7.204  12.016  25.171  0.00  0.00    +0.000 A 
ATOM     32  C   UNL     1       7.292  12.465  26.506  0.00  0.00    +0.000 A 
ATOM     33  N   UNL     1       6.346  11.941  27.291  0.00  0.00    +0.000 NA
ENDBRANCH  22  31
ENDBRANCH   1  25
BRANCH   4  34
ATOM     34  N   UNL     1      11.357  14.268  16.454  0.00  0.00    +0.000 N 
ATOM     35  H   UNL     1      10.576  14.446  15.829  0.00  0.00    +0.000 HD
ATOM     36  H   UNL     1      11.925  13.473  16.190  0.00  0.00    +0.000 HD
ENDBRANCH   4  34
TORSDOF 4
ENDMDL
