MODEL 1
REMARK VINA RESULT:      -7.8      0.000      0.000
REMARK  Name = 
REMARK  10 active torsions:
REMARK  status: ('A' for Active; 'I' for Inactive)
REMARK    1  A    between atoms: C_2  and  C_3
REMARK    2  A    between atoms: C_3  and  O_4
REMARK    3  A    between atoms: O_4  and  C_5
REMARK    4  A    between atoms: C_5  and  C_7
REMARK    5  A    between atoms: C_8  and  C_9
REMARK    6  A    between atoms: C_12  and  O_13
REMARK    7  A    between atoms: O_13  and  C_14
REMARK    8  A    between atoms: N_19  and  C_20
REMARK    9  A    between atoms: C_24  and  S_25
REMARK   10  A    between atoms: S_25  and  N_28
REMARK                            x       y       z     vdW  Elec       q    Type
REMARK                         _______ _______ _______ _____ _____    ______ ____
ROOT
ATOM      1  O   UNL     1       1.248   4.309  18.986  0.00  0.00    +0.000 OA
ATOM      2  C   UNL     1       1.729   4.519  20.099  0.00  0.00    +0.000 C 
ATOM      3  N   UNL     1       2.109   5.758  20.597  0.00  0.00    +0.000 N 
ATOM      4  H   UNL     1       2.467   5.775  21.548  0.00  0.00    +0.000 HD
ENDROOT
BRANCH   3   5
ATOM      5  C   UNL     1       2.037   7.007  19.924  0.00  0.00    +0.000 A 
ATOM      6  C   UNL     1       2.547   7.221  18.641  0.00  0.00    +0.000 A 
ATOM      7  C   UNL     1       2.433   8.469  18.014  0.00  0.00    +0.000 A 
ATOM      8  C   UNL     1       1.805   9.528  18.664  0.00  0.00    +0.000 A 
ATOM      9  C   UNL     1       1.315   9.337  19.954  0.00  0.00    +0.000 A 
ATOM     10  C   UNL     1       1.431   8.086  20.591  0.00  0.00    +0.000 A 
BRANCH   9  11
ATOM     11  S   UNL     1       0.455  10.681  20.744  0.00  0.00    +0.000 S 
ATOM     12  O   UNL     1      -0.596  10.102  21.551  0.00  0.00    +0.000 OA
ATOM     13  O   UNL     1       1.449  11.550  21.343  0.00  0.00    +0.000 OA
BRANCH  11  14
ATOM     14  N   UNL     1      -0.275  11.548  19.466  0.00  0.00    +0.000 NA
ATOM     15  C   UNL     1       0.348  12.840  19.047  0.00  0.00    +0.000 C 
ATOM     16  C   UNL     1      -0.071  14.011  19.945  0.00  0.00    +0.000 C 
ATOM     17  O   UNL     1      -1.496  14.132  20.044  0.00  0.00    +0.000 OA
ATOM     18  C   UNL     1      -2.098  12.919  20.519  0.00  0.00    +0.000 C 
ATOM     19  C   UNL     1      -1.761  11.740  19.600  0.00  0.00    +0.000 C 
ENDBRANCH  11  14
ENDBRANCH   9  11
ENDBRANCH   3   5
BRANCH   2  20
ATOM     20  C   UNL     1       1.996   3.327  21.043  0.00  0.00    +0.000 C 
BRANCH  20  21
ATOM     21  O   UNL     1       3.284   2.714  21.006  0.00  0.00    +0.000 OA
BRANCH  21  22
ATOM     22  C   UNL     1       3.805   2.547  19.769  0.00  0.00    +0.000 C 
ATOM     23  O   UNL     1       3.396   1.753  18.937  0.00  0.00    +0.000 OA
BRANCH  22  24
ATOM     24  C   UNL     1       4.894   3.520  19.563  0.00  0.00    +0.000 C 
ATOM     25  C   UNL     1       4.975   4.186  18.400  0.00  0.00    +0.000 C 
BRANCH  25  26
ATOM     26  C   UNL     1       5.950   5.248  18.100  0.00  0.00    +0.000 A 
ATOM     27  C   UNL     1       5.743   6.067  16.983  0.00  0.00    +0.000 A 
ATOM     28  C   UNL     1       6.594   7.147  16.723  0.00  0.00    +0.000 A 
ATOM     29  C   UNL     1       7.649   7.442  17.587  0.00  0.00    +0.000 A 
ATOM     30  C   UNL     1       7.883   6.617  18.686  0.00  0.00    +0.000 A 
ATOM     31  C   UNL     1       7.031   5.533  18.944  0.00  0.00    +0.000 A 
BRANCH  29  32
ATOM     32  O   UNL     1       8.391   8.539  17.250  0.00  0.00    +0.000 OA
BRANCH  32  33
ATOM     33  C   UNL     1       8.339   9.614  18.173  0.00  0.00    +0.000 C 
ATOM     34  F   UNL     1       9.580  10.147  18.293  0.00  0.00    +0.000 F 
ATOM     35  F   UNL     1       7.552  10.577  17.628  0.00  0.00    +0.000 F 
ENDBRANCH  32  33
ENDBRANCH  29  32
ENDBRANCH  25  26
ENDBRANCH  22  24
ENDBRANCH  21  22
ENDBRANCH  20  21
ENDBRANCH   2  20
TORSDOF 10
ENDMDL
MODEL 2
REMARK VINA RESULT:      -7.8      5.507      8.967
REMARK  Name = 
REMARK  10 active torsions:
REMARK  status: ('A' for Active; 'I' for Inactive)
REMARK    1  A    between atoms: C_2  and  C_3
REMARK    2  A    between atoms: C_3  and  O_4
REMARK    3  A    between atoms: O_4  and  C_5
REMARK    4  A    between atoms: C_5  and  C_7
REMARK    5  A    between atoms: C_8  and  C_9
REMARK    6  A    between atoms: C_12  and  O_13
REMARK    7  A    between atoms: O_13  and  C_14
REMARK    8  A    between atoms: N_19  and  C_20
REMARK    9  A    between atoms: C_24  and  S_25
REMARK   10  A    between atoms: S_25  and  N_28
REMARK                            x       y       z     vdW  Elec       q    Type
REMARK                         _______ _______ _______ _____ _____    ______ ____
ROOT
ATOM      1  O   UNL     1       8.329   6.917  18.799  0.00  0.00    +0.000 OA
ATOM      2  C   UNL     1       7.845   7.712  17.995  0.00  0.00    +0.000 C 
ATOM      3  N   UNL     1       6.977   7.391  16.959  0.00  0.00    +0.000 N 
ATOM      4  H   UNL     1       6.641   8.164  16.392  0.00  0.00    +0.000 HD
ENDROOT
BRANCH   3   5
ATOM      5  C   UNL     1       6.499   6.098  16.616  0.00  0.00    +0.000 A 
ATOM      6  C   UNL     1       6.836   5.442  15.429  0.00  0.00    +0.000 A 
ATOM      7  C   UNL     1       6.352   4.157  15.148  0.00  0.00    +0.000 A 
ATOM      8  C   UNL     1       5.519   3.506  16.053  0.00  0.00    +0.000 A 
ATOM      9  C   UNL     1       5.154   4.157  17.230  0.00  0.00    +0.000 A 
ATOM     10  C   UNL     1       5.634   5.451  17.516  0.00  0.00    +0.000 A 
BRANCH   9  11
ATOM     11  S   UNL     1       4.145   3.283  18.407  0.00  0.00    +0.000 S 
ATOM     12  O   UNL     1       3.601   2.127  17.730  0.00  0.00    +0.000 OA
ATOM     13  O   UNL     1       4.921   3.127  19.623  0.00  0.00    +0.000 OA
BRANCH  11  14
ATOM     14  N   UNL     1       2.856   4.346  18.760  0.00  0.00    +0.000 NA
ATOM     15  C   UNL     1       2.808   4.967  20.118  0.00  0.00    +0.000 C 
ATOM     16  C   UNL     1       2.188   4.033  21.166  0.00  0.00    +0.000 C 
ATOM     17  O   UNL     1       0.896   3.556  20.767  0.00  0.00    +0.000 OA
ATOM     18  C   UNL     1       0.946   2.892  19.497  0.00  0.00    +0.000 C 
ATOM     19  C   UNL     1       1.491   3.823  18.409  0.00  0.00    +0.000 C 
ENDBRANCH  11  14
ENDBRANCH   9  11
ENDBRANCH   3   5
BRANCH   2  20
ATOM     20  C   UNL     1       8.242   9.202  18.073  0.00  0.00    +0.000 C 
BRANCH  20  21
ATOM     21  O   UNL     1       9.402   9.551  18.827  0.00  0.00    +0.000 OA
BRANCH  21  22
ATOM     22  C   UNL     1       9.534  10.867  19.103  0.00  0.00    +0.000 C 
ATOM     23  O   UNL     1       9.726  11.743  18.274  0.00  0.00    +0.000 OA
BRANCH  22  24
ATOM     24  C   UNL     1       9.338  11.084  20.549  0.00  0.00    +0.000 C 
ATOM     25  C   UNL     1       9.106  12.325  21.007  0.00  0.00    +0.000 C 
BRANCH  25  26
ATOM     26  C   UNL     1       8.802  12.666  22.406  0.00  0.00    +0.000 A 
ATOM     27  C   UNL     1       8.974  13.988  22.839  0.00  0.00    +0.000 A 
ATOM     28  C   UNL     1       8.602  14.369  24.132  0.00  0.00    +0.000 A 
ATOM     29  C   UNL     1       8.028  13.445  25.007  0.00  0.00    +0.000 A 
ATOM     30  C   UNL     1       7.879  12.121  24.598  0.00  0.00    +0.000 A 
ATOM     31  C   UNL     1       8.255  11.739  23.302  0.00  0.00    +0.000 A 
BRANCH  29  32
ATOM     32  O   UNL     1       7.675  13.941  26.230  0.00  0.00    +0.000 OA
BRANCH  32  33
ATOM     33  C   UNL     1       8.738  14.080  27.158  0.00  0.00    +0.000 C 
ATOM     34  F   UNL     1       9.061  15.393  27.257  0.00  0.00    +0.000 F 
ATOM     35  F   UNL     1       8.266  13.701  28.373  0.00  0.00    +0.000 F 
ENDBRANCH  32  33
ENDBRANCH  29  32
ENDBRANCH  25  26
ENDBRANCH  22  24
ENDBRANCH  21  22
ENDBRANCH  20  21
ENDBRANCH   2  20
TORSDOF 10
ENDMDL
MODEL 3
REMARK VINA RESULT:      -7.7      5.342      8.854
REMARK  Name = 
REMARK  10 active torsions:
REMARK  status: ('A' for Active; 'I' for Inactive)
REMARK    1  A    between atoms: C_2  and  C_3
REMARK    2  A    between atoms: C_3  and  O_4
REMARK    3  A    between atoms: O_4  and  C_5
REMARK    4  A    between atoms: C_5  and  C_7
REMARK    5  A    between atoms: C_8  and  C_9
REMARK    6  A    between atoms: C_12  and  O_13
REMARK    7  A    between atoms: O_13  and  C_14
REMARK    8  A    between atoms: N_19  and  C_20
REMARK    9  A    between atoms: C_24  and  S_25
REMARK   10  A    between atoms: S_25  and  N_28
REMARK                            x       y       z     vdW  Elec       q    Type
REMARK                         _______ _______ _______ _____ _____    ______ ____
ROOT
ATOM      1  O   UNL     1       8.205   7.099  18.716  0.00  0.00    +0.000 OA
ATOM      2  C   UNL     1       7.731   7.898  17.909  0.00  0.00    +0.000 C 
ATOM      3  N   UNL     1       6.720   7.625  16.997  0.00  0.00    +0.000 N 
ATOM      4  H   UNL     1       6.416   8.398  16.412  0.00  0.00    +0.000 HD
ENDROOT
BRANCH   3   5
ATOM      5  C   UNL     1       6.056   6.384  16.805  0.00  0.00    +0.000 A 
ATOM      6  C   UNL     1       6.565   5.353  16.013  0.00  0.00    +0.000 A 
ATOM      7  C   UNL     1       5.879   4.139  15.872  0.00  0.00    +0.000 A 
ATOM      8  C   UNL     1       4.665   3.938  16.525  0.00  0.00    +0.000 A 
ATOM      9  C   UNL     1       4.132   4.968  17.298  0.00  0.00    +0.000 A 
ATOM     10  C   UNL     1       4.816   6.191  17.439  0.00  0.00    +0.000 A 
BRANCH   9  11
ATOM     11  S   UNL     1       2.614   4.669  18.180  0.00  0.00    +0.000 S 
ATOM     12  O   UNL     1       2.461   5.738  19.142  0.00  0.00    +0.000 OA
ATOM     13  O   UNL     1       1.579   4.407  17.199  0.00  0.00    +0.000 OA
BRANCH  11  14
ATOM     14  N   UNL     1       2.881   3.217  19.038  0.00  0.00    +0.000 NA
ATOM     15  C   UNL     1       1.798   2.187  19.032  0.00  0.00    +0.000 C 
ATOM     16  C   UNL     1       0.707   2.480  20.070  0.00  0.00    +0.000 C 
ATOM     17  O   UNL     1       1.247   2.657  21.386  0.00  0.00    +0.000 OA
ATOM     18  C   UNL     1       2.236   3.696  21.418  0.00  0.00    +0.000 C 
ATOM     19  C   UNL     1       3.381   3.397  20.445  0.00  0.00    +0.000 C 
ENDBRANCH  11  14
ENDBRANCH   9  11
ENDBRANCH   3   5
BRANCH   2  20
ATOM     20  C   UNL     1       8.310   9.327  17.832  0.00  0.00    +0.000 C 
BRANCH  20  21
ATOM     21  O   UNL     1       9.176   9.761  18.880  0.00  0.00    +0.000 OA
BRANCH  21  22
ATOM     22  C   UNL     1       9.746  10.972  18.691  0.00  0.00    +0.000 C 
ATOM     23  O   UNL     1      10.493  11.260  17.769  0.00  0.00    +0.000 OA
BRANCH  22  24
ATOM     24  C   UNL     1       9.267  11.904  19.729  0.00  0.00    +0.000 C 
ATOM     25  C   UNL     1       9.247  11.512  21.012  0.00  0.00    +0.000 C 
BRANCH  25  26
ATOM     26  C   UNL     1       8.884  12.369  22.153  0.00  0.00    +0.000 A 
ATOM     27  C   UNL     1       8.317  11.784  23.292  0.00  0.00    +0.000 A 
ATOM     28  C   UNL     1       8.051  12.552  24.431  0.00  0.00    +0.000 A 
ATOM     29  C   UNL     1       8.369  13.910  24.461  0.00  0.00    +0.000 A 
ATOM     30  C   UNL     1       8.906  14.510  23.323  0.00  0.00    +0.000 A 
ATOM     31  C   UNL     1       9.170  13.740  22.181  0.00  0.00    +0.000 A 
BRANCH  29  32
ATOM     32  O   UNL     1       8.095  14.548  25.637  0.00  0.00    +0.000 OA
BRANCH  32  33
ATOM     33  C   UNL     1       8.658  13.954  26.796  0.00  0.00    +0.000 C 
ATOM     34  F   UNL     1       9.943  14.368  26.918  0.00  0.00    +0.000 F 
ATOM     35  F   UNL     1       7.986  14.444  27.868  0.00  0.00    +0.000 F 
ENDBRANCH  32  33
ENDBRANCH  29  32
ENDBRANCH  25  26
ENDBRANCH  22  24
ENDBRANCH  21  22
ENDBRANCH  20  21
ENDBRANCH   2  20
TORSDOF 10
ENDMDL
MODEL 4
REMARK VINA RESULT:      -7.6      4.208      9.302
REMARK  Name = 
REMARK  10 active torsions:
REMARK  status: ('A' for Active; 'I' for Inactive)
REMARK    1  A    between atoms: C_2  and  C_3
REMARK    2  A    between atoms: C_3  and  O_4
REMARK    3  A    between atoms: O_4  and  C_5
REMARK    4  A    between atoms: C_5  and  C_7
REMARK    5  A    between atoms: C_8  and  C_9
REMARK    6  A    between atoms: C_12  and  O_13
REMARK    7  A    between atoms: O_13  and  C_14
REMARK    8  A    between atoms: N_19  and  C_20
REMARK    9  A    between atoms: C_24  and  S_25
REMARK   10  A    between atoms: S_25  and  N_28
REMARK                            x       y       z     vdW  Elec       q    Type
REMARK                         _______ _______ _______ _____ _____    ______ ____
ROOT
ATOM      1  O   UNL     1      -0.877   8.187  21.678  0.00  0.00    +0.000 OA
ATOM      2  C   UNL     1      -0.155   9.134  21.990  0.00  0.00    +0.000 C 
ATOM      3  N   UNL     1       0.917   9.614  21.249  0.00  0.00    +0.000 N 
ATOM      4  H   UNL     1       1.404  10.423  21.627  0.00  0.00    +0.000 HD
ENDROOT
BRANCH   3   5
ATOM      5  C   UNL     1       1.398   9.103  20.014  0.00  0.00    +0.000 A 
ATOM      6  C   UNL     1       1.365   9.825  18.818  0.00  0.00    +0.000 A 
ATOM      7  C   UNL     1       1.871   9.282  17.629  0.00  0.00    +0.000 A 
ATOM      8  C   UNL     1       2.418   8.001  17.618  0.00  0.00    +0.000 A 
ATOM      9  C   UNL     1       2.434   7.260  18.798  0.00  0.00    +0.000 A 
ATOM     10  C   UNL     1       1.924   7.800  19.995  0.00  0.00    +0.000 A 
BRANCH   9  11
ATOM     11  S   UNL     1       3.200   5.653  18.782  0.00  0.00    +0.000 S 
ATOM     12  O   UNL     1       3.592   5.380  17.417  0.00  0.00    +0.000 OA
ATOM     13  O   UNL     1       4.181   5.621  19.849  0.00  0.00    +0.000 OA
BRANCH  11  14
ATOM     14  N   UNL     1       1.953   4.566  19.203  0.00  0.00    +0.000 NA
ATOM     15  C   UNL     1       2.130   3.736  20.434  0.00  0.00    +0.000 C 
ATOM     16  C   UNL     1       2.990   2.491  20.181  0.00  0.00    +0.000 C 
ATOM     17  O   UNL     1       2.493   1.703  19.091  0.00  0.00    +0.000 OA
ATOM     18  C   UNL     1       2.391   2.473  17.885  0.00  0.00    +0.000 C 
ATOM     19  C   UNL     1       1.475   3.686  18.081  0.00  0.00    +0.000 C 
ENDBRANCH  11  14
ENDBRANCH   9  11
ENDBRANCH   3   5
BRANCH   2  20
ATOM     20  C   UNL     1      -0.392   9.854  23.335  0.00  0.00    +0.000 C 
BRANCH  20  21
ATOM     21  O   UNL     1      -1.566  10.653  23.473  0.00  0.00    +0.000 OA
BRANCH  21  22
ATOM     22  C   UNL     1      -1.488  11.887  22.926  0.00  0.00    +0.000 C 
ATOM     23  O   UNL     1      -0.861  12.825  23.395  0.00  0.00    +0.000 OA
BRANCH  22  24
ATOM     24  C   UNL     1      -2.219  11.900  21.645  0.00  0.00    +0.000 C 
ATOM     25  C   UNL     1      -1.534  11.954  20.492  0.00  0.00    +0.000 C 
BRANCH  25  26
ATOM     26  C   UNL     1      -2.132  11.878  19.149  0.00  0.00    +0.000 A 
ATOM     27  C   UNL     1      -1.294  11.910  18.027  0.00  0.00    +0.000 A 
ATOM     28  C   UNL     1      -1.817  11.742  16.741  0.00  0.00    +0.000 A 
ATOM     29  C   UNL     1      -3.181  11.512  16.555  0.00  0.00    +0.000 A 
ATOM     30  C   UNL     1      -4.029  11.507  17.661  0.00  0.00    +0.000 A 
ATOM     31  C   UNL     1      -3.504  11.679  18.949  0.00  0.00    +0.000 A 
BRANCH  29  32
ATOM     32  O   UNL     1      -3.570  11.329  15.258  0.00  0.00    +0.000 OA
BRANCH  32  33
ATOM     33  C   UNL     1      -3.832   9.985  14.887  0.00  0.00    +0.000 C 
ATOM     34  F   UNL     1      -4.056   9.938  13.551  0.00  0.00    +0.000 F 
ATOM     35  F   UNL     1      -2.699   9.274  15.119  0.00  0.00    +0.000 F 
ENDBRANCH  32  33
ENDBRANCH  29  32
ENDBRANCH  25  26
ENDBRANCH  22  24
ENDBRANCH  21  22
ENDBRANCH  20  21
ENDBRANCH   2  20
TORSDOF 10
ENDMDL
MODEL 5
REMARK VINA RESULT:      -7.6      3.064      3.574
REMARK  Name = 
REMARK  10 active torsions:
REMARK  status: ('A' for Active; 'I' for Inactive)
REMARK    1  A    between atoms: C_2  and  C_3
REMARK    2  A    between atoms: C_3  and  O_4
REMARK    3  A    between atoms: O_4  and  C_5
REMARK    4  A    between atoms: C_5  and  C_7
REMARK    5  A    between atoms: C_8  and  C_9
REMARK    6  A    between atoms: C_12  and  O_13
REMARK    7  A    between atoms: O_13  and  C_14
REMARK    8  A    between atoms: N_19  and  C_20
REMARK    9  A    between atoms: C_24  and  S_25
REMARK   10  A    between atoms: S_25  and  N_28
REMARK                            x       y       z     vdW  Elec       q    Type
REMARK                         _______ _______ _______ _____ _____    ______ ____
ROOT
ATOM      1  O   UNL     1       0.650   5.023  20.550  0.00  0.00    +0.000 OA
ATOM      2  C   UNL     1       1.869   4.946  20.700  0.00  0.00    +0.000 C 
ATOM      3  N   UNL     1       2.807   5.827  20.179  0.00  0.00    +0.000 N 
ATOM      4  H   UNL     1       3.780   5.645  20.412  0.00  0.00    +0.000 HD
ENDROOT
BRANCH   3   5
ATOM      5  C   UNL     1       2.552   6.964  19.366  0.00  0.00    +0.000 A 
ATOM      6  C   UNL     1       3.079   7.126  18.083  0.00  0.00    +0.000 A 
ATOM      7  C   UNL     1       2.780   8.259  17.314  0.00  0.00    +0.000 A 
ATOM      8  C   UNL     1       1.945   9.252  17.820  0.00  0.00    +0.000 A 
ATOM      9  C   UNL     1       1.432   9.115  19.108  0.00  0.00    +0.000 A 
ATOM     10  C   UNL     1       1.733   7.981  19.887  0.00  0.00    +0.000 A 
BRANCH   9  11
ATOM     11  S   UNL     1       0.312  10.360  19.713  0.00  0.00    +0.000 S 
ATOM     12  O   UNL     1       0.368  11.472  18.790  0.00  0.00    +0.000 OA
ATOM     13  O   UNL     1      -0.951   9.711  20.007  0.00  0.00    +0.000 OA
BRANCH  11  14
ATOM     14  N   UNL     1       0.980  10.871  21.199  0.00  0.00    +0.000 NA
ATOM     15  C   UNL     1       0.567  10.148  22.440  0.00  0.00    +0.000 C 
ATOM     16  C   UNL     1      -0.775  10.649  22.989  0.00  0.00    +0.000 C 
ATOM     17  O   UNL     1      -0.782  12.069  23.189  0.00  0.00    +0.000 OA
ATOM     18  C   UNL     1      -0.460  12.774  21.982  0.00  0.00    +0.000 C 
ATOM     19  C   UNL     1       0.912  12.352  21.446  0.00  0.00    +0.000 C 
ENDBRANCH  11  14
ENDBRANCH   9  11
ENDBRANCH   3   5
BRANCH   2  20
ATOM     20  C   UNL     1       2.459   3.758  21.489  0.00  0.00    +0.000 C 
BRANCH  20  21
ATOM     21  O   UNL     1       2.768   2.562  20.774  0.00  0.00    +0.000 OA
BRANCH  21  22
ATOM     22  C   UNL     1       4.078   2.386  20.487  0.00  0.00    +0.000 C 
ATOM     23  O   UNL     1       4.910   1.930  21.256  0.00  0.00    +0.000 OA
BRANCH  22  24
ATOM     24  C   UNL     1       4.325   2.764  19.083  0.00  0.00    +0.000 C 
ATOM     25  C   UNL     1       5.122   3.809  18.810  0.00  0.00    +0.000 C 
BRANCH  25  26
ATOM     26  C   UNL     1       5.526   4.233  17.459  0.00  0.00    +0.000 A 
ATOM     27  C   UNL     1       6.880   4.479  17.198  0.00  0.00    +0.000 A 
ATOM     28  C   UNL     1       7.312   4.788  15.904  0.00  0.00    +0.000 A 
ATOM     29  C   UNL     1       6.405   4.831  14.844  0.00  0.00    +0.000 A 
ATOM     30  C   UNL     1       5.051   4.618  15.096  0.00  0.00    +0.000 A 
ATOM     31  C   UNL     1       4.618   4.311  16.394  0.00  0.00    +0.000 A 
BRANCH  29  32
ATOM     32  O   UNL     1       6.948   5.109  13.622  0.00  0.00    +0.000 OA
BRANCH  32  33
ATOM     33  C   UNL     1       6.716   4.135  12.618  0.00  0.00    +0.000 C 
ATOM     34  F   UNL     1       6.842   2.902  13.169  0.00  0.00    +0.000 F 
ATOM     35  F   UNL     1       5.421   4.257  12.228  0.00  0.00    +0.000 F 
ENDBRANCH  32  33
ENDBRANCH  29  32
ENDBRANCH  25  26
ENDBRANCH  22  24
ENDBRANCH  21  22
ENDBRANCH  20  21
ENDBRANCH   2  20
TORSDOF 10
ENDMDL
MODEL 6
REMARK VINA RESULT:      -7.6      4.367      8.742
REMARK  Name = 
REMARK  10 active torsions:
REMARK  status: ('A' for Active; 'I' for Inactive)
REMARK    1  A    between atoms: C_2  and  C_3
REMARK    2  A    between atoms: C_3  and  O_4
REMARK    3  A    between atoms: O_4  and  C_5
REMARK    4  A    between atoms: C_5  and  C_7
REMARK    5  A    between atoms: C_8  and  C_9
REMARK    6  A    between atoms: C_12  and  O_13
REMARK    7  A    between atoms: O_13  and  C_14
REMARK    8  A    between atoms: N_19  and  C_20
REMARK    9  A    between atoms: C_24  and  S_25
REMARK   10  A    between atoms: S_25  and  N_28
REMARK                            x       y       z     vdW  Elec       q    Type
REMARK                         _______ _______ _______ _____ _____    ______ ____
ROOT
ATOM      1  O   UNL     1       8.369   7.259  18.612  0.00  0.00    +0.000 OA
ATOM      2  C   UNL     1       7.775   7.995  17.825  0.00  0.00    +0.000 C 
ATOM      3  N   UNL     1       6.871   7.582  16.854  0.00  0.00    +0.000 N 
ATOM      4  H   UNL     1       6.441   8.314  16.294  0.00  0.00    +0.000 HD
ENDROOT
BRANCH   3   5
ATOM      5  C   UNL     1       6.474   6.249  16.570  0.00  0.00    +0.000 A 
ATOM      6  C   UNL     1       6.941   5.524  15.470  0.00  0.00    +0.000 A 
ATOM      7  C   UNL     1       6.532   4.203  15.245  0.00  0.00    +0.000 A 
ATOM      8  C   UNL     1       5.644   3.583  16.121  0.00  0.00    +0.000 A 
ATOM      9  C   UNL     1       5.150   4.302  17.208  0.00  0.00    +0.000 A 
ATOM     10  C   UNL     1       5.555   5.632  17.436  0.00  0.00    +0.000 A 
BRANCH   9  11
ATOM     11  S   UNL     1       4.071   3.472  18.355  0.00  0.00    +0.000 S 
ATOM     12  O   UNL     1       3.781   2.167  17.804  0.00  0.00    +0.000 OA
ATOM     13  O   UNL     1       4.651   3.600  19.678  0.00  0.00    +0.000 OA
BRANCH  11  14
ATOM     14  N   UNL     1       2.628   4.385  18.343  0.00  0.00    +0.000 NA
ATOM     15  C   UNL     1       2.455   5.441  19.386  0.00  0.00    +0.000 C 
ATOM     16  C   UNL     1       1.960   4.869  20.720  0.00  0.00    +0.000 C 
ATOM     17  O   UNL     1       0.764   4.092  20.565  0.00  0.00    +0.000 OA
ATOM     18  C   UNL     1       0.944   3.028  19.620  0.00  0.00    +0.000 C 
ATOM     19  C   UNL     1       1.366   3.572  18.251  0.00  0.00    +0.000 C 
ENDBRANCH  11  14
ENDBRANCH   9  11
ENDBRANCH   3   5
BRANCH   2  20
ATOM     20  C   UNL     1       8.061   9.512  17.846  0.00  0.00    +0.000 C 
BRANCH  20  21
ATOM     21  O   UNL     1       9.259   9.963  18.476  0.00  0.00    +0.000 OA
BRANCH  21  22
ATOM     22  C   UNL     1       9.720  11.159  18.047  0.00  0.00    +0.000 C 
ATOM     23  O   UNL     1      10.863  11.380  17.680  0.00  0.00    +0.000 OA
BRANCH  22  24
ATOM     24  C   UNL     1       8.610  12.130  18.025  0.00  0.00    +0.000 C 
ATOM     25  C   UNL     1       8.747  13.307  18.657  0.00  0.00    +0.000 C 
BRANCH  25  26
ATOM     26  C   UNL     1       7.760  14.398  18.635  0.00  0.00    +0.000 A 
ATOM     27  C   UNL     1       6.620  14.270  17.831  0.00  0.00    +0.000 A 
ATOM     28  C   UNL     1       5.614  15.241  17.860  0.00  0.00    +0.000 A 
ATOM     29  C   UNL     1       5.716  16.344  18.710  0.00  0.00    +0.000 A 
ATOM     30  C   UNL     1       6.859  16.498  19.493  0.00  0.00    +0.000 A 
ATOM     31  C   UNL     1       7.868  15.525  19.461  0.00  0.00    +0.000 A 
BRANCH  29  32
ATOM     32  O   UNL     1       4.658  17.207  18.676  0.00  0.00    +0.000 OA
BRANCH  32  33
ATOM     33  C   UNL     1       3.433  16.686  19.167  0.00  0.00    +0.000 C 
ATOM     34  F   UNL     1       3.668  16.054  20.343  0.00  0.00    +0.000 F 
ATOM     35  F   UNL     1       2.627  17.742  19.444  0.00  0.00    +0.000 F 
ENDBRANCH  32  33
ENDBRANCH  29  32
ENDBRANCH  25  26
ENDBRANCH  22  24
ENDBRANCH  21  22
ENDBRANCH  20  21
ENDBRANCH   2  20
TORSDOF 10
ENDMDL
MODEL 7
REMARK VINA RESULT:      -7.4      0.650      1.178
REMARK  Name = 
REMARK  10 active torsions:
REMARK  status: ('A' for Active; 'I' for Inactive)
REMARK    1  A    between atoms: C_2  and  C_3
REMARK    2  A    between atoms: C_3  and  O_4
REMARK    3  A    between atoms: O_4  and  C_5
REMARK    4  A    between atoms: C_5  and  C_7
REMARK    5  A    between atoms: C_8  and  C_9
REMARK    6  A    between atoms: C_12  and  O_13
REMARK    7  A    between atoms: O_13  and  C_14
REMARK    8  A    between atoms: N_19  and  C_20
REMARK    9  A    between atoms: C_24  and  S_25
REMARK   10  A    between atoms: S_25  and  N_28
REMARK                            x       y       z     vdW  Elec       q    Type
REMARK                         _______ _______ _______ _____ _____    ______ ____
ROOT
ATOM      1  O   UNL     1       0.567   4.435  20.153  0.00  0.00    +0.000 OA
ATOM      2  C   UNL     1       1.593   4.650  20.797  0.00  0.00    +0.000 C 
ATOM      3  N   UNL     1       2.317   5.837  20.796  0.00  0.00    +0.000 N 
ATOM      4  H   UNL     1       3.132   5.871  21.402  0.00  0.00    +0.000 HD
ENDROOT
BRANCH   3   5
ATOM      5  C   UNL     1       2.030   7.010  20.048  0.00  0.00    +0.000 A 
ATOM      6  C   UNL     1       2.308   7.142  18.686  0.00  0.00    +0.000 A 
ATOM      7  C   UNL     1       1.987   8.315  17.990  0.00  0.00    +0.000 A 
ATOM      8  C   UNL     1       1.382   9.381  18.651  0.00  0.00    +0.000 A 
ATOM      9  C   UNL     1       1.123   9.274  20.016  0.00  0.00    +0.000 A 
ATOM     10  C   UNL     1       1.447   8.098  20.720  0.00  0.00    +0.000 A 
BRANCH   9  11
ATOM     11  S   UNL     1       0.287  10.619  20.829  0.00  0.00    +0.000 S 
ATOM     12  O   UNL     1      -0.839  10.055  21.542  0.00  0.00    +0.000 OA
ATOM     13  O   UNL     1       1.287  11.399  21.532  0.00  0.00    +0.000 OA
BRANCH  11  14
ATOM     14  N   UNL     1      -0.321  11.591  19.564  0.00  0.00    +0.000 NA
ATOM     15  C   UNL     1       0.357  12.894  19.290  0.00  0.00    +0.000 C 
ATOM     16  C   UNL     1      -0.114  14.008  20.234  0.00  0.00    +0.000 C 
ATOM     17  O   UNL     1      -1.540  14.154  20.227  0.00  0.00    +0.000 OA
ATOM     18  C   UNL     1      -2.200  12.925  20.562  0.00  0.00    +0.000 C 
ATOM     19  C   UNL     1      -1.809  11.807  19.591  0.00  0.00    +0.000 C 
ENDBRANCH  11  14
ENDBRANCH   9  11
ENDBRANCH   3   5
BRANCH   2  20
ATOM     20  C   UNL     1       2.196   3.521  21.659  0.00  0.00    +0.000 C 
BRANCH  20  21
ATOM     21  O   UNL     1       3.104   2.611  21.039  0.00  0.00    +0.000 OA
BRANCH  21  22
ATOM     22  C   UNL     1       3.012   2.537  19.692  0.00  0.00    +0.000 C 
ATOM     23  O   UNL     1       2.433   1.655  19.076  0.00  0.00    +0.000 OA
BRANCH  22  24
ATOM     24  C   UNL     1       3.658   3.719  19.092  0.00  0.00    +0.000 C 
ATOM     25  C   UNL     1       4.970   3.928  19.289  0.00  0.00    +0.000 C 
BRANCH  25  26
ATOM     26  C   UNL     1       5.755   5.010  18.674  0.00  0.00    +0.000 A 
ATOM     27  C   UNL     1       6.954   5.411  19.278  0.00  0.00    +0.000 A 
ATOM     28  C   UNL     1       7.774   6.367  18.669  0.00  0.00    +0.000 A 
ATOM     29  C   UNL     1       7.424   6.920  17.437  0.00  0.00    +0.000 A 
ATOM     30  C   UNL     1       6.220   6.552  16.840  0.00  0.00    +0.000 A 
ATOM     31  C   UNL     1       5.397   5.595  17.452  0.00  0.00    +0.000 A 
BRANCH  29  32
ATOM     32  O   UNL     1       8.319   7.817  16.925  0.00  0.00    +0.000 OA
BRANCH  32  33
ATOM     33  C   UNL     1       8.288   9.108  17.513  0.00  0.00    +0.000 C 
ATOM     34  F   UNL     1       7.003   9.424  17.806  0.00  0.00    +0.000 F 
ATOM     35  F   UNL     1       8.950   9.029  18.696  0.00  0.00    +0.000 F 
ENDBRANCH  32  33
ENDBRANCH  29  32
ENDBRANCH  25  26
ENDBRANCH  22  24
ENDBRANCH  21  22
ENDBRANCH  20  21
ENDBRANCH   2  20
TORSDOF 10
ENDMDL
MODEL 8
REMARK VINA RESULT:      -7.3      5.591      8.577
REMARK  Name = 
REMARK  10 active torsions:
REMARK  status: ('A' for Active; 'I' for Inactive)
REMARK    1  A    between atoms: C_2  and  C_3
REMARK    2  A    between atoms: C_3  and  O_4
REMARK    3  A    between atoms: O_4  and  C_5
REMARK    4  A    between atoms: C_5  and  C_7
REMARK    5  A    between atoms: C_8  and  C_9
REMARK    6  A    between atoms: C_12  and  O_13
REMARK    7  A    between atoms: O_13  and  C_14
REMARK    8  A    between atoms: N_19  and  C_20
REMARK    9  A    between atoms: C_24  and  S_25
REMARK   10  A    between atoms: S_25  and  N_28
REMARK                            x       y       z     vdW  Elec       q    Type
REMARK                         _______ _______ _______ _____ _____    ______ ____
ROOT
ATOM      1  O   UNL     1       9.148   9.483  19.871  0.00  0.00    +0.000 OA
ATOM      2  C   UNL     1       8.762   9.386  18.706  0.00  0.00    +0.000 C 
ATOM      3  N   UNL     1       8.958  10.330  17.706  0.00  0.00    +0.000 N 
ATOM      4  H   UNL     1       8.602  10.094  16.784  0.00  0.00    +0.000 HD
ENDROOT
BRANCH   3   5
ATOM      5  C   UNL     1       9.615  11.583  17.832  0.00  0.00    +0.000 A 
ATOM      6  C   UNL     1      11.004  11.720  17.901  0.00  0.00    +0.000 A 
ATOM      7  C   UNL     1      11.603  12.983  18.005  0.00  0.00    +0.000 A 
ATOM      8  C   UNL     1      10.819  14.133  18.044  0.00  0.00    +0.000 A 
ATOM      9  C   UNL     1       9.431  14.009  18.002  0.00  0.00    +0.000 A 
ATOM     10  C   UNL     1       8.824  12.742  17.901  0.00  0.00    +0.000 A 
BRANCH   9  11
ATOM     11  S   UNL     1       8.446  15.492  17.982  0.00  0.00    +0.000 S 
ATOM     12  O   UNL     1       9.222  16.512  17.312  0.00  0.00    +0.000 OA
ATOM     13  O   UNL     1       7.125  15.137  17.502  0.00  0.00    +0.000 OA
BRANCH  11  14
ATOM     14  N   UNL     1       8.289  15.939  19.623  0.00  0.00    +0.000 NA
ATOM     15  C   UNL     1       6.912  16.148  20.165  0.00  0.00    +0.000 C 
ATOM     16  C   UNL     1       6.361  17.542  19.839  0.00  0.00    +0.000 C 
ATOM     17  O   UNL     1       7.249  18.586  20.261  0.00  0.00    +0.000 OA
ATOM     18  C   UNL     1       8.554  18.436  19.684  0.00  0.00    +0.000 C 
ATOM     19  C   UNL     1       9.167  17.081  20.054  0.00  0.00    +0.000 C 
ENDBRANCH  11  14
ENDBRANCH   9  11
ENDBRANCH   3   5
BRANCH   2  20
ATOM     20  C   UNL     1       7.944   8.148  18.282  0.00  0.00    +0.000 C 
BRANCH  20  21
ATOM     21  O   UNL     1       7.887   7.822  16.893  0.00  0.00    +0.000 OA
BRANCH  21  22
ATOM     22  C   UNL     1       7.273   6.653  16.602  0.00  0.00    +0.000 C 
ATOM     23  O   UNL     1       7.615   5.883  15.717  0.00  0.00    +0.000 OA
BRANCH  22  24
ATOM     24  C   UNL     1       6.177   6.425  17.561  0.00  0.00    +0.000 C 
ATOM     25  C   UNL     1       5.053   5.816  17.150  0.00  0.00    +0.000 C 
BRANCH  25  26
ATOM     26  C   UNL     1       3.926   5.444  18.021  0.00  0.00    +0.000 A 
ATOM     27  C   UNL     1       2.860   4.714  17.481  0.00  0.00    +0.000 A 
ATOM     28  C   UNL     1       1.821   4.259  18.300  0.00  0.00    +0.000 A 
ATOM     29  C   UNL     1       1.841   4.502  19.674  0.00  0.00    +0.000 A 
ATOM     30  C   UNL     1       2.881   5.253  20.218  0.00  0.00    +0.000 A 
ATOM     31  C   UNL     1       3.921   5.711  19.396  0.00  0.00    +0.000 A 
BRANCH  29  32
ATOM     32  O   UNL     1       0.791   3.981  20.374  0.00  0.00    +0.000 OA
BRANCH  32  33
ATOM     33  C   UNL     1       1.076   2.799  21.105  0.00  0.00    +0.000 C 
ATOM     34  F   UNL     1       1.946   2.044  20.391  0.00  0.00    +0.000 F 
ATOM     35  F   UNL     1       1.721   3.171  22.240  0.00  0.00    +0.000 F 
ENDBRANCH  32  33
ENDBRANCH  29  32
ENDBRANCH  25  26
ENDBRANCH  22  24
ENDBRANCH  21  22
ENDBRANCH  20  21
ENDBRANCH   2  20
TORSDOF 10
ENDMDL
MODEL 9
REMARK VINA RESULT:      -7.3      4.860     10.491
REMARK  Name = 
REMARK  10 active torsions:
REMARK  status: ('A' for Active; 'I' for Inactive)
REMARK    1  A    between atoms: C_2  and  C_3
REMARK    2  A    between atoms: C_3  and  O_4
REMARK    3  A    between atoms: O_4  and  C_5
REMARK    4  A    between atoms: C_5  and  C_7
REMARK    5  A    between atoms: C_8  and  C_9
REMARK    6  A    between atoms: C_12  and  O_13
REMARK    7  A    between atoms: O_13  and  C_14
REMARK    8  A    between atoms: N_19  and  C_20
REMARK    9  A    between atoms: C_24  and  S_25
REMARK   10  A    between atoms: S_25  and  N_28
REMARK                            x       y       z     vdW  Elec       q    Type
REMARK                         _______ _______ _______ _____ _____    ______ ____
ROOT
ATOM      1  O   UNL     1       1.654   8.365  17.552  0.00  0.00    +0.000 OA
ATOM      2  C   UNL     1       1.641   8.788  18.708  0.00  0.00    +0.000 C 
ATOM      3  N   UNL     1       1.903   8.039  19.848  0.00  0.00    +0.000 N 
ATOM      4  H   UNL     1       1.878   8.538  20.734  0.00  0.00    +0.000 HD
ENDROOT
BRANCH   3   5
ATOM      5  C   UNL     1       2.215   6.655  19.907  0.00  0.00    +0.000 A 
ATOM      6  C   UNL     1       1.540   5.748  20.728  0.00  0.00    +0.000 A 
ATOM      7  C   UNL     1       1.874   4.387  20.735  0.00  0.00    +0.000 A 
ATOM      8  C   UNL     1       2.895   3.910  19.917  0.00  0.00    +0.000 A 
ATOM      9  C   UNL     1       3.594   4.807  19.111  0.00  0.00    +0.000 A 
ATOM     10  C   UNL     1       3.265   6.177  19.104  0.00  0.00    +0.000 A 
BRANCH   9  11
ATOM     11  S   UNL     1       4.849   4.170  18.021  0.00  0.00    +0.000 S 
ATOM     12  O   UNL     1       6.091   4.152  18.762  0.00  0.00    +0.000 OA
ATOM     13  O   UNL     1       4.334   2.956  17.418  0.00  0.00    +0.000 OA
BRANCH  11  14
ATOM     14  N   UNL     1       4.989   5.335  16.780  0.00  0.00    +0.000 NA
ATOM     15  C   UNL     1       5.383   4.867  15.417  0.00  0.00    +0.000 C 
ATOM     16  C   UNL     1       6.900   4.686  15.277  0.00  0.00    +0.000 C 
ATOM     17  O   UNL     1       7.622   5.868  15.648  0.00  0.00    +0.000 OA
ATOM     18  C   UNL     1       7.306   6.283  16.985  0.00  0.00    +0.000 C 
ATOM     19  C   UNL     1       5.805   6.546  17.140  0.00  0.00    +0.000 C 
ENDBRANCH  11  14
ENDBRANCH   9  11
ENDBRANCH   3   5
BRANCH   2  20
ATOM     20  C   UNL     1       1.259  10.260  18.969  0.00  0.00    +0.000 C 
BRANCH  20  21
ATOM     21  O   UNL     1       0.158  10.526  19.837  0.00  0.00    +0.000 OA
BRANCH  21  22
ATOM     22  C   UNL     1      -0.890  11.156  19.260  0.00  0.00    +0.000 C 
ATOM     23  O   UNL     1      -1.237  11.020  18.097  0.00  0.00    +0.000 OA
BRANCH  22  24
ATOM     24  C   UNL     1      -1.585  11.974  20.272  0.00  0.00    +0.000 C 
ATOM     25  C   UNL     1      -1.301  11.800  21.572  0.00  0.00    +0.000 C 
BRANCH  25  26
ATOM     26  C   UNL     1      -1.849  12.610  22.672  0.00  0.00    +0.000 A 
ATOM     27  C   UNL     1      -1.130  13.727  23.120  0.00  0.00    +0.000 A 
ATOM     28  C   UNL     1      -1.666  14.575  24.095  0.00  0.00    +0.000 A 
ATOM     29  C   UNL     1      -2.937  14.339  24.621  0.00  0.00    +0.000 A 
ATOM     30  C   UNL     1      -3.649  13.215  24.205  0.00  0.00    +0.000 A 
ATOM     31  C   UNL     1      -3.110  12.364  23.230  0.00  0.00    +0.000 A 
BRANCH  29  32
ATOM     32  O   UNL     1      -3.367  15.253  25.540  0.00  0.00    +0.000 OA
BRANCH  32  33
ATOM     33  C   UNL     1      -3.549  16.570  25.048  0.00  0.00    +0.000 C 
ATOM     34  F   UNL     1      -4.808  16.977  25.343  0.00  0.00    +0.000 F 
ATOM     35  F   UNL     1      -2.705  17.380  25.737  0.00  0.00    +0.000 F 
ENDBRANCH  32  33
ENDBRANCH  29  32
ENDBRANCH  25  26
ENDBRANCH  22  24
ENDBRANCH  21  22
ENDBRANCH  20  21
ENDBRANCH   2  20
TORSDOF 10
ENDMDL
