MODEL 1
REMARK VINA RESULT:      -5.7      0.000      0.000
REMARK  Name = 
REMARK  4 active torsions:
REMARK  status: ('A' for Active; 'I' for Inactive)
REMARK    1  A    between atoms: C_1  and  N_2
REMARK    2  A    between atoms: N_2  and  C_3
REMARK    3  A    between atoms: C_3  and  C_4
REMARK    4  A    between atoms: C_9  and  C_11
REMARK                            x       y       z     vdW  Elec       q    Type
REMARK                         _______ _______ _______ _____ _____    ______ ____
ROOT
ATOM      1  C   UNL     1       4.877   3.801  15.979  0.00  0.00    +0.000 C 
ATOM      2  N   UNL     1       4.022   4.141  17.107  0.00  0.00    +0.000 N 
ATOM      3  C   UNL     1       3.520   3.058  17.858  0.00  0.00    +0.000 C 
ATOM      4  O   UNL     1       3.828   1.905  17.538  0.00  0.00    +0.000 OA
ENDROOT
BRANCH   3   5
ATOM      5  C   UNL     1       2.641   3.328  18.993  0.00  0.00    +0.000 A 
ATOM      6  C   UNL     1       1.366   3.863  19.051  0.00  0.00    +0.000 A 
ATOM      7  C   UNL     1       0.866   3.971  20.382  0.00  0.00    +0.000 A 
ATOM      8  C   UNL     1       1.747   3.455  21.302  0.00  0.00    +0.000 A 
ATOM      9  S   UNL     1       3.174   2.870  20.567  0.00  0.00    +0.000 S 
ENDBRANCH   3   5
BRANCH   2  10
ATOM     10  C   UNL     1       4.142   5.501  17.617  0.00  0.00    +0.000 C 
BRANCH  10  11
ATOM     11  C   UNL     1       5.565   5.859  17.968  0.00  0.00    +0.000 A 
ATOM     12  C   UNL     1       6.398   6.849  17.338  0.00  0.00    +0.000 A 
ATOM     13  C   UNL     1       7.637   6.965  17.928  0.00  0.00    +0.000 A 
ATOM     14  S   UNL     1       7.830   5.880  19.230  0.00  0.00    +0.000 S 
ATOM     15  C   UNL     1       6.252   5.260  19.013  0.00  0.00    +0.000 A 
ENDBRANCH  10  11
ENDBRANCH   2  10
TORSDOF 3
ENDMDL
MODEL 2
REMARK VINA RESULT:      -5.7      2.056      2.637
REMARK  Name = 
REMARK  4 active torsions:
REMARK  status: ('A' for Active; 'I' for Inactive)
REMARK    1  A    between atoms: C_1  and  N_2
REMARK    2  A    between atoms: N_2  and  C_3
REMARK    3  A    between atoms: C_3  and  C_4
REMARK    4  A    between atoms: C_9  and  C_11
REMARK                            x       y       z     vdW  Elec       q    Type
REMARK                         _______ _______ _______ _____ _____    ______ ____
ROOT
ATOM      1  C   UNL     1       3.447   1.679  18.092  0.00  0.00    +0.000 C 
ATOM      2  N   UNL     1       3.510   3.085  18.462  0.00  0.00    +0.000 N 
ATOM      3  C   UNL     1       2.296   3.801  18.404  0.00  0.00    +0.000 C 
ATOM      4  O   UNL     1       1.264   3.215  18.061  0.00  0.00    +0.000 OA
ENDROOT
BRANCH   3   5
ATOM      5  C   UNL     1       2.292   5.221  18.745  0.00  0.00    +0.000 A 
ATOM      6  C   UNL     1       2.508   6.345  17.969  0.00  0.00    +0.000 A 
ATOM      7  C   UNL     1       2.425   7.560  18.710  0.00  0.00    +0.000 A 
ATOM      8  C   UNL     1       2.085   7.337  20.022  0.00  0.00    +0.000 A 
ATOM      9  S   UNL     1       1.891   5.673  20.360  0.00  0.00    +0.000 S 
ENDBRANCH   3   5
BRANCH   2  10
ATOM     10  C   UNL     1       4.655   3.486  19.269  0.00  0.00    +0.000 C 
BRANCH  10  11
ATOM     11  C   UNL     1       5.600   4.390  18.516  0.00  0.00    +0.000 A 
ATOM     12  C   UNL     1       5.822   4.434  17.095  0.00  0.00    +0.000 A 
ATOM     13  C   UNL     1       6.719   5.408  16.718  0.00  0.00    +0.000 A 
ATOM     14  S   UNL     1       7.325   6.271  18.059  0.00  0.00    +0.000 S 
ATOM     15  C   UNL     1       6.379   5.349  19.145  0.00  0.00    +0.000 A 
ENDBRANCH  10  11
ENDBRANCH   2  10
TORSDOF 3
ENDMDL
MODEL 3
REMARK VINA RESULT:      -5.6      0.658      1.063
REMARK  Name = 
REMARK  4 active torsions:
REMARK  status: ('A' for Active; 'I' for Inactive)
REMARK    1  A    between atoms: C_1  and  N_2
REMARK    2  A    between atoms: N_2  and  C_3
REMARK    3  A    between atoms: C_3  and  C_4
REMARK    4  A    between atoms: C_9  and  C_11
REMARK                            x       y       z     vdW  Elec       q    Type
REMARK                         _______ _______ _______ _____ _____    ______ ____
ROOT
ATOM      1  C   UNL     1       4.858   3.820  16.071  0.00  0.00    +0.000 C 
ATOM      2  N   UNL     1       3.981   4.107  17.196  0.00  0.00    +0.000 N 
ATOM      3  C   UNL     1       3.526   2.994  17.932  0.00  0.00    +0.000 C 
ATOM      4  O   UNL     1       3.890   1.861  17.603  0.00  0.00    +0.000 OA
ENDROOT
BRANCH   3   5
ATOM      5  C   UNL     1       2.628   3.210  19.065  0.00  0.00    +0.000 A 
ATOM      6  C   UNL     1       1.321   3.658  19.118  0.00  0.00    +0.000 A 
ATOM      7  C   UNL     1       0.812   3.739  20.447  0.00  0.00    +0.000 A 
ATOM      8  C   UNL     1       1.723   3.288  21.372  0.00  0.00    +0.000 A 
ATOM      9  S   UNL     1       3.188   2.797  20.642  0.00  0.00    +0.000 S 
ENDBRANCH   3   5
BRANCH   2  10
ATOM     10  C   UNL     1       4.034   5.466  17.721  0.00  0.00    +0.000 C 
BRANCH  10  11
ATOM     11  C   UNL     1       5.447   5.930  17.972  0.00  0.00    +0.000 A 
ATOM     12  C   UNL     1       6.390   5.392  18.917  0.00  0.00    +0.000 A 
ATOM     13  C   UNL     1       7.618   6.012  18.868  0.00  0.00    +0.000 A 
ATOM     14  S   UNL     1       7.657   7.260  17.706  0.00  0.00    +0.000 S 
ATOM     15  C   UNL     1       6.033   6.965  17.260  0.00  0.00    +0.000 A 
ENDBRANCH  10  11
ENDBRANCH   2  10
TORSDOF 3
ENDMDL
MODEL 4
REMARK VINA RESULT:      -5.5      0.915      1.158
REMARK  Name = 
REMARK  4 active torsions:
REMARK  status: ('A' for Active; 'I' for Inactive)
REMARK    1  A    between atoms: C_1  and  N_2
REMARK    2  A    between atoms: N_2  and  C_3
REMARK    3  A    between atoms: C_3  and  C_4
REMARK    4  A    between atoms: C_9  and  C_11
REMARK                            x       y       z     vdW  Elec       q    Type
REMARK                         _______ _______ _______ _____ _____    ______ ____
ROOT
ATOM      1  C   UNL     1       4.648   3.742  16.151  0.00  0.00    +0.000 C 
ATOM      2  N   UNL     1       3.922   3.910  17.401  0.00  0.00    +0.000 N 
ATOM      3  C   UNL     1       3.604   2.728  18.102  0.00  0.00    +0.000 C 
ATOM      4  O   UNL     1       3.956   1.638  17.640  0.00  0.00    +0.000 OA
ENDROOT
BRANCH   3   5
ATOM      5  C   UNL     1       2.861   2.824  19.355  0.00  0.00    +0.000 A 
ATOM      6  C   UNL     1       3.284   2.782  20.671  0.00  0.00    +0.000 A 
ATOM      7  C   UNL     1       2.215   2.899  21.606  0.00  0.00    +0.000 A 
ATOM      8  C   UNL     1       1.007   3.093  20.981  0.00  0.00    +0.000 A 
ATOM      9  S   UNL     1       1.161   3.107  19.279  0.00  0.00    +0.000 S 
ENDBRANCH   3   5
BRANCH   2  10
ATOM     10  C   UNL     1       4.003   5.227  18.019  0.00  0.00    +0.000 C 
BRANCH  10  11
ATOM     11  C   UNL     1       5.422   5.730  18.117  0.00  0.00    +0.000 A 
ATOM     12  C   UNL     1       6.046   6.749  17.316  0.00  0.00    +0.000 A 
ATOM     13  C   UNL     1       7.346   7.009  17.689  0.00  0.00    +0.000 A 
ATOM     14  S   UNL     1       7.845   6.025  18.990  0.00  0.00    +0.000 S 
ATOM     15  C   UNL     1       6.320   5.257  19.062  0.00  0.00    +0.000 A 
ENDBRANCH  10  11
ENDBRANCH   2  10
TORSDOF 3
ENDMDL
MODEL 5
REMARK VINA RESULT:      -5.5      2.240      2.891
REMARK  Name = 
REMARK  4 active torsions:
REMARK  status: ('A' for Active; 'I' for Inactive)
REMARK    1  A    between atoms: C_1  and  N_2
REMARK    2  A    between atoms: N_2  and  C_3
REMARK    3  A    between atoms: C_3  and  C_4
REMARK    4  A    between atoms: C_9  and  C_11
REMARK                            x       y       z     vdW  Elec       q    Type
REMARK                         _______ _______ _______ _____ _____    ______ ____
ROOT
ATOM      1  C   UNL     1       5.036   3.739  16.514  0.00  0.00    +0.000 C 
ATOM      2  N   UNL     1       4.321   3.852  17.776  0.00  0.00    +0.000 N 
ATOM      3  C   UNL     1       3.642   2.696  18.215  0.00  0.00    +0.000 C 
ATOM      4  O   UNL     1       3.693   1.669  17.532  0.00  0.00    +0.000 OA
ENDROOT
BRANCH   3   5
ATOM      5  C   UNL     1       2.888   2.747  19.465  0.00  0.00    +0.000 A 
ATOM      6  C   UNL     1       3.299   2.636  20.781  0.00  0.00    +0.000 A 
ATOM      7  C   UNL     1       2.223   2.728  21.712  0.00  0.00    +0.000 A 
ATOM      8  C   UNL     1       1.025   2.972  21.086  0.00  0.00    +0.000 A 
ATOM      9  S   UNL     1       1.195   3.063  19.388  0.00  0.00    +0.000 S 
ENDBRANCH   3   5
BRANCH   2  10
ATOM     10  C   UNL     1       4.738   4.936  18.657  0.00  0.00    +0.000 C 
BRANCH  10  11
ATOM     11  C   UNL     1       3.766   6.089  18.649  0.00  0.00    +0.000 A 
ATOM     12  C   UNL     1       2.824   6.446  19.677  0.00  0.00    +0.000 A 
ATOM     13  C   UNL     1       2.110   7.586  19.383  0.00  0.00    +0.000 A 
ATOM     14  S   UNL     1       2.540   8.235  17.866  0.00  0.00    +0.000 S 
ATOM     15  C   UNL     1       3.690   6.998  17.605  0.00  0.00    +0.000 A 
ENDBRANCH  10  11
ENDBRANCH   2  10
TORSDOF 3
ENDMDL
MODEL 6
REMARK VINA RESULT:      -5.5      2.380      4.524
REMARK  Name = 
REMARK  4 active torsions:
REMARK  status: ('A' for Active; 'I' for Inactive)
REMARK    1  A    between atoms: C_1  and  N_2
REMARK    2  A    between atoms: N_2  and  C_3
REMARK    3  A    between atoms: C_3  and  C_4
REMARK    4  A    between atoms: C_9  and  C_11
REMARK                            x       y       z     vdW  Elec       q    Type
REMARK                         _______ _______ _______ _____ _____    ______ ____
ROOT
ATOM      1  C   UNL     1       2.596   2.591  21.400  0.00  0.00    +0.000 C 
ATOM      2  N   UNL     1       3.007   3.299  20.197  0.00  0.00    +0.000 N 
ATOM      3  C   UNL     1       4.260   2.940  19.659  0.00  0.00    +0.000 C 
ATOM      4  O   UNL     1       4.927   2.060  20.213  0.00  0.00    +0.000 OA
ENDROOT
BRANCH   3   5
ATOM      5  C   UNL     1       4.743   3.624  18.462  0.00  0.00    +0.000 A 
ATOM      6  C   UNL     1       4.422   3.459  17.127  0.00  0.00    +0.000 A 
ATOM      7  C   UNL     1       5.144   4.336  16.266  0.00  0.00    +0.000 A 
ATOM      8  C   UNL     1       5.952   5.195  16.972  0.00  0.00    +0.000 A 
ATOM      9  S   UNL     1       5.857   4.926  18.657  0.00  0.00    +0.000 S 
ENDBRANCH   3   5
BRANCH   2  10
ATOM     10  C   UNL     1       1.944   3.936  19.430  0.00  0.00    +0.000 C 
BRANCH  10  11
ATOM     11  C   UNL     1       2.009   5.442  19.500  0.00  0.00    +0.000 A 
ATOM     12  C   UNL     1       2.409   6.349  18.457  0.00  0.00    +0.000 A 
ATOM     13  C   UNL     1       2.313   7.672  18.826  0.00  0.00    +0.000 A 
ATOM     14  S   UNL     1       1.763   7.849  20.431  0.00  0.00    +0.000 S 
ATOM     15  C   UNL     1       1.643   6.156  20.630  0.00  0.00    +0.000 A 
ENDBRANCH  10  11
ENDBRANCH   2  10
TORSDOF 3
ENDMDL
MODEL 7
REMARK VINA RESULT:      -5.4      2.352      5.531
REMARK  Name = 
REMARK  4 active torsions:
REMARK  status: ('A' for Active; 'I' for Inactive)
REMARK    1  A    between atoms: C_1  and  N_2
REMARK    2  A    between atoms: N_2  and  C_3
REMARK    3  A    between atoms: C_3  and  C_4
REMARK    4  A    between atoms: C_9  and  C_11
REMARK                            x       y       z     vdW  Elec       q    Type
REMARK                         _______ _______ _______ _____ _____    ______ ____
ROOT
ATOM      1  C   UNL     1       2.338   7.459  19.087  0.00  0.00    +0.000 C 
ATOM      2  N   UNL     1       3.292   6.459  18.631  0.00  0.00    +0.000 N 
ATOM      3  C   UNL     1       4.000   6.765  17.450  0.00  0.00    +0.000 C 
ATOM      4  O   UNL     1       3.790   7.840  16.879  0.00  0.00    +0.000 OA
ENDROOT
BRANCH   3   5
ATOM      5  C   UNL     1       4.960   5.797  16.927  0.00  0.00    +0.000 A 
ATOM      6  C   UNL     1       4.778   4.632  16.204  0.00  0.00    +0.000 A 
ATOM      7  C   UNL     1       6.001   3.965  15.900  0.00  0.00    +0.000 A 
ATOM      8  C   UNL     1       7.092   4.672  16.344  0.00  0.00    +0.000 A 
ATOM      9  S   UNL     1       6.641   6.115  17.141  0.00  0.00    +0.000 S 
ENDBRANCH   3   5
BRANCH   2  10
ATOM     10  C   UNL     1       3.751   5.505  19.632  0.00  0.00    +0.000 C 
BRANCH  10  11
ATOM     11  C   UNL     1       2.753   4.398  19.871  0.00  0.00    +0.000 A 
ATOM     12  C   UNL     1       2.152   4.018  21.122  0.00  0.00    +0.000 A 
ATOM     13  C   UNL     1       1.241   2.993  20.993  0.00  0.00    +0.000 A 
ATOM     14  S   UNL     1       1.107   2.456  19.379  0.00  0.00    +0.000 S 
ATOM     15  C   UNL     1       2.260   3.602  18.849  0.00  0.00    +0.000 A 
ENDBRANCH  10  11
ENDBRANCH   2  10
TORSDOF 3
ENDMDL
MODEL 8
REMARK VINA RESULT:      -5.4      3.016      5.794
REMARK  Name = 
REMARK  4 active torsions:
REMARK  status: ('A' for Active; 'I' for Inactive)
REMARK    1  A    between atoms: C_1  and  N_2
REMARK    2  A    between atoms: N_2  and  C_3
REMARK    3  A    between atoms: C_3  and  C_4
REMARK    4  A    between atoms: C_9  and  C_11
REMARK                            x       y       z     vdW  Elec       q    Type
REMARK                         _______ _______ _______ _____ _____    ______ ____
ROOT
ATOM      1  C   UNL     1       6.994   6.357  17.977  0.00  0.00    +0.000 C 
ATOM      2  N   UNL     1       6.586   6.001  16.626  0.00  0.00    +0.000 N 
ATOM      3  C   UNL     1       7.209   4.868  16.065  0.00  0.00    +0.000 C 
ATOM      4  O   UNL     1       8.040   4.242  16.730  0.00  0.00    +0.000 OA
ENDROOT
BRANCH   3   5
ATOM      5  C   UNL     1       6.860   4.465  14.705  0.00  0.00    +0.000 A 
ATOM      6  C   UNL     1       5.841   3.661  14.226  0.00  0.00    +0.000 A 
ATOM      7  C   UNL     1       5.866   3.511  12.809  0.00  0.00    +0.000 A 
ATOM      8  C   UNL     1       6.866   4.257  12.234  0.00  0.00    +0.000 A 
ATOM      9  S   UNL     1       7.781   5.110  13.398  0.00  0.00    +0.000 S 
ENDBRANCH   3   5
BRANCH   2  10
ATOM     10  C   UNL     1       5.303   6.530  16.181  0.00  0.00    +0.000 C 
BRANCH  10  11
ATOM     11  C   UNL     1       4.187   6.219  17.148  0.00  0.00    +0.000 A 
ATOM     12  C   UNL     1       3.441   7.151  17.951  0.00  0.00    +0.000 A 
ATOM     13  C   UNL     1       2.452   6.550  18.698  0.00  0.00    +0.000 A 
ATOM     14  S   UNL     1       2.415   4.860  18.465  0.00  0.00    +0.000 S 
ATOM     15  C   UNL     1       3.715   4.933  17.357  0.00  0.00    +0.000 A 
ENDBRANCH  10  11
ENDBRANCH   2  10
TORSDOF 3
ENDMDL
MODEL 9
REMARK VINA RESULT:      -5.3      2.524      4.579
REMARK  Name = 
REMARK  4 active torsions:
REMARK  status: ('A' for Active; 'I' for Inactive)
REMARK    1  A    between atoms: C_1  and  N_2
REMARK    2  A    between atoms: N_2  and  C_3
REMARK    3  A    between atoms: C_3  and  C_4
REMARK    4  A    between atoms: C_9  and  C_11
REMARK                            x       y       z     vdW  Elec       q    Type
REMARK                         _______ _______ _______ _____ _____    ______ ____
ROOT
ATOM      1  C   UNL     1       2.543   2.761  21.218  0.00  0.00    +0.000 C 
ATOM      2  N   UNL     1       3.021   3.444  20.025  0.00  0.00    +0.000 N 
ATOM      3  C   UNL     1       4.312   3.095  19.580  0.00  0.00    +0.000 C 
ATOM      4  O   UNL     1       4.956   2.242  20.200  0.00  0.00    +0.000 OA
ENDROOT
BRANCH   3   5
ATOM      5  C   UNL     1       4.860   3.756  18.399  0.00  0.00    +0.000 A 
ATOM      6  C   UNL     1       4.636   3.545  17.050  0.00  0.00    +0.000 A 
ATOM      7  C   UNL     1       5.396   4.414  16.215  0.00  0.00    +0.000 A 
ATOM      8  C   UNL     1       6.133   5.313  16.947  0.00  0.00    +0.000 A 
ATOM      9  S   UNL     1       5.928   5.090  18.629  0.00  0.00    +0.000 S 
ENDBRANCH   3   5
BRANCH   2  10
ATOM     10  C   UNL     1       1.999   4.041  19.174  0.00  0.00    +0.000 C 
BRANCH  10  11
ATOM     11  C   UNL     1       2.045   5.549  19.193  0.00  0.00    +0.000 A 
ATOM     12  C   UNL     1       1.852   6.416  20.326  0.00  0.00    +0.000 A 
ATOM     13  C   UNL     1       2.004   7.749  20.017  0.00  0.00    +0.000 A 
ATOM     14  S   UNL     1       2.361   7.986  18.366  0.00  0.00    +0.000 S 
ATOM     15  C   UNL     1       2.322   6.304  18.064  0.00  0.00    +0.000 A 
ENDBRANCH  10  11
ENDBRANCH   2  10
TORSDOF 3
ENDMDL
