MODEL 1
REMARK VINA RESULT:      -9.6      0.000      0.000
REMARK  Name = 
REMARK  4 active torsions:
REMARK  status: ('A' for Active; 'I' for Inactive)
REMARK    1  A    between atoms: C_2  and  C_20
REMARK    2  A    between atoms: N_3  and  C_4
REMARK    3  A    between atoms: C_9  and  C_10
REMARK    4  A    between atoms: C_24  and  C_25
REMARK                            x       y       z     vdW  Elec       q    Type
REMARK                         _______ _______ _______ _____ _____    ______ ____
ROOT
ATOM      1  C   UNL     1       6.761   6.713  16.951  0.00  0.00    +0.000 A 
ATOM      2  C   UNL     1       7.303   5.894  15.965  0.00  0.00    +0.000 A 
ATOM      3  C   UNL     1       6.765   4.633  15.727  0.00  0.00    +0.000 A 
ATOM      4  C   UNL     1       5.677   4.188  16.470  0.00  0.00    +0.000 A 
ATOM      5  F   UNL     1       5.174   2.984  16.156  0.00  0.00    +0.000 F 
ATOM      6  C   UNL     1       5.110   4.963  17.498  0.00  0.00    +0.000 A 
ATOM      7  C   UNL     1       5.696   6.228  17.732  0.00  0.00    +0.000 A 
ENDROOT
BRANCH   6   8
ATOM      8  C   UNL     1       3.942   4.489  18.292  0.00  0.00    +0.000 A 
ATOM      9  C   UNL     1       2.626   4.611  17.801  0.00  0.00    +0.000 A 
ATOM     10  C   UNL     1       1.502   4.173  18.524  0.00  0.00    +0.000 A 
ATOM     11  C   UNL     1       1.701   3.569  19.773  0.00  0.00    +0.000 A 
ATOM     12  C   UNL     1       0.888   3.001  20.778  0.00  0.00    +0.000 A 
ATOM     13  N   UNL     1       1.595   2.535  21.813  0.00  0.00    +0.000 NA
ATOM     14  N   UNL     1       2.867   2.805  21.465  0.00  0.00    +0.000 N 
ATOM     15  C   UNL     1       2.993   3.437  20.257  0.00  0.00    +0.000 A 
ATOM     16  C   UNL     1       4.120   3.892  19.557  0.00  0.00    +0.000 A 
ATOM     17  H   UNL     1       3.609   2.526  22.097  0.00  0.00    +0.000 HD
ENDBRANCH   6   8
BRANCH   1  20
ATOM     18  O   UNL     1       8.703   7.654  18.967  0.00  0.00    +0.000 OA
ATOM     19  C   UNL     1       8.135   8.396  18.171  0.00  0.00    +0.000 C 
ATOM     20  N   UNL     1       7.218   8.027  17.202  0.00  0.00    +0.000 N 
ATOM     21  H   UNL     1       6.973   8.724  16.510  0.00  0.00    +0.000 HD
BRANCH  19  22
ATOM     22  C   UNL     1       8.518   9.830  18.174  0.00  0.00    +0.000 A 
ATOM     23  C   UNL     1       7.831  10.782  17.413  0.00  0.00    +0.000 A 
ATOM     24  C   UNL     1       8.232  12.118  17.454  0.00  0.00    +0.000 A 
ATOM     25  C   UNL     1       9.314  12.505  18.249  0.00  0.00    +0.000 A 
ATOM     26  C   UNL     1      10.006  11.562  19.025  0.00  0.00    +0.000 A 
ATOM     27  C   UNL     1       9.589  10.224  18.988  0.00  0.00    +0.000 A 
BRANCH  26  28
ATOM     28  C   UNL     1      11.181  11.957  19.886  0.00  0.00    +0.000 C 
ATOM     29  F   UNL     1      11.517  13.272  19.774  0.00  0.00    +0.000 F 
ATOM     30  F   UNL     1      10.958  11.739  21.210  0.00  0.00    +0.000 F 
ATOM     31  F   UNL     1      12.307  11.259  19.574  0.00  0.00    +0.000 F 
ENDBRANCH  26  28
ENDBRANCH  19  22
ENDBRANCH   1  20
TORSDOF 4
ENDMDL
MODEL 2
REMARK VINA RESULT:      -9.3      5.918      8.187
REMARK  Name = 
REMARK  4 active torsions:
REMARK  status: ('A' for Active; 'I' for Inactive)
REMARK    1  A    between atoms: C_2  and  C_20
REMARK    2  A    between atoms: N_3  and  C_4
REMARK    3  A    between atoms: C_9  and  C_10
REMARK    4  A    between atoms: C_24  and  C_25
REMARK                            x       y       z     vdW  Elec       q    Type
REMARK                         _______ _______ _______ _____ _____    ______ ____
ROOT
ATOM      1  C   UNL     1       4.078   4.893  17.616  0.00  0.00    +0.000 A 
ATOM      2  C   UNL     1       4.093   3.840  18.526  0.00  0.00    +0.000 A 
ATOM      3  C   UNL     1       3.453   3.968  19.756  0.00  0.00    +0.000 A 
ATOM      4  C   UNL     1       2.791   5.148  20.077  0.00  0.00    +0.000 A 
ATOM      5  F   UNL     1       2.152   5.188  21.257  0.00  0.00    +0.000 F 
ATOM      6  C   UNL     1       2.771   6.253  19.207  0.00  0.00    +0.000 A 
ATOM      7  C   UNL     1       3.451   6.100  17.977  0.00  0.00    +0.000 A 
ENDROOT
BRANCH   6   8
ATOM      8  C   UNL     1       2.058   7.515  19.549  0.00  0.00    +0.000 A 
ATOM      9  C   UNL     1       1.564   7.747  20.849  0.00  0.00    +0.000 A 
ATOM     10  C   UNL     1       0.888   8.928  21.205  0.00  0.00    +0.000 A 
ATOM     11  C   UNL     1       0.721   9.924  20.234  0.00  0.00    +0.000 A 
ATOM     12  C   UNL     1       0.141  11.210  20.173  0.00  0.00    +0.000 A 
ATOM     13  N   UNL     1       0.258  11.774  18.967  0.00  0.00    +0.000 NA
ATOM     14  N   UNL     1       0.920  10.845  18.254  0.00  0.00    +0.000 N 
ATOM     15  C   UNL     1       1.214   9.707  18.956  0.00  0.00    +0.000 A 
ATOM     16  C   UNL     1       1.867   8.524  18.582  0.00  0.00    +0.000 A 
ATOM     17  H   UNL     1       1.147  11.050  17.288  0.00  0.00    +0.000 HD
ENDBRANCH   6   8
BRANCH   1  20
ATOM     18  O   UNL     1       6.919   5.070  16.829  0.00  0.00    +0.000 OA
ATOM     19  C   UNL     1       6.001   4.902  16.032  0.00  0.00    +0.000 C 
ATOM     20  N   UNL     1       4.651   4.808  16.326  0.00  0.00    +0.000 N 
ATOM     21  H   UNL     1       4.039   4.493  15.585  0.00  0.00    +0.000 HD
BRANCH  19  22
ATOM     22  C   UNL     1       6.359   4.689  14.606  0.00  0.00    +0.000 A 
ATOM     23  C   UNL     1       7.581   5.116  14.079  0.00  0.00    +0.000 A 
ATOM     24  C   UNL     1       7.868   4.889  12.731  0.00  0.00    +0.000 A 
ATOM     25  C   UNL     1       6.939   4.240  11.913  0.00  0.00    +0.000 A 
ATOM     26  C   UNL     1       5.713   3.798  12.432  0.00  0.00    +0.000 A 
ATOM     27  C   UNL     1       5.438   4.019  13.789  0.00  0.00    +0.000 A 
BRANCH  26  28
ATOM     28  C   UNL     1       4.693   3.101  11.565  0.00  0.00    +0.000 C 
ATOM     29  F   UNL     1       4.370   3.799  10.441  0.00  0.00    +0.000 F 
ATOM     30  F   UNL     1       5.115   1.879  11.138  0.00  0.00    +0.000 F 
ATOM     31  F   UNL     1       3.519   2.887  12.220  0.00  0.00    +0.000 F 
ENDBRANCH  26  28
ENDBRANCH  19  22
ENDBRANCH   1  20
TORSDOF 4
ENDMDL
MODEL 3
REMARK VINA RESULT:      -9.2      5.986      8.036
REMARK  Name = 
REMARK  4 active torsions:
REMARK  status: ('A' for Active; 'I' for Inactive)
REMARK    1  A    between atoms: C_2  and  C_20
REMARK    2  A    between atoms: N_3  and  C_4
REMARK    3  A    between atoms: C_9  and  C_10
REMARK    4  A    between atoms: C_24  and  C_25
REMARK                            x       y       z     vdW  Elec       q    Type
REMARK                         _______ _______ _______ _____ _____    ______ ____
ROOT
ATOM      1  C   UNL     1       3.999   4.892  17.685  0.00  0.00    +0.000 A 
ATOM      2  C   UNL     1       3.943   3.800  18.547  0.00  0.00    +0.000 A 
ATOM      3  C   UNL     1       3.283   3.905  19.768  0.00  0.00    +0.000 A 
ATOM      4  C   UNL     1       2.671   5.100  20.129  0.00  0.00    +0.000 A 
ATOM      5  F   UNL     1       2.008   5.119  21.296  0.00  0.00    +0.000 F 
ATOM      6  C   UNL     1       2.723   6.242  19.310  0.00  0.00    +0.000 A 
ATOM      7  C   UNL     1       3.423   6.110  18.087  0.00  0.00    +0.000 A 
ENDROOT
BRANCH   6   8
ATOM      8  C   UNL     1       2.064   7.521  19.694  0.00  0.00    +0.000 A 
ATOM      9  C   UNL     1       1.785   8.517  18.735  0.00  0.00    +0.000 A 
ATOM     10  C   UNL     1       1.164   9.735  19.064  0.00  0.00    +0.000 A 
ATOM     11  C   UNL     1       0.785   9.957  20.394  0.00  0.00    +0.000 A 
ATOM     12  C   UNL     1       0.152  10.989  21.121  0.00  0.00    +0.000 A 
ATOM     13  N   UNL     1       0.010  10.695  22.418  0.00  0.00    +0.000 NA
ATOM     14  N   UNL     1       0.552   9.469  22.519  0.00  0.00    +0.000 N 
ATOM     15  C   UNL     1       1.047   8.978  21.340  0.00  0.00    +0.000 A 
ATOM     16  C   UNL     1       1.688   7.770  21.030  0.00  0.00    +0.000 A 
ATOM     17  H   UNL     1       0.551   9.014  23.425  0.00  0.00    +0.000 HD
ENDBRANCH   6   8
BRANCH   1  20
ATOM     18  O   UNL     1       6.855   4.642  16.976  0.00  0.00    +0.000 OA
ATOM     19  C   UNL     1       5.952   4.719  16.148  0.00  0.00    +0.000 C 
ATOM     20  N   UNL     1       4.596   4.836  16.405  0.00  0.00    +0.000 N 
ATOM     21  H   UNL     1       3.967   4.709  15.623  0.00  0.00    +0.000 HD
BRANCH  19  22
ATOM     22  C   UNL     1       6.320   4.590  14.715  0.00  0.00    +0.000 A 
ATOM     23  C   UNL     1       7.536   5.070  14.217  0.00  0.00    +0.000 A 
ATOM     24  C   UNL     1       7.833   4.921  12.861  0.00  0.00    +0.000 A 
ATOM     25  C   UNL     1       6.921   4.297  12.005  0.00  0.00    +0.000 A 
ATOM     26  C   UNL     1       5.703   3.801  12.493  0.00  0.00    +0.000 A 
ATOM     27  C   UNL     1       5.417   3.944  13.858  0.00  0.00    +0.000 A 
BRANCH  26  28
ATOM     28  C   UNL     1       4.702   3.130  11.585  0.00  0.00    +0.000 C 
ATOM     29  F   UNL     1       4.418   3.851  10.464  0.00  0.00    +0.000 F 
ATOM     30  F   UNL     1       5.124   1.912  11.149  0.00  0.00    +0.000 F 
ATOM     31  F   UNL     1       3.507   2.917  12.202  0.00  0.00    +0.000 F 
ENDBRANCH  26  28
ENDBRANCH  19  22
ENDBRANCH   1  20
TORSDOF 4
ENDMDL
MODEL 4
REMARK VINA RESULT:      -9.1      5.974      8.184
REMARK  Name = 
REMARK  4 active torsions:
REMARK  status: ('A' for Active; 'I' for Inactive)
REMARK    1  A    between atoms: C_2  and  C_20
REMARK    2  A    between atoms: N_3  and  C_4
REMARK    3  A    between atoms: C_9  and  C_10
REMARK    4  A    between atoms: C_24  and  C_25
REMARK                            x       y       z     vdW  Elec       q    Type
REMARK                         _______ _______ _______ _____ _____    ______ ____
ROOT
ATOM      1  C   UNL     1       4.303   4.865  17.370  0.00  0.00    +0.000 A 
ATOM      2  C   UNL     1       4.295   3.787  18.251  0.00  0.00    +0.000 A 
ATOM      3  C   UNL     1       3.619   3.877  19.464  0.00  0.00    +0.000 A 
ATOM      4  C   UNL     1       2.941   5.044  19.798  0.00  0.00    +0.000 A 
ATOM      5  F   UNL     1       2.266   5.048  20.958  0.00  0.00    +0.000 F 
ATOM      6  C   UNL     1       2.941   6.173  18.959  0.00  0.00    +0.000 A 
ATOM      7  C   UNL     1       3.659   6.058  17.746  0.00  0.00    +0.000 A 
ENDROOT
BRANCH   6   8
ATOM      8  C   UNL     1       2.212   7.423  19.315  0.00  0.00    +0.000 A 
ATOM      9  C   UNL     1       1.726   7.639  20.620  0.00  0.00    +0.000 A 
ATOM     10  C   UNL     1       1.035   8.807  20.989  0.00  0.00    +0.000 A 
ATOM     11  C   UNL     1       0.844   9.807  20.026  0.00  0.00    +0.000 A 
ATOM     12  C   UNL     1       0.244  11.084  19.978  0.00  0.00    +0.000 A 
ATOM     13  N   UNL     1       0.343  11.657  18.774  0.00  0.00    +0.000 NA
ATOM     14  N   UNL     1       1.012  10.743  18.050  0.00  0.00    +0.000 N 
ATOM     15  C   UNL     1       1.330   9.605  18.743  0.00  0.00    +0.000 A 
ATOM     16  C   UNL     1       1.997   8.434  18.355  0.00  0.00    +0.000 A 
ATOM     17  H   UNL     1       1.228  10.957  17.083  0.00  0.00    +0.000 HD
ENDBRANCH   6   8
BRANCH   1  20
ATOM     18  O   UNL     1       7.138   4.402  16.687  0.00  0.00    +0.000 OA
ATOM     19  C   UNL     1       6.260   4.597  15.852  0.00  0.00    +0.000 C 
ATOM     20  N   UNL     1       4.915   4.819  16.097  0.00  0.00    +0.000 N 
ATOM     21  H   UNL     1       4.291   4.786  15.302  0.00  0.00    +0.000 HD
BRANCH  19  22
ATOM     22  C   UNL     1       6.640   4.505  14.419  0.00  0.00    +0.000 A 
ATOM     23  C   UNL     1       7.532   5.408  13.832  0.00  0.00    +0.000 A 
ATOM     24  C   UNL     1       7.857   5.276  12.480  0.00  0.00    +0.000 A 
ATOM     25  C   UNL     1       7.295   4.247  11.718  0.00  0.00    +0.000 A 
ATOM     26  C   UNL     1       6.407   3.329  12.298  0.00  0.00    +0.000 A 
ATOM     27  C   UNL     1       6.095   3.462  13.658  0.00  0.00    +0.000 A 
BRANCH  26  28
ATOM     28  C   UNL     1       5.784   2.216  11.492  0.00  0.00    +0.000 C 
ATOM     29  F   UNL     1       5.659   1.049  12.185  0.00  0.00    +0.000 F 
ATOM     30  F   UNL     1       4.535   2.524  11.050  0.00  0.00    +0.000 F 
ATOM     31  F   UNL     1       6.512   1.911  10.383  0.00  0.00    +0.000 F 
ENDBRANCH  26  28
ENDBRANCH  19  22
ENDBRANCH   1  20
TORSDOF 4
ENDMDL
MODEL 5
REMARK VINA RESULT:      -9.1      5.675      8.188
REMARK  Name = 
REMARK  4 active torsions:
REMARK  status: ('A' for Active; 'I' for Inactive)
REMARK    1  A    between atoms: C_2  and  C_20
REMARK    2  A    between atoms: N_3  and  C_4
REMARK    3  A    between atoms: C_9  and  C_10
REMARK    4  A    between atoms: C_24  and  C_25
REMARK                            x       y       z     vdW  Elec       q    Type
REMARK                         _______ _______ _______ _____ _____    ______ ____
ROOT
ATOM      1  C   UNL     1       2.261   5.346  20.627  0.00  0.00    +0.000 A 
ATOM      2  C   UNL     1       2.054   4.114  21.241  0.00  0.00    +0.000 A 
ATOM      3  C   UNL     1       2.756   2.991  20.813  0.00  0.00    +0.000 A 
ATOM      4  C   UNL     1       3.673   3.098  19.773  0.00  0.00    +0.000 A 
ATOM      5  F   UNL     1       4.354   1.989  19.443  0.00  0.00    +0.000 F 
ATOM      6  C   UNL     1       3.898   4.311  19.099  0.00  0.00    +0.000 A 
ATOM      7  C   UNL     1       3.151   5.427  19.540  0.00  0.00    +0.000 A 
ENDROOT
BRANCH   6   8
ATOM      8  C   UNL     1       4.883   4.426  17.987  0.00  0.00    +0.000 A 
ATOM      9  C   UNL     1       6.244   4.694  18.241  0.00  0.00    +0.000 A 
ATOM     10  C   UNL     1       7.199   4.809  17.215  0.00  0.00    +0.000 A 
ATOM     11  C   UNL     1       6.786   4.624  15.889  0.00  0.00    +0.000 A 
ATOM     12  C   UNL     1       7.393   4.637  14.614  0.00  0.00    +0.000 A 
ATOM     13  N   UNL     1       6.528   4.385  13.627  0.00  0.00    +0.000 NA
ATOM     14  N   UNL     1       5.363   4.206  14.274  0.00  0.00    +0.000 N 
ATOM     15  C   UNL     1       5.451   4.350  15.634  0.00  0.00    +0.000 A 
ATOM     16  C   UNL     1       4.484   4.259  16.645  0.00  0.00    +0.000 A 
ATOM     17  H   UNL     1       4.538   3.981  13.730  0.00  0.00    +0.000 HD
ENDBRANCH   6   8
BRANCH   1  20
ATOM     18  O   UNL     1       2.143   7.972  19.280  0.00  0.00    +0.000 OA
ATOM     19  C   UNL     1       1.618   7.739  20.364  0.00  0.00    +0.000 C 
ATOM     20  N   UNL     1       1.630   6.538  21.053  0.00  0.00    +0.000 N 
ATOM     21  H   UNL     1       1.005   6.454  21.844  0.00  0.00    +0.000 HD
BRANCH  19  22
ATOM     22  C   UNL     1       0.808   8.820  20.982  0.00  0.00    +0.000 A 
ATOM     23  C   UNL     1       0.669   8.941  22.368  0.00  0.00    +0.000 A 
ATOM     24  C   UNL     1      -0.103   9.977  22.896  0.00  0.00    +0.000 A 
ATOM     25  C   UNL     1      -0.735  10.889  22.046  0.00  0.00    +0.000 A 
ATOM     26  C   UNL     1      -0.596  10.785  20.653  0.00  0.00    +0.000 A 
ATOM     27  C   UNL     1       0.191   9.748  20.131  0.00  0.00    +0.000 A 
BRANCH  26  28
ATOM     28  C   UNL     1      -1.275  11.753  19.717  0.00  0.00    +0.000 C 
ATOM     29  F   UNL     1      -2.049  12.674  20.357  0.00  0.00    +0.000 F 
ATOM     30  F   UNL     1      -0.390  12.466  18.967  0.00  0.00    +0.000 F 
ATOM     31  F   UNL     1      -2.099  11.126  18.833  0.00  0.00    +0.000 F 
ENDBRANCH  26  28
ENDBRANCH  19  22
ENDBRANCH   1  20
TORSDOF 4
ENDMDL
MODEL 6
REMARK VINA RESULT:      -9.0      6.063      8.042
REMARK  Name = 
REMARK  4 active torsions:
REMARK  status: ('A' for Active; 'I' for Inactive)
REMARK    1  A    between atoms: C_2  and  C_20
REMARK    2  A    between atoms: N_3  and  C_4
REMARK    3  A    between atoms: C_9  and  C_10
REMARK    4  A    between atoms: C_24  and  C_25
REMARK                            x       y       z     vdW  Elec       q    Type
REMARK                         _______ _______ _______ _____ _____    ______ ____
ROOT
ATOM      1  C   UNL     1       4.112   4.731  17.318  0.00  0.00    +0.000 A 
ATOM      2  C   UNL     1       3.974   3.608  18.129  0.00  0.00    +0.000 A 
ATOM      3  C   UNL     1       3.263   3.688  19.323  0.00  0.00    +0.000 A 
ATOM      4  C   UNL     1       2.680   4.891  19.707  0.00  0.00    +0.000 A 
ATOM      5  F   UNL     1       1.965   4.888  20.843  0.00  0.00    +0.000 F 
ATOM      6  C   UNL     1       2.813   6.062  18.940  0.00  0.00    +0.000 A 
ATOM      7  C   UNL     1       3.563   5.953  17.746  0.00  0.00    +0.000 A 
ENDROOT
BRANCH   6   8
ATOM      8  C   UNL     1       2.186   7.350  19.349  0.00  0.00    +0.000 A 
ATOM      9  C   UNL     1       1.912   8.362  18.405  0.00  0.00    +0.000 A 
ATOM     10  C   UNL     1       1.320   9.588  18.758  0.00  0.00    +0.000 A 
ATOM     11  C   UNL     1       0.967   9.803  20.097  0.00  0.00    +0.000 A 
ATOM     12  C   UNL     1       0.366  10.838  20.845  0.00  0.00    +0.000 A 
ATOM     13  N   UNL     1       0.240  10.533  22.141  0.00  0.00    +0.000 NA
ATOM     14  N   UNL     1       0.759   9.296  22.220  0.00  0.00    +0.000 N 
ATOM     15  C   UNL     1       1.225   8.808  21.028  0.00  0.00    +0.000 A 
ATOM     16  C   UNL     1       1.837   7.592  20.694  0.00  0.00    +0.000 A 
ATOM     17  H   UNL     1       0.763   8.831  23.120  0.00  0.00    +0.000 HD
ENDBRANCH   6   8
BRANCH   1  20
ATOM     18  O   UNL     1       6.984   4.383  16.727  0.00  0.00    +0.000 OA
ATOM     19  C   UNL     1       6.125   4.537  15.864  0.00  0.00    +0.000 C 
ATOM     20  N   UNL     1       4.765   4.703  16.065  0.00  0.00    +0.000 N 
ATOM     21  H   UNL     1       4.168   4.640  15.251  0.00  0.00    +0.000 HD
BRANCH  19  22
ATOM     22  C   UNL     1       6.554   4.454  14.444  0.00  0.00    +0.000 A 
ATOM     23  C   UNL     1       7.473   5.353  13.896  0.00  0.00    +0.000 A 
ATOM     24  C   UNL     1       7.844   5.229  12.555  0.00  0.00    +0.000 A 
ATOM     25  C   UNL     1       7.299   4.213  11.765  0.00  0.00    +0.000 A 
ATOM     26  C   UNL     1       6.383   3.297  12.306  0.00  0.00    +0.000 A 
ATOM     27  C   UNL     1       6.026   3.422  13.656  0.00  0.00    +0.000 A 
BRANCH  26  28
ATOM     28  C   UNL     1       5.778   2.197  11.470  0.00  0.00    +0.000 C 
ATOM     29  F   UNL     1       5.669   1.011  12.131  0.00  0.00    +0.000 F 
ATOM     30  F   UNL     1       4.525   2.499  11.033  0.00  0.00    +0.000 F 
ATOM     31  F   UNL     1       6.513   1.933  10.354  0.00  0.00    +0.000 F 
ENDBRANCH  26  28
ENDBRANCH  19  22
ENDBRANCH   1  20
TORSDOF 4
ENDMDL
MODEL 7
REMARK VINA RESULT:      -8.9      5.678      8.125
REMARK  Name = 
REMARK  4 active torsions:
REMARK  status: ('A' for Active; 'I' for Inactive)
REMARK    1  A    between atoms: C_2  and  C_20
REMARK    2  A    between atoms: N_3  and  C_4
REMARK    3  A    between atoms: C_9  and  C_10
REMARK    4  A    between atoms: C_24  and  C_25
REMARK                            x       y       z     vdW  Elec       q    Type
REMARK                         _______ _______ _______ _____ _____    ______ ____
ROOT
ATOM      1  C   UNL     1       2.175   5.348  20.682  0.00  0.00    +0.000 A 
ATOM      2  C   UNL     1       2.121   4.169  21.420  0.00  0.00    +0.000 A 
ATOM      3  C   UNL     1       2.807   3.038  20.986  0.00  0.00    +0.000 A 
ATOM      4  C   UNL     1       3.557   3.085  19.815  0.00  0.00    +0.000 A 
ATOM      5  F   UNL     1       4.236   1.977  19.480  0.00  0.00    +0.000 F 
ATOM      6  C   UNL     1       3.622   4.241  19.017  0.00  0.00    +0.000 A 
ATOM      7  C   UNL     1       2.892   5.365  19.472  0.00  0.00    +0.000 A 
ENDROOT
BRANCH   6   8
ATOM      8  C   UNL     1       4.428   4.294  17.766  0.00  0.00    +0.000 A 
ATOM      9  C   UNL     1       4.059   3.548  16.627  0.00  0.00    +0.000 A 
ATOM     10  C   UNL     1       4.797   3.576  15.430  0.00  0.00    +0.000 A 
ATOM     11  C   UNL     1       5.931   4.397  15.359  0.00  0.00    +0.000 A 
ATOM     12  C   UNL     1       6.905   4.718  14.389  0.00  0.00    +0.000 A 
ATOM     13  N   UNL     1       7.808   5.597  14.835  0.00  0.00    +0.000 NA
ATOM     14  N   UNL     1       7.407   5.841  16.095  0.00  0.00    +0.000 N 
ATOM     15  C   UNL     1       6.293   5.140  16.472  0.00  0.00    +0.000 A 
ATOM     16  C   UNL     1       5.581   5.102  17.679  0.00  0.00    +0.000 A 
ATOM     17  H   UNL     1       7.936   6.505  16.649  0.00  0.00    +0.000 HD
ENDBRANCH   6   8
BRANCH   1  20
ATOM     18  O   UNL     1       2.122   7.976  19.335  0.00  0.00    +0.000 OA
ATOM     19  C   UNL     1       1.573   7.750  20.410  0.00  0.00    +0.000 C 
ATOM     20  N   UNL     1       1.555   6.549  21.097  0.00  0.00    +0.000 N 
ATOM     21  H   UNL     1       0.915   6.474  21.877  0.00  0.00    +0.000 HD
BRANCH  19  22
ATOM     22  C   UNL     1       0.769   8.843  21.014  0.00  0.00    +0.000 A 
ATOM     23  C   UNL     1       0.574   8.942  22.395  0.00  0.00    +0.000 A 
ATOM     24  C   UNL     1      -0.190   9.991  22.911  0.00  0.00    +0.000 A 
ATOM     25  C   UNL     1      -0.758  10.937  22.052  0.00  0.00    +0.000 A 
ATOM     26  C   UNL     1      -0.562  10.855  20.665  0.00  0.00    +0.000 A 
ATOM     27  C   UNL     1       0.217   9.805  20.157  0.00  0.00    +0.000 A 
BRANCH  26  28
ATOM     28  C   UNL     1      -1.171  11.861  19.720  0.00  0.00    +0.000 C 
ATOM     29  F   UNL     1      -0.434  13.000  19.593  0.00  0.00    +0.000 F 
ATOM     30  F   UNL     1      -1.323  11.372  18.459  0.00  0.00    +0.000 F 
ATOM     31  F   UNL     1      -2.408  12.262  20.121  0.00  0.00    +0.000 F 
ENDBRANCH  26  28
ENDBRANCH  19  22
ENDBRANCH   1  20
TORSDOF 4
ENDMDL
MODEL 8
REMARK VINA RESULT:      -8.8      7.624     10.238
REMARK  Name = 
REMARK  4 active torsions:
REMARK  status: ('A' for Active; 'I' for Inactive)
REMARK    1  A    between atoms: C_2  and  C_20
REMARK    2  A    between atoms: N_3  and  C_4
REMARK    3  A    between atoms: C_9  and  C_10
REMARK    4  A    between atoms: C_24  and  C_25
REMARK                            x       y       z     vdW  Elec       q    Type
REMARK                         _______ _______ _______ _____ _____    ______ ____
ROOT
ATOM      1  C   UNL     1       0.956  10.248  18.477  0.00  0.00    +0.000 A 
ATOM      2  C   UNL     1       1.662  11.428  18.695  0.00  0.00    +0.000 A 
ATOM      3  C   UNL     1       0.993  12.648  18.730  0.00  0.00    +0.000 A 
ATOM      4  C   UNL     1      -0.386  12.692  18.554  0.00  0.00    +0.000 A 
ATOM      5  F   UNL     1      -0.976  13.894  18.650  0.00  0.00    +0.000 F 
ATOM      6  C   UNL     1      -1.143  11.534  18.301  0.00  0.00    +0.000 A 
ATOM      7  C   UNL     1      -0.430  10.313  18.246  0.00  0.00    +0.000 A 
ENDROOT
BRANCH   6   8
ATOM      8  C   UNL     1      -2.620  11.580  18.115  0.00  0.00    +0.000 A 
ATOM      9  C   UNL     1      -3.212  11.248  16.879  0.00  0.00    +0.000 A 
ATOM     10  C   UNL     1      -4.603  11.280  16.672  0.00  0.00    +0.000 A 
ATOM     11  C   UNL     1      -5.434  11.632  17.743  0.00  0.00    +0.000 A 
ATOM     12  C   UNL     1      -6.822  11.770  17.962  0.00  0.00    +0.000 A 
ATOM     13  N   UNL     1      -7.114  12.135  19.215  0.00  0.00    +0.000 NA
ATOM     14  N   UNL     1      -5.907  12.227  19.800  0.00  0.00    +0.000 N 
ATOM     15  C   UNL     1      -4.858  11.950  18.964  0.00  0.00    +0.000 A 
ATOM     16  C   UNL     1      -3.473  11.946  19.178  0.00  0.00    +0.000 A 
ATOM     17  H   UNL     1      -5.864  12.480  20.781  0.00  0.00    +0.000 HD
ENDBRANCH   6   8
BRANCH   1  20
ATOM     18  O   UNL     1       1.505   8.479  20.777  0.00  0.00    +0.000 OA
ATOM     19  C   UNL     1       1.790   8.196  19.617  0.00  0.00    +0.000 C 
ATOM     20  N   UNL     1       1.562   8.971  18.493  0.00  0.00    +0.000 N 
ATOM     21  H   UNL     1       1.691   8.526  17.593  0.00  0.00    +0.000 HD
BRANCH  19  22
ATOM     22  C   UNL     1       2.362   6.850  19.358  0.00  0.00    +0.000 A 
ATOM     23  C   UNL     1       3.231   6.608  18.290  0.00  0.00    +0.000 A 
ATOM     24  C   UNL     1       3.742   5.323  18.093  0.00  0.00    +0.000 A 
ATOM     25  C   UNL     1       3.387   4.284  18.959  0.00  0.00    +0.000 A 
ATOM     26  C   UNL     1       2.525   4.516  20.041  0.00  0.00    +0.000 A 
ATOM     27  C   UNL     1       2.026   5.811  20.238  0.00  0.00    +0.000 A 
BRANCH  26  28
ATOM     28  C   UNL     1       2.124   3.408  20.983  0.00  0.00    +0.000 C 
ATOM     29  F   UNL     1       0.802   3.087  20.912  0.00  0.00    +0.000 F 
ATOM     30  F   UNL     1       2.802   2.250  20.750  0.00  0.00    +0.000 F 
ATOM     31  F   UNL     1       2.359   3.727  22.285  0.00  0.00    +0.000 F 
ENDBRANCH  26  28
ENDBRANCH  19  22
ENDBRANCH   1  20
TORSDOF 4
ENDMDL
MODEL 9
REMARK VINA RESULT:      -8.8      7.330     10.279
REMARK  Name = 
REMARK  4 active torsions:
REMARK  status: ('A' for Active; 'I' for Inactive)
REMARK    1  A    between atoms: C_2  and  C_20
REMARK    2  A    between atoms: N_3  and  C_4
REMARK    3  A    between atoms: C_9  and  C_10
REMARK    4  A    between atoms: C_24  and  C_25
REMARK                            x       y       z     vdW  Elec       q    Type
REMARK                         _______ _______ _______ _____ _____    ______ ____
ROOT
ATOM      1  C   UNL     1       1.375  10.105  18.237  0.00  0.00    +0.000 A 
ATOM      2  C   UNL     1       2.222  11.208  18.305  0.00  0.00    +0.000 A 
ATOM      3  C   UNL     1       1.700  12.480  18.522  0.00  0.00    +0.000 A 
ATOM      4  C   UNL     1       0.329  12.653  18.680  0.00  0.00    +0.000 A 
ATOM      5  F   UNL     1      -0.104  13.897  18.937  0.00  0.00    +0.000 F 
ATOM      6  C   UNL     1      -0.573  11.578  18.590  0.00  0.00    +0.000 A 
ATOM      7  C   UNL     1      -0.014  10.303  18.343  0.00  0.00    +0.000 A 
ENDROOT
BRANCH   6   8
ATOM      8  C   UNL     1      -2.042  11.762  18.761  0.00  0.00    +0.000 A 
ATOM      9  C   UNL     1      -2.575  12.335  19.935  0.00  0.00    +0.000 A 
ATOM     10  C   UNL     1      -3.955  12.523  20.128  0.00  0.00    +0.000 A 
ATOM     11  C   UNL     1      -4.834  12.150  19.103  0.00  0.00    +0.000 A 
ATOM     12  C   UNL     1      -6.229  12.177  18.887  0.00  0.00    +0.000 A 
ATOM     13  N   UNL     1      -6.577  11.692  17.691  0.00  0.00    +0.000 NA
ATOM     14  N   UNL     1      -5.397  11.357  17.138  0.00  0.00    +0.000 N 
ATOM     15  C   UNL     1      -4.315  11.595  17.942  0.00  0.00    +0.000 A 
ATOM     16  C   UNL     1      -2.944  11.379  17.747  0.00  0.00    +0.000 A 
ATOM     17  H   UNL     1      -5.396  10.971  16.200  0.00  0.00    +0.000 HD
ENDBRANCH   6   8
BRANCH   1  20
ATOM     18  O   UNL     1       1.894   8.064  20.307  0.00  0.00    +0.000 OA
ATOM     19  C   UNL     1       2.065   7.875  19.106  0.00  0.00    +0.000 C 
ATOM     20  N   UNL     1       1.842   8.780  18.082  0.00  0.00    +0.000 N 
ATOM     21  H   UNL     1       1.860   8.420  17.137  0.00  0.00    +0.000 HD
BRANCH  19  22
ATOM     22  C   UNL     1       2.473   6.514  18.676  0.00  0.00    +0.000 A 
ATOM     23  C   UNL     1       3.512   6.305  17.764  0.00  0.00    +0.000 A 
ATOM     24  C   UNL     1       3.856   5.004  17.395  0.00  0.00    +0.000 A 
ATOM     25  C   UNL     1       3.166   3.914  17.933  0.00  0.00    +0.000 A 
ATOM     26  C   UNL     1       2.127   4.108  18.856  0.00  0.00    +0.000 A 
ATOM     27  C   UNL     1       1.796   5.418  19.231  0.00  0.00    +0.000 A 
BRANCH  26  28
ATOM     28  C   UNL     1       1.365   2.946  19.444  0.00  0.00    +0.000 C 
ATOM     29  F   UNL     1       0.365   2.490  18.638  0.00  0.00    +0.000 F 
ATOM     30  F   UNL     1       2.160   1.871  19.697  0.00  0.00    +0.000 F 
ATOM     31  F   UNL     1       0.772   3.263  20.628  0.00  0.00    +0.000 F 
ENDBRANCH  26  28
ENDBRANCH  19  22
ENDBRANCH   1  20
TORSDOF 4
ENDMDL
