MODEL 1
REMARK VINA RESULT:      -9.3      0.000      0.000
REMARK  Name = 
REMARK  10 active torsions:
REMARK  status: ('A' for Active; 'I' for Inactive)
REMARK    1  A    between atoms: C_1  and  C_2
REMARK    2  A    between atoms: C_2  and  C_12
REMARK    3  A    between atoms: C_3  and  C_4
REMARK    4  A    between atoms: C_4  and  N_5
REMARK    5  A    between atoms: C_17  and  O_18
REMARK    6  A    between atoms: O_18  and  C_19
REMARK    7  A    between atoms: C_19  and  C_20
REMARK    8  A    between atoms: C_22  and  C_23
REMARK    9  A    between atoms: C_26  and  C_27
REMARK   10  A    between atoms: C_34  and  C_35
REMARK                            x       y       z     vdW  Elec       q    Type
REMARK                         _______ _______ _______ _____ _____    ______ ____
ROOT
ATOM      1  C   UNL     1       3.751   4.554  17.629  0.00  0.00    +0.000 A 
ATOM      2  C   UNL     1       3.422   3.300  17.060  0.00  0.00    +0.000 A 
ATOM      3  C   UNL     1       2.296   2.580  17.454  0.00  0.00    +0.000 A 
ATOM      4  C   UNL     1       1.460   3.107  18.417  0.00  0.00    +0.000 A 
ATOM      5  C   UNL     1       1.763   4.336  18.997  0.00  0.00    +0.000 A 
ATOM      6  C   UNL     1       2.915   5.076  18.646  0.00  0.00    +0.000 A 
ENDROOT
BRANCH   1   8
ATOM      7  C   UNL     1       4.939   6.657  16.834  0.00  0.00    +0.000 C 
ATOM      8  C   UNL     1       4.977   5.169  17.059  0.00  0.00    +0.000 C 
ATOM      9  C   UNL     1       5.966   4.382  16.579  0.00  0.00    +0.000 C 
BRANCH   9  10
ATOM     10  C   UNL     1       7.142   4.859  15.773  0.00  0.00    +0.000 C 
BRANCH  10  11
ATOM     11  N   UNL     1       6.764   4.793  14.381  0.00  0.00    +0.000 N 
ATOM     12  O   UNL     1       6.013   3.651  13.982  0.00  0.00    +0.000 OA
ATOM     13  C   UNL     1       6.228   3.505  12.634  0.00  0.00    +0.000 A 
ATOM     14  O   UNL     1       5.738   2.632  11.939  0.00  0.00    +0.000 OA
ATOM     15  N   UNL     1       7.094   4.451  12.224  0.00  0.00    +0.000 N 
ATOM     16  C   UNL     1       7.565   5.117  13.305  0.00  0.00    +0.000 A 
ATOM     17  O   UNL     1       8.558   5.826  13.311  0.00  0.00    +0.000 OA
ATOM     18  H   UNL     1       7.518   4.469  11.315  0.00  0.00    +0.000 HD
ENDBRANCH  10  11
ENDBRANCH   9  10
ENDBRANCH   1   8
BRANCH   6  19
ATOM     19  O   UNL     1       3.212   6.292  19.252  0.00  0.00    +0.000 OA
BRANCH  19  20
ATOM     20  C   UNL     1       2.213   6.730  20.209  0.00  0.00    +0.000 C 
BRANCH  20  21
ATOM     21  C   UNL     1       1.715   8.131  20.092  0.00  0.00    +0.000 A 
ATOM     22  N   UNL     1       1.190   8.761  21.215  0.00  0.00    +0.000 NA
ATOM     23  C   UNL     1       0.769   9.931  20.779  0.00  0.00    +0.000 A 
ATOM     24  O   UNL     1       1.014  10.134  19.441  0.00  0.00    +0.000 OA
ATOM     25  C   UNL     1       1.617   8.981  19.016  0.00  0.00    +0.000 A 
ATOM     26  C   UNL     1       1.981   8.870  17.597  0.00  0.00    +0.000 C 
BRANCH  23  27
ATOM     27  C   UNL     1       0.091  11.006  21.508  0.00  0.00    +0.000 A 
ATOM     28  C   UNL     1       0.382  12.349  21.221  0.00  0.00    +0.000 A 
ATOM     29  C   UNL     1      -0.256  13.393  21.909  0.00  0.00    +0.000 A 
ATOM     30  C   UNL     1      -1.203  13.116  22.906  0.00  0.00    +0.000 A 
ATOM     31  C   UNL     1      -1.478  11.778  23.210  0.00  0.00    +0.000 A 
ATOM     32  C   UNL     1      -0.842  10.737  22.518  0.00  0.00    +0.000 A 
BRANCH  30  33
ATOM     33  C   UNL     1      -1.925  14.217  23.645  0.00  0.00    +0.000 C 
ATOM     34  F   UNL     1      -3.217  13.914  23.954  0.00  0.00    +0.000 F 
ATOM     35  F   UNL     1      -1.324  14.528  24.828  0.00  0.00    +0.000 F 
ATOM     36  F   UNL     1      -1.974  15.379  22.936  0.00  0.00    +0.000 F 
ENDBRANCH  30  33
ENDBRANCH  23  27
ENDBRANCH  20  21
ENDBRANCH  19  20
ENDBRANCH   6  19
TORSDOF 8
ENDMDL
MODEL 2
REMARK VINA RESULT:      -9.3      2.366      3.098
REMARK  Name = 
REMARK  10 active torsions:
REMARK  status: ('A' for Active; 'I' for Inactive)
REMARK    1  A    between atoms: C_1  and  C_2
REMARK    2  A    between atoms: C_2  and  C_12
REMARK    3  A    between atoms: C_3  and  C_4
REMARK    4  A    between atoms: C_4  and  N_5
REMARK    5  A    between atoms: C_17  and  O_18
REMARK    6  A    between atoms: O_18  and  C_19
REMARK    7  A    between atoms: C_19  and  C_20
REMARK    8  A    between atoms: C_22  and  C_23
REMARK    9  A    between atoms: C_26  and  C_27
REMARK   10  A    between atoms: C_34  and  C_35
REMARK                            x       y       z     vdW  Elec       q    Type
REMARK                         _______ _______ _______ _____ _____    ______ ____
ROOT
ATOM      1  C   UNL     1       2.885   4.398  18.479  0.00  0.00    +0.000 A 
ATOM      2  C   UNL     1       2.529   3.116  17.998  0.00  0.00    +0.000 A 
ATOM      3  C   UNL     1       1.433   2.415  18.498  0.00  0.00    +0.000 A 
ATOM      4  C   UNL     1       0.656   2.989  19.483  0.00  0.00    +0.000 A 
ATOM      5  C   UNL     1       0.988   4.247  19.979  0.00  0.00    +0.000 A 
ATOM      6  C   UNL     1       2.112   4.970  19.518  0.00  0.00    +0.000 A 
ENDROOT
BRANCH   1   8
ATOM      7  C   UNL     1       3.904   6.372  17.242  0.00  0.00    +0.000 C 
ATOM      8  C   UNL     1       4.070   4.985  17.803  0.00  0.00    +0.000 C 
ATOM      9  C   UNL     1       5.145   4.211  17.532  0.00  0.00    +0.000 C 
BRANCH   9  10
ATOM     10  C   UNL     1       6.302   4.606  16.657  0.00  0.00    +0.000 C 
BRANCH  10  11
ATOM     11  N   UNL     1       7.318   5.168  17.514  0.00  0.00    +0.000 N 
ATOM     12  O   UNL     1       7.460   4.575  18.801  0.00  0.00    +0.000 OA
ATOM     13  C   UNL     1       8.029   5.532  19.602  0.00  0.00    +0.000 A 
ATOM     14  O   UNL     1       8.309   5.382  20.779  0.00  0.00    +0.000 OA
ATOM     15  N   UNL     1       8.184   6.664  18.889  0.00  0.00    +0.000 N 
ATOM     16  C   UNL     1       7.588   6.511  17.683  0.00  0.00    +0.000 A 
ATOM     17  O   UNL     1       7.301   7.423  16.924  0.00  0.00    +0.000 OA
ATOM     18  H   UNL     1       8.446   7.547  19.286  0.00  0.00    +0.000 HD
ENDBRANCH  10  11
ENDBRANCH   9  10
ENDBRANCH   1   8
BRANCH   6  19
ATOM     19  O   UNL     1       2.439   6.217  20.041  0.00  0.00    +0.000 OA
BRANCH  19  20
ATOM     20  C   UNL     1       1.397   6.800  20.867  0.00  0.00    +0.000 C 
BRANCH  20  21
ATOM     21  C   UNL     1       1.003   8.209  20.584  0.00  0.00    +0.000 A 
ATOM     22  N   UNL     1       0.197   8.884  21.495  0.00  0.00    +0.000 NA
ATOM     23  C   UNL     1      -0.040  10.053  20.933  0.00  0.00    +0.000 A 
ATOM     24  O   UNL     1       0.588  10.211  19.720  0.00  0.00    +0.000 OA
ATOM     25  C   UNL     1       1.248   9.030  19.510  0.00  0.00    +0.000 A 
ATOM     26  C   UNL     1       2.001   8.870  18.259  0.00  0.00    +0.000 C 
BRANCH  23  27
ATOM     27  C   UNL     1      -0.862  11.166  21.414  0.00  0.00    +0.000 A 
ATOM     28  C   UNL     1      -1.583  11.958  20.506  0.00  0.00    +0.000 A 
ATOM     29  C   UNL     1      -2.376  13.028  20.946  0.00  0.00    +0.000 A 
ATOM     30  C   UNL     1      -2.465  13.335  22.312  0.00  0.00    +0.000 A 
ATOM     31  C   UNL     1      -1.728  12.563  23.218  0.00  0.00    +0.000 A 
ATOM     32  C   UNL     1      -0.940  11.490  22.774  0.00  0.00    +0.000 A 
BRANCH  30  33
ATOM     33  C   UNL     1      -3.329  14.464  22.820  0.00  0.00    +0.000 C 
ATOM     34  F   UNL     1      -3.307  15.571  22.028  0.00  0.00    +0.000 F 
ATOM     35  F   UNL     1      -4.641  14.107  22.921  0.00  0.00    +0.000 F 
ATOM     36  F   UNL     1      -2.963  14.887  24.062  0.00  0.00    +0.000 F 
ENDBRANCH  30  33
ENDBRANCH  23  27
ENDBRANCH  20  21
ENDBRANCH  19  20
ENDBRANCH   6  19
TORSDOF 8
ENDMDL
MODEL 3
REMARK VINA RESULT:      -9.2      2.412      3.161
REMARK  Name = 
REMARK  10 active torsions:
REMARK  status: ('A' for Active; 'I' for Inactive)
REMARK    1  A    between atoms: C_1  and  C_2
REMARK    2  A    between atoms: C_2  and  C_12
REMARK    3  A    between atoms: C_3  and  C_4
REMARK    4  A    between atoms: C_4  and  N_5
REMARK    5  A    between atoms: C_17  and  O_18
REMARK    6  A    between atoms: O_18  and  C_19
REMARK    7  A    between atoms: C_19  and  C_20
REMARK    8  A    between atoms: C_22  and  C_23
REMARK    9  A    between atoms: C_26  and  C_27
REMARK   10  A    between atoms: C_34  and  C_35
REMARK                            x       y       z     vdW  Elec       q    Type
REMARK                         _______ _______ _______ _____ _____    ______ ____
ROOT
ATOM      1  C   UNL     1       2.776   4.233  18.495  0.00  0.00    +0.000 A 
ATOM      2  C   UNL     1       2.606   2.830  18.556  0.00  0.00    +0.000 A 
ATOM      3  C   UNL     1       1.745   2.227  19.472  0.00  0.00    +0.000 A 
ATOM      4  C   UNL     1       1.019   3.017  20.339  0.00  0.00    +0.000 A 
ATOM      5  C   UNL     1       1.172   4.401  20.304  0.00  0.00    +0.000 A 
ATOM      6  C   UNL     1       2.062   5.042  19.412  0.00  0.00    +0.000 A 
ENDROOT
BRANCH   1   8
ATOM      7  C   UNL     1       4.135   3.641  16.429  0.00  0.00    +0.000 C 
ATOM      8  C   UNL     1       3.721   4.678  17.439  0.00  0.00    +0.000 C 
ATOM      9  C   UNL     1       4.322   5.885  17.536  0.00  0.00    +0.000 C 
BRANCH   9  10
ATOM     10  C   UNL     1       5.460   6.360  16.676  0.00  0.00    +0.000 C 
BRANCH  10  11
ATOM     11  N   UNL     1       6.674   6.190  17.438  0.00  0.00    +0.000 N 
ATOM     12  O   UNL     1       6.592   5.343  18.581  0.00  0.00    +0.000 OA
ATOM     13  C   UNL     1       7.606   5.734  19.419  0.00  0.00    +0.000 A 
ATOM     14  O   UNL     1       7.853   5.227  20.500  0.00  0.00    +0.000 OA
ATOM     15  N   UNL     1       8.246   6.784  18.872  0.00  0.00    +0.000 N 
ATOM     16  C   UNL     1       7.575   7.183  17.766  0.00  0.00    +0.000 A 
ATOM     17  O   UNL     1       7.720   8.260  17.210  0.00  0.00    +0.000 OA
ATOM     18  H   UNL     1       8.931   7.338  19.353  0.00  0.00    +0.000 HD
ENDBRANCH  10  11
ENDBRANCH   9  10
ENDBRANCH   1   8
BRANCH   6  19
ATOM     19  O   UNL     1       2.217   6.424  19.407  0.00  0.00    +0.000 OA
BRANCH  19  20
ATOM     20  C   UNL     1       1.692   7.079  20.592  0.00  0.00    +0.000 C 
BRANCH  20  21
ATOM     21  C   UNL     1       1.285   8.508  20.465  0.00  0.00    +0.000 A 
ATOM     22  N   UNL     1       0.707   9.147  21.557  0.00  0.00    +0.000 NA
ATOM     23  C   UNL     1       0.389  10.348  21.114  0.00  0.00    +0.000 A 
ATOM     24  O   UNL     1       0.752  10.559  19.805  0.00  0.00    +0.000 OA
ATOM     25  C   UNL     1       1.321   9.379  19.404  0.00  0.00    +0.000 A 
ATOM     26  C   UNL     1       1.791   9.272  18.016  0.00  0.00    +0.000 C 
BRANCH  23  27
ATOM     27  C   UNL     1      -0.284  11.447  21.809  0.00  0.00    +0.000 A 
ATOM     28  C   UNL     1      -1.288  11.178  22.754  0.00  0.00    +0.000 A 
ATOM     29  C   UNL     1      -1.946  12.217  23.430  0.00  0.00    +0.000 A 
ATOM     30  C   UNL     1      -1.614  13.557  23.175  0.00  0.00    +0.000 A 
ATOM     31  C   UNL     1      -0.630  13.828  22.217  0.00  0.00    +0.000 A 
ATOM     32  C   UNL     1       0.028  12.787  21.546  0.00  0.00    +0.000 A 
BRANCH  30  33
ATOM     33  C   UNL     1      -2.284  14.695  23.905  0.00  0.00    +0.000 C 
ATOM     34  F   UNL     1      -2.352  14.517  25.254  0.00  0.00    +0.000 F 
ATOM     35  F   UNL     1      -1.638  15.881  23.720  0.00  0.00    +0.000 F 
ATOM     36  F   UNL     1      -3.565  14.901  23.491  0.00  0.00    +0.000 F 
ENDBRANCH  30  33
ENDBRANCH  23  27
ENDBRANCH  20  21
ENDBRANCH  19  20
ENDBRANCH   6  19
TORSDOF 8
ENDMDL
MODEL 4
REMARK VINA RESULT:      -9.1      3.531      4.628
REMARK  Name = 
REMARK  10 active torsions:
REMARK  status: ('A' for Active; 'I' for Inactive)
REMARK    1  A    between atoms: C_1  and  C_2
REMARK    2  A    between atoms: C_2  and  C_12
REMARK    3  A    between atoms: C_3  and  C_4
REMARK    4  A    between atoms: C_4  and  N_5
REMARK    5  A    between atoms: C_17  and  O_18
REMARK    6  A    between atoms: O_18  and  C_19
REMARK    7  A    between atoms: C_19  and  C_20
REMARK    8  A    between atoms: C_22  and  C_23
REMARK    9  A    between atoms: C_26  and  C_27
REMARK   10  A    between atoms: C_34  and  C_35
REMARK                            x       y       z     vdW  Elec       q    Type
REMARK                         _______ _______ _______ _____ _____    ______ ____
ROOT
ATOM      1  C   UNL     1       2.943   4.615  18.391  0.00  0.00    +0.000 A 
ATOM      2  C   UNL     1       2.505   3.285  18.598  0.00  0.00    +0.000 A 
ATOM      3  C   UNL     1       1.513   2.966  19.524  0.00  0.00    +0.000 A 
ATOM      4  C   UNL     1       0.922   3.976  20.256  0.00  0.00    +0.000 A 
ATOM      5  C   UNL     1       1.339   5.293  20.076  0.00  0.00    +0.000 A 
ATOM      6  C   UNL     1       2.365   5.646  19.171  0.00  0.00    +0.000 A 
ENDROOT
BRANCH   1   8
ATOM      7  C   UNL     1       4.360   3.489  16.606  0.00  0.00    +0.000 C 
ATOM      8  C   UNL     1       3.991   4.746  17.347  0.00  0.00    +0.000 C 
ATOM      9  C   UNL     1       4.703   5.891  17.246  0.00  0.00    +0.000 C 
BRANCH   9  10
ATOM     10  C   UNL     1       5.934   6.076  16.404  0.00  0.00    +0.000 C 
BRANCH  10  11
ATOM     11  N   UNL     1       7.066   6.109  17.300  0.00  0.00    +0.000 N 
ATOM     12  O   UNL     1       7.002   5.249  18.433  0.00  0.00    +0.000 OA
ATOM     13  C   UNL     1       7.834   5.799  19.376  0.00  0.00    +0.000 A 
ATOM     14  O   UNL     1       8.041   5.331  20.483  0.00  0.00    +0.000 OA
ATOM     15  N   UNL     1       8.342   6.949  18.895  0.00  0.00    +0.000 N 
ATOM     16  C   UNL     1       7.741   7.238  17.716  0.00  0.00    +0.000 A 
ATOM     17  O   UNL     1       7.762   8.329  17.171  0.00  0.00    +0.000 OA
ATOM     18  H   UNL     1       8.864   7.607  19.444  0.00  0.00    +0.000 HD
ENDBRANCH  10  11
ENDBRANCH   9  10
ENDBRANCH   1   8
BRANCH   6  19
ATOM     19  O   UNL     1       2.781   6.965  19.021  0.00  0.00    +0.000 OA
BRANCH  19  20
ATOM     20  C   UNL     1       1.836   7.802  18.305  0.00  0.00    +0.000 C 
BRANCH  20  21
ATOM     21  C   UNL     1       1.501   9.127  18.902  0.00  0.00    +0.000 A 
ATOM     22  N   UNL     1       1.834  10.286  18.210  0.00  0.00    +0.000 NA
ATOM     23  C   UNL     1       1.492  11.270  19.018  0.00  0.00    +0.000 A 
ATOM     24  O   UNL     1       0.918  10.838  20.190  0.00  0.00    +0.000 OA
ATOM     25  C   UNL     1       0.930   9.472  20.103  0.00  0.00    +0.000 A 
ATOM     26  C   UNL     1       0.405   8.700  21.238  0.00  0.00    +0.000 C 
BRANCH  23  27
ATOM     27  C   UNL     1       1.643  12.716  18.837  0.00  0.00    +0.000 A 
ATOM     28  C   UNL     1       0.658  13.596  19.311  0.00  0.00    +0.000 A 
ATOM     29  C   UNL     1       0.784  14.984  19.147  0.00  0.00    +0.000 A 
ATOM     30  C   UNL     1       1.904  15.527  18.500  0.00  0.00    +0.000 A 
ATOM     31  C   UNL     1       2.877  14.650  18.005  0.00  0.00    +0.000 A 
ATOM     32  C   UNL     1       2.750  13.264  18.175  0.00  0.00    +0.000 A 
BRANCH  30  33
ATOM     33  C   UNL     1       2.082  17.016  18.332  0.00  0.00    +0.000 C 
ATOM     34  F   UNL     1       2.963  17.567  19.212  0.00  0.00    +0.000 F 
ATOM     35  F   UNL     1       2.540  17.347  17.091  0.00  0.00    +0.000 F 
ATOM     36  F   UNL     1       0.916  17.705  18.492  0.00  0.00    +0.000 F 
ENDBRANCH  30  33
ENDBRANCH  23  27
ENDBRANCH  20  21
ENDBRANCH  19  20
ENDBRANCH   6  19
TORSDOF 8
ENDMDL
MODEL 5
REMARK VINA RESULT:      -9.1      3.349      4.391
REMARK  Name = 
REMARK  10 active torsions:
REMARK  status: ('A' for Active; 'I' for Inactive)
REMARK    1  A    between atoms: C_1  and  C_2
REMARK    2  A    between atoms: C_2  and  C_12
REMARK    3  A    between atoms: C_3  and  C_4
REMARK    4  A    between atoms: C_4  and  N_5
REMARK    5  A    between atoms: C_17  and  O_18
REMARK    6  A    between atoms: O_18  and  C_19
REMARK    7  A    between atoms: C_19  and  C_20
REMARK    8  A    between atoms: C_22  and  C_23
REMARK    9  A    between atoms: C_26  and  C_27
REMARK   10  A    between atoms: C_34  and  C_35
REMARK                            x       y       z     vdW  Elec       q    Type
REMARK                         _______ _______ _______ _____ _____    ______ ____
ROOT
ATOM      1  C   UNL     1       2.893   4.711  18.581  0.00  0.00    +0.000 A 
ATOM      2  C   UNL     1       2.433   3.386  18.767  0.00  0.00    +0.000 A 
ATOM      3  C   UNL     1       1.479   3.061  19.731  0.00  0.00    +0.000 A 
ATOM      4  C   UNL     1       0.949   4.061  20.522  0.00  0.00    +0.000 A 
ATOM      5  C   UNL     1       1.390   5.372  20.363  0.00  0.00    +0.000 A 
ATOM      6  C   UNL     1       2.380   5.730  19.420  0.00  0.00    +0.000 A 
ENDROOT
BRANCH   1   8
ATOM      7  C   UNL     1       4.183   3.615  16.684  0.00  0.00    +0.000 C 
ATOM      8  C   UNL     1       3.893   4.851  17.492  0.00  0.00    +0.000 C 
ATOM      9  C   UNL     1       4.637   5.976  17.400  0.00  0.00    +0.000 C 
BRANCH   9  10
ATOM     10  C   UNL     1       5.832   6.157  16.505  0.00  0.00    +0.000 C 
BRANCH  10  11
ATOM     11  N   UNL     1       7.003   6.164  17.348  0.00  0.00    +0.000 N 
ATOM     12  O   UNL     1       7.000   5.257  18.446  0.00  0.00    +0.000 OA
ATOM     13  C   UNL     1       7.869   5.776  19.372  0.00  0.00    +0.000 A 
ATOM     14  O   UNL     1       8.131   5.265  20.448  0.00  0.00    +0.000 OA
ATOM     15  N   UNL     1       8.344   6.951  18.917  0.00  0.00    +0.000 N 
ATOM     16  C   UNL     1       7.686   7.283  17.781  0.00  0.00    +0.000 A 
ATOM     17  O   UNL     1       7.672   8.396  17.282  0.00  0.00    +0.000 OA
ATOM     18  H   UNL     1       8.884   7.591  19.469  0.00  0.00    +0.000 HD
ENDBRANCH  10  11
ENDBRANCH   9  10
ENDBRANCH   1   8
BRANCH   6  19
ATOM     19  O   UNL     1       2.822   7.042  19.291  0.00  0.00    +0.000 OA
BRANCH  19  20
ATOM     20  C   UNL     1       1.959   7.876  18.473  0.00  0.00    +0.000 C 
BRANCH  20  21
ATOM     21  C   UNL     1       1.438   9.133  19.082  0.00  0.00    +0.000 A 
ATOM     22  N   UNL     1       1.607  10.335  18.403  0.00  0.00    +0.000 NA
ATOM     23  C   UNL     1       1.126  11.252  19.219  0.00  0.00    +0.000 A 
ATOM     24  O   UNL     1       0.615  10.731  20.384  0.00  0.00    +0.000 OA
ATOM     25  C   UNL     1       0.821   9.381  20.284  0.00  0.00    +0.000 A 
ATOM     26  C   UNL     1       0.405   8.531  21.408  0.00  0.00    +0.000 C 
BRANCH  23  27
ATOM     27  C   UNL     1       1.072  12.707  19.055  0.00  0.00    +0.000 A 
ATOM     28  C   UNL     1       2.223  13.421  18.685  0.00  0.00    +0.000 A 
ATOM     29  C   UNL     1       2.193  14.814  18.523  0.00  0.00    +0.000 A 
ATOM     30  C   UNL     1       1.004  15.531  18.730  0.00  0.00    +0.000 A 
ATOM     31  C   UNL     1      -0.139  14.824  19.121  0.00  0.00    +0.000 A 
ATOM     32  C   UNL     1      -0.106  13.431  19.278  0.00  0.00    +0.000 A 
BRANCH  30  33
ATOM     33  C   UNL     1       0.933  17.026  18.537  0.00  0.00    +0.000 C 
ATOM     34  F   UNL     1       2.151  17.635  18.515  0.00  0.00    +0.000 F 
ATOM     35  F   UNL     1       0.325  17.370  17.367  0.00  0.00    +0.000 F 
ATOM     36  F   UNL     1       0.224  17.648  19.521  0.00  0.00    +0.000 F 
ENDBRANCH  30  33
ENDBRANCH  23  27
ENDBRANCH  20  21
ENDBRANCH  19  20
ENDBRANCH   6  19
TORSDOF 8
ENDMDL
MODEL 6
REMARK VINA RESULT:      -9.0      2.577      3.330
REMARK  Name = 
REMARK  10 active torsions:
REMARK  status: ('A' for Active; 'I' for Inactive)
REMARK    1  A    between atoms: C_1  and  C_2
REMARK    2  A    between atoms: C_2  and  C_12
REMARK    3  A    between atoms: C_3  and  C_4
REMARK    4  A    between atoms: C_4  and  N_5
REMARK    5  A    between atoms: C_17  and  O_18
REMARK    6  A    between atoms: O_18  and  C_19
REMARK    7  A    between atoms: C_19  and  C_20
REMARK    8  A    between atoms: C_22  and  C_23
REMARK    9  A    between atoms: C_26  and  C_27
REMARK   10  A    between atoms: C_34  and  C_35
REMARK                            x       y       z     vdW  Elec       q    Type
REMARK                         _______ _______ _______ _____ _____    ______ ____
ROOT
ATOM      1  C   UNL     1       3.406   3.860  18.025  0.00  0.00    +0.000 A 
ATOM      2  C   UNL     1       3.525   2.468  18.245  0.00  0.00    +0.000 A 
ATOM      3  C   UNL     1       2.622   1.763  19.038  0.00  0.00    +0.000 A 
ATOM      4  C   UNL     1       1.564   2.434  19.618  0.00  0.00    +0.000 A 
ATOM      5  C   UNL     1       1.428   3.806  19.423  0.00  0.00    +0.000 A 
ATOM      6  C   UNL     1       2.345   4.557  18.653  0.00  0.00    +0.000 A 
ENDROOT
BRANCH   1   8
ATOM      7  C   UNL     1       5.153   3.443  16.225  0.00  0.00    +0.000 C 
ATOM      8  C   UNL     1       4.455   4.419  17.135  0.00  0.00    +0.000 C 
ATOM      9  C   UNL     1       4.884   5.689  17.311  0.00  0.00    +0.000 C 
BRANCH   9  10
ATOM     10  C   UNL     1       6.086   6.301  16.647  0.00  0.00    +0.000 C 
BRANCH  10  11
ATOM     11  N   UNL     1       6.796   7.054  17.652  0.00  0.00    +0.000 N 
ATOM     12  O   UNL     1       7.228   8.359  17.280  0.00  0.00    +0.000 OA
ATOM     13  C   UNL     1       8.286   8.659  18.100  0.00  0.00    +0.000 A 
ATOM     14  O   UNL     1       8.912   9.705  18.078  0.00  0.00    +0.000 OA
ATOM     15  N   UNL     1       8.539   7.602  18.894  0.00  0.00    +0.000 N 
ATOM     16  C   UNL     1       7.765   6.562  18.504  0.00  0.00    +0.000 A 
ATOM     17  O   UNL     1       7.949   5.397  18.818  0.00  0.00    +0.000 OA
ATOM     18  H   UNL     1       9.349   7.520  19.480  0.00  0.00    +0.000 HD
ENDBRANCH  10  11
ENDBRANCH   9  10
ENDBRANCH   1   8
BRANCH   6  19
ATOM     19  O   UNL     1       2.203   5.930  18.487  0.00  0.00    +0.000 OA
BRANCH  19  20
ATOM     20  C   UNL     1       2.355   6.689  19.715  0.00  0.00    +0.000 C 
BRANCH  20  21
ATOM     21  C   UNL     1       1.729   8.041  19.770  0.00  0.00    +0.000 A 
ATOM     22  N   UNL     1       0.945   8.381  20.868  0.00  0.00    +0.000 NA
ATOM     23  C   UNL     1       0.476   9.581  20.588  0.00  0.00    +0.000 A 
ATOM     24  O   UNL     1       0.927  10.076  19.387  0.00  0.00    +0.000 OA
ATOM     25  C   UNL     1       1.724   9.085  18.877  0.00  0.00    +0.000 A 
ATOM     26  C   UNL     1       2.341   9.300  17.562  0.00  0.00    +0.000 C 
BRANCH  23  27
ATOM     27  C   UNL     1      -0.439  10.425  21.360  0.00  0.00    +0.000 A 
ATOM     28  C   UNL     1      -1.027  11.556  20.772  0.00  0.00    +0.000 A 
ATOM     29  C   UNL     1      -1.904  12.378  21.495  0.00  0.00    +0.000 A 
ATOM     30  C   UNL     1      -2.215  12.087  22.832  0.00  0.00    +0.000 A 
ATOM     31  C   UNL     1      -1.611  10.974  23.429  0.00  0.00    +0.000 A 
ATOM     32  C   UNL     1      -0.738  10.152  22.702  0.00  0.00    +0.000 A 
BRANCH  30  33
ATOM     33  C   UNL     1      -3.175  12.936  23.629  0.00  0.00    +0.000 C 
ATOM     34  F   UNL     1      -4.174  13.483  22.881  0.00  0.00    +0.000 F 
ATOM     35  F   UNL     1      -3.795  12.230  24.617  0.00  0.00    +0.000 F 
ATOM     36  F   UNL     1      -2.560  13.982  24.249  0.00  0.00    +0.000 F 
ENDBRANCH  30  33
ENDBRANCH  23  27
ENDBRANCH  20  21
ENDBRANCH  19  20
ENDBRANCH   6  19
TORSDOF 8
ENDMDL
MODEL 7
REMARK VINA RESULT:      -9.0      2.509      3.280
REMARK  Name = 
REMARK  10 active torsions:
REMARK  status: ('A' for Active; 'I' for Inactive)
REMARK    1  A    between atoms: C_1  and  C_2
REMARK    2  A    between atoms: C_2  and  C_12
REMARK    3  A    between atoms: C_3  and  C_4
REMARK    4  A    between atoms: C_4  and  N_5
REMARK    5  A    between atoms: C_17  and  O_18
REMARK    6  A    between atoms: O_18  and  C_19
REMARK    7  A    between atoms: C_19  and  C_20
REMARK    8  A    between atoms: C_22  and  C_23
REMARK    9  A    between atoms: C_26  and  C_27
REMARK   10  A    between atoms: C_34  and  C_35
REMARK                            x       y       z     vdW  Elec       q    Type
REMARK                         _______ _______ _______ _____ _____    ______ ____
ROOT
ATOM      1  C   UNL     1       2.775   4.290  18.661  0.00  0.00    +0.000 A 
ATOM      2  C   UNL     1       2.481   2.906  18.669  0.00  0.00    +0.000 A 
ATOM      3  C   UNL     1       1.639   2.332  19.621  0.00  0.00    +0.000 A 
ATOM      4  C   UNL     1       1.056   3.136  20.579  0.00  0.00    +0.000 A 
ATOM      5  C   UNL     1       1.333   4.501  20.597  0.00  0.00    +0.000 A 
ATOM      6  C   UNL     1       2.209   5.108  19.669  0.00  0.00    +0.000 A 
ENDROOT
BRANCH   1   8
ATOM      7  C   UNL     1       3.980   3.665  16.511  0.00  0.00    +0.000 C 
ATOM      8  C   UNL     1       3.675   4.705  17.555  0.00  0.00    +0.000 C 
ATOM      9  C   UNL     1       4.336   5.882  17.630  0.00  0.00    +0.000 C 
BRANCH   9  10
ATOM     10  C   UNL     1       5.443   6.317  16.709  0.00  0.00    +0.000 C 
BRANCH  10  11
ATOM     11  N   UNL     1       6.680   6.213  17.445  0.00  0.00    +0.000 N 
ATOM     12  O   UNL     1       6.676   5.343  18.573  0.00  0.00    +0.000 OA
ATOM     13  C   UNL     1       7.678   5.784  19.399  0.00  0.00    +0.000 A 
ATOM     14  O   UNL     1       7.979   5.276  20.466  0.00  0.00    +0.000 OA
ATOM     15  N   UNL     1       8.237   6.884  18.861  0.00  0.00    +0.000 N 
ATOM     16  C   UNL     1       7.520   7.258  17.775  0.00  0.00    +0.000 A 
ATOM     17  O   UNL     1       7.584   8.352  17.238  0.00  0.00    +0.000 OA
ATOM     18  H   UNL     1       8.894   7.473  19.339  0.00  0.00    +0.000 HD
ENDBRANCH  10  11
ENDBRANCH   9  10
ENDBRANCH   1   8
BRANCH   6  19
ATOM     19  O   UNL     1       2.490   6.469  19.716  0.00  0.00    +0.000 OA
BRANCH  19  20
ATOM     20  C   UNL     1       1.680   7.203  20.672  0.00  0.00    +0.000 C 
BRANCH  20  21
ATOM     21  C   UNL     1       1.206   8.560  20.273  0.00  0.00    +0.000 A 
ATOM     22  N   UNL     1       0.485   9.322  21.186  0.00  0.00    +0.000 NA
ATOM     23  C   UNL     1       0.145  10.409  20.522  0.00  0.00    +0.000 A 
ATOM     24  O   UNL     1       0.625  10.434  19.235  0.00  0.00    +0.000 OA
ATOM     25  C   UNL     1       1.299   9.251  19.089  0.00  0.00    +0.000 A 
ATOM     26  C   UNL     1       1.912   8.958  17.787  0.00  0.00    +0.000 C 
BRANCH  23  27
ATOM     27  C   UNL     1      -0.657  11.553  20.962  0.00  0.00    +0.000 A 
ATOM     28  C   UNL     1      -1.788  11.949  20.229  0.00  0.00    +0.000 A 
ATOM     29  C   UNL     1      -2.568  13.043  20.633  0.00  0.00    +0.000 A 
ATOM     30  C   UNL     1      -2.234  13.771  21.785  0.00  0.00    +0.000 A 
ATOM     31  C   UNL     1      -1.094  13.394  22.504  0.00  0.00    +0.000 A 
ATOM     32  C   UNL     1      -0.319  12.297  22.100  0.00  0.00    +0.000 A 
BRANCH  30  33
ATOM     33  C   UNL     1      -3.069  14.936  22.260  0.00  0.00    +0.000 C 
ATOM     34  F   UNL     1      -2.408  15.778  23.102  0.00  0.00    +0.000 F 
ATOM     35  F   UNL     1      -3.510  15.712  21.230  0.00  0.00    +0.000 F 
ATOM     36  F   UNL     1      -4.187  14.540  22.931  0.00  0.00    +0.000 F 
ENDBRANCH  30  33
ENDBRANCH  23  27
ENDBRANCH  20  21
ENDBRANCH  19  20
ENDBRANCH   6  19
TORSDOF 8
ENDMDL
MODEL 8
REMARK VINA RESULT:      -8.9      3.481      4.585
REMARK  Name = 
REMARK  10 active torsions:
REMARK  status: ('A' for Active; 'I' for Inactive)
REMARK    1  A    between atoms: C_1  and  C_2
REMARK    2  A    between atoms: C_2  and  C_12
REMARK    3  A    between atoms: C_3  and  C_4
REMARK    4  A    between atoms: C_4  and  N_5
REMARK    5  A    between atoms: C_17  and  O_18
REMARK    6  A    between atoms: O_18  and  C_19
REMARK    7  A    between atoms: C_19  and  C_20
REMARK    8  A    between atoms: C_22  and  C_23
REMARK    9  A    between atoms: C_26  and  C_27
REMARK   10  A    between atoms: C_34  and  C_35
REMARK                            x       y       z     vdW  Elec       q    Type
REMARK                         _______ _______ _______ _____ _____    ______ ____
ROOT
ATOM      1  C   UNL     1       3.428   4.520  19.078  0.00  0.00    +0.000 A 
ATOM      2  C   UNL     1       3.040   3.238  19.534  0.00  0.00    +0.000 A 
ATOM      3  C   UNL     1       1.942   3.050  20.372  0.00  0.00    +0.000 A 
ATOM      4  C   UNL     1       1.195   4.143  20.762  0.00  0.00    +0.000 A 
ATOM      5  C   UNL     1       1.560   5.417  20.332  0.00  0.00    +0.000 A 
ATOM      6  C   UNL     1       2.687   5.646  19.511  0.00  0.00    +0.000 A 
ENDROOT
BRANCH   1   8
ATOM      7  C   UNL     1       4.424   3.841  16.839  0.00  0.00    +0.000 C 
ATOM      8  C   UNL     1       4.610   4.504  18.178  0.00  0.00    +0.000 C 
ATOM      9  C   UNL     1       5.821   4.876  18.648  0.00  0.00    +0.000 C 
BRANCH   9  10
ATOM     10  C   UNL     1       7.128   4.689  17.928  0.00  0.00    +0.000 C 
BRANCH  10  11
ATOM     11  N   UNL     1       7.623   6.001  17.588  0.00  0.00    +0.000 N 
ATOM     12  O   UNL     1       8.286   6.717  18.625  0.00  0.00    +0.000 OA
ATOM     13  C   UNL     1       8.182   8.046  18.299  0.00  0.00    +0.000 A 
ATOM     14  O   UNL     1       8.642   8.964  18.956  0.00  0.00    +0.000 OA
ATOM     15  N   UNL     1       7.459   8.164  17.170  0.00  0.00    +0.000 N 
ATOM     16  C   UNL     1       6.961   6.950  16.835  0.00  0.00    +0.000 A 
ATOM     17  O   UNL     1       6.049   6.762  16.046  0.00  0.00    +0.000 OA
ATOM     18  H   UNL     1       7.124   9.037  16.805  0.00  0.00    +0.000 HD
ENDBRANCH  10  11
ENDBRANCH   9  10
ENDBRANCH   1   8
BRANCH   6  19
ATOM     19  O   UNL     1       3.046   6.928  19.110  0.00  0.00    +0.000 OA
BRANCH  19  20
ATOM     20  C   UNL     1       1.992   7.643  18.413  0.00  0.00    +0.000 C 
BRANCH  20  21
ATOM     21  C   UNL     1       1.581   8.967  18.962  0.00  0.00    +0.000 A 
ATOM     22  N   UNL     1       1.899  10.122  18.256  0.00  0.00    +0.000 NA
ATOM     23  C   UNL     1       1.484  11.111  19.024  0.00  0.00    +0.000 A 
ATOM     24  O   UNL     1       0.877  10.683  20.181  0.00  0.00    +0.000 OA
ATOM     25  C   UNL     1       0.946   9.317  20.129  0.00  0.00    +0.000 A 
ATOM     26  C   UNL     1       0.402   8.552  21.259  0.00  0.00    +0.000 C 
BRANCH  23  27
ATOM     27  C   UNL     1       1.587  12.556  18.814  0.00  0.00    +0.000 A 
ATOM     28  C   UNL     1       2.718  13.102  18.187  0.00  0.00    +0.000 A 
ATOM     29  C   UNL     1       2.837  14.485  17.978  0.00  0.00    +0.000 A 
ATOM     30  C   UNL     1       1.821  15.359  18.395  0.00  0.00    +0.000 A 
ATOM     31  C   UNL     1       0.703  14.820  19.042  0.00  0.00    +0.000 A 
ATOM     32  C   UNL     1       0.586  13.437  19.245  0.00  0.00    +0.000 A 
BRANCH  30  33
ATOM     33  C   UNL     1       1.907  16.847  18.160  0.00  0.00    +0.000 C 
ATOM     34  F   UNL     1       1.943  17.582  19.306  0.00  0.00    +0.000 F 
ATOM     35  F   UNL     1       3.022  17.199  17.459  0.00  0.00    +0.000 F 
ATOM     36  F   UNL     1       0.852  17.327  17.443  0.00  0.00    +0.000 F 
ENDBRANCH  30  33
ENDBRANCH  23  27
ENDBRANCH  20  21
ENDBRANCH  19  20
ENDBRANCH   6  19
TORSDOF 8
ENDMDL
MODEL 9
REMARK VINA RESULT:      -8.8      6.343     12.377
REMARK  Name = 
REMARK  10 active torsions:
REMARK  status: ('A' for Active; 'I' for Inactive)
REMARK    1  A    between atoms: C_1  and  C_2
REMARK    2  A    between atoms: C_2  and  C_12
REMARK    3  A    between atoms: C_3  and  C_4
REMARK    4  A    between atoms: C_4  and  N_5
REMARK    5  A    between atoms: C_17  and  O_18
REMARK    6  A    between atoms: O_18  and  C_19
REMARK    7  A    between atoms: C_19  and  C_20
REMARK    8  A    between atoms: C_22  and  C_23
REMARK    9  A    between atoms: C_26  and  C_27
REMARK   10  A    between atoms: C_34  and  C_35
REMARK                            x       y       z     vdW  Elec       q    Type
REMARK                         _______ _______ _______ _____ _____    ______ ____
ROOT
ATOM      1  C   UNL     1      -2.747  11.872  19.130  0.00  0.00    +0.000 A 
ATOM      2  C   UNL     1      -3.879  12.024  18.295  0.00  0.00    +0.000 A 
ATOM      3  C   UNL     1      -4.186  11.111  17.288  0.00  0.00    +0.000 A 
ATOM      4  C   UNL     1      -3.374  10.010  17.103  0.00  0.00    +0.000 A 
ATOM      5  C   UNL     1      -2.249   9.840  17.908  0.00  0.00    +0.000 A 
ATOM      6  C   UNL     1      -1.891  10.765  18.914  0.00  0.00    +0.000 A 
ENDROOT
BRANCH   1   8
ATOM      7  C   UNL     1      -1.416  13.849  20.016  0.00  0.00    +0.000 C 
ATOM      8  C   UNL     1      -2.608  12.939  20.153  0.00  0.00    +0.000 C 
ATOM      9  C   UNL     1      -3.398  12.929  21.250  0.00  0.00    +0.000 C 
BRANCH   9  10
ATOM     10  C   UNL     1      -3.212  13.798  22.463  0.00  0.00    +0.000 C 
BRANCH  10  11
ATOM     11  N   UNL     1      -4.320  13.541  23.350  0.00  0.00    +0.000 N 
ATOM     12  O   UNL     1      -5.118  12.399  23.054  0.00  0.00    +0.000 OA
ATOM     13  C   UNL     1      -6.346  12.633  23.619  0.00  0.00    +0.000 A 
ATOM     14  O   UNL     1      -7.292  11.865  23.578  0.00  0.00    +0.000 OA
ATOM     15  N   UNL     1      -6.342  13.856  24.183  0.00  0.00    +0.000 N 
ATOM     16  C   UNL     1      -5.186  14.485  23.865  0.00  0.00    +0.000 A 
ATOM     17  O   UNL     1      -4.991  15.685  23.973  0.00  0.00    +0.000 OA
ATOM     18  H   UNL     1      -7.161  14.315  24.536  0.00  0.00    +0.000 HD
ENDBRANCH  10  11
ENDBRANCH   9  10
ENDBRANCH   1   8
BRANCH   6  19
ATOM     19  O   UNL     1      -0.752  10.588  19.693  0.00  0.00    +0.000 OA
BRANCH  19  20
ATOM     20  C   UNL     1       0.481  10.533  18.928  0.00  0.00    +0.000 C 
BRANCH  20  21
ATOM     21  C   UNL     1       1.322   9.310  19.066  0.00  0.00    +0.000 A 
ATOM     22  N   UNL     1       2.046   8.857  17.968  0.00  0.00    +0.000 NA
ATOM     23  C   UNL     1       2.608   7.736  18.374  0.00  0.00    +0.000 A 
ATOM     24  O   UNL     1       2.333   7.434  19.687  0.00  0.00    +0.000 OA
ATOM     25  C   UNL     1       1.513   8.444  20.115  0.00  0.00    +0.000 A 
ATOM     26  C   UNL     1       1.009   8.390  21.493  0.00  0.00    +0.000 C 
BRANCH  23  27
ATOM     27  C   UNL     1       3.456   6.800  17.633  0.00  0.00    +0.000 A 
ATOM     28  C   UNL     1       4.405   7.277  16.715  0.00  0.00    +0.000 A 
ATOM     29  C   UNL     1       5.226   6.396  15.995  0.00  0.00    +0.000 A 
ATOM     30  C   UNL     1       5.114   5.009  16.174  0.00  0.00    +0.000 A 
ATOM     31  C   UNL     1       4.152   4.529  17.071  0.00  0.00    +0.000 A 
ATOM     32  C   UNL     1       3.337   5.413  17.793  0.00  0.00    +0.000 A 
BRANCH  30  33
ATOM     33  C   UNL     1       6.000   4.037  15.434  0.00  0.00    +0.000 C 
ATOM     34  F   UNL     1       5.932   2.762  15.908  0.00  0.00    +0.000 F 
ATOM     35  F   UNL     1       5.689   3.957  14.109  0.00  0.00    +0.000 F 
ATOM     36  F   UNL     1       7.317   4.384  15.485  0.00  0.00    +0.000 F 
ENDBRANCH  30  33
ENDBRANCH  23  27
ENDBRANCH  20  21
ENDBRANCH  19  20
ENDBRANCH   6  19
TORSDOF 8
ENDMDL
