MODEL 1
REMARK VINA RESULT:      -8.1      0.000      0.000
REMARK  Name = 
REMARK  5 active torsions:
REMARK  status: ('A' for Active; 'I' for Inactive)
REMARK    1  A    between atoms: C_1  and  C_2
REMARK    2  A    between atoms: C_2  and  C_3
REMARK    3  A    between atoms: C_2  and  C_4
REMARK    4  A    between atoms: C_6  and  N_7
REMARK    5  A    between atoms: N_7  and  C_8
REMARK                            x       y       z     vdW  Elec       q    Type
REMARK                         _______ _______ _______ _____ _____    ______ ____
ROOT
ATOM      1  C   UNL     1       6.267   3.741  12.630  0.00  0.00    +0.000 A 
ATOM      2  C   UNL     1       5.811   3.526  13.917  0.00  0.00    +0.000 A 
ATOM      3  C   UNL     1       6.470   4.177  14.941  0.00  0.00    +0.000 A 
ATOM      4  N   UNL     1       7.481   5.019  14.680  0.00  0.00    +0.000 NA
ATOM      5  C   UNL     1       7.852   5.184  13.412  0.00  0.00    +0.000 A 
ATOM      6  N   UNL     1       8.880   6.069  13.165  0.00  0.00    +0.000 N 
ATOM      7  N   UNL     1       7.274   4.593  12.369  0.00  0.00    +0.000 NA
ATOM      8  H   UNL     1       8.936   6.745  13.913  0.00  0.00    +0.000 HD
ATOM      9  H   UNL     1       8.803   6.425  12.223  0.00  0.00    +0.000 HD
ENDROOT
BRANCH   1  11
ATOM     10  C   UNL     1       5.934   1.558  11.479  0.00  0.00    +0.000 C 
ATOM     11  C   UNL     1       5.594   3.048  11.463  0.00  0.00    +0.000 C 
ATOM     12  C   UNL     1       4.076   3.259  11.452  0.00  0.00    +0.000 C 
ENDBRANCH   1  11
BRANCH   3  13
ATOM     13  N   UNL     1       6.041   3.942  16.273  0.00  0.00    +0.000 N 
ATOM     14  H   UNL     1       6.819   3.948  16.923  0.00  0.00    +0.000 HD
BRANCH  13  15
ATOM     15  C   UNL     1       4.829   4.335  16.885  0.00  0.00    +0.000 A 
ATOM     16  C   UNL     1       3.847   3.432  17.313  0.00  0.00    +0.000 A 
ATOM     17  C   UNL     1       2.640   3.883  17.848  0.00  0.00    +0.000 A 
ATOM     18 CL   UNL     1       1.433   2.743  18.309  0.00  0.00    +0.000 Cl
ATOM     19  C   UNL     1       2.396   5.241  18.002  0.00  0.00    +0.000 A 
ATOM     20  C   UNL     1       3.383   6.145  17.632  0.00  0.00    +0.000 A 
ATOM     21 CL   UNL     1       3.104   7.834  17.818  0.00  0.00    +0.000 Cl
ATOM     22  C   UNL     1       4.592   5.702  17.091  0.00  0.00    +0.000 A 
ENDBRANCH  13  15
ENDBRANCH   3  13
TORSDOF 3
ENDMDL
MODEL 2
REMARK VINA RESULT:      -8.1      0.143      2.064
REMARK  Name = 
REMARK  5 active torsions:
REMARK  status: ('A' for Active; 'I' for Inactive)
REMARK    1  A    between atoms: C_1  and  C_2
REMARK    2  A    between atoms: C_2  and  C_3
REMARK    3  A    between atoms: C_2  and  C_4
REMARK    4  A    between atoms: C_6  and  N_7
REMARK    5  A    between atoms: N_7  and  C_8
REMARK                            x       y       z     vdW  Elec       q    Type
REMARK                         _______ _______ _______ _____ _____    ______ ____
ROOT
ATOM      1  C   UNL     1       6.244   3.748  12.657  0.00  0.00    +0.000 A 
ATOM      2  C   UNL     1       5.766   3.567  13.941  0.00  0.00    +0.000 A 
ATOM      3  C   UNL     1       6.423   4.226  14.961  0.00  0.00    +0.000 A 
ATOM      4  N   UNL     1       7.452   5.044  14.698  0.00  0.00    +0.000 NA
ATOM      5  C   UNL     1       7.845   5.177  13.433  0.00  0.00    +0.000 A 
ATOM      6  N   UNL     1       8.892   6.038  13.182  0.00  0.00    +0.000 N 
ATOM      7  N   UNL     1       7.271   4.576  12.394  0.00  0.00    +0.000 NA
ATOM      8  H   UNL     1       8.950   6.727  13.919  0.00  0.00    +0.000 HD
ATOM      9  H   UNL     1       8.835   6.376  12.233  0.00  0.00    +0.000 HD
ENDROOT
BRANCH   1  11
ATOM     10  C   UNL     1       5.963   1.566  11.489  0.00  0.00    +0.000 C 
ATOM     11  C   UNL     1       5.575   3.044  11.494  0.00  0.00    +0.000 C 
ATOM     12  C   UNL     1       4.051   3.205  11.510  0.00  0.00    +0.000 C 
ENDBRANCH   1  11
BRANCH   3  13
ATOM     13  N   UNL     1       5.971   4.026  16.291  0.00  0.00    +0.000 N 
ATOM     14  H   UNL     1       6.736   4.054  16.954  0.00  0.00    +0.000 HD
BRANCH  13  15
ATOM     15  C   UNL     1       4.746   4.429  16.870  0.00  0.00    +0.000 A 
ATOM     16  C   UNL     1       4.402   5.766  17.108  0.00  0.00    +0.000 A 
ATOM     17  C   UNL     1       3.205   6.098  17.745  0.00  0.00    +0.000 A 
ATOM     18 CL   UNL     1       2.844   7.750  18.073  0.00  0.00    +0.000 Cl
ATOM     19  C   UNL     1       2.309   5.109  18.129  0.00  0.00    +0.000 A 
ATOM     20  C   UNL     1       2.613   3.783  17.850  0.00  0.00    +0.000 A 
ATOM     21 CL   UNL     1       1.513   2.542  18.312  0.00  0.00    +0.000 Cl
ATOM     22  C   UNL     1       3.810   3.442  17.217  0.00  0.00    +0.000 A 
ENDBRANCH  13  15
ENDBRANCH   3  13
TORSDOF 3
ENDMDL
MODEL 3
REMARK VINA RESULT:      -7.7      1.875      3.324
REMARK  Name = 
REMARK  5 active torsions:
REMARK  status: ('A' for Active; 'I' for Inactive)
REMARK    1  A    between atoms: C_1  and  C_2
REMARK    2  A    between atoms: C_2  and  C_3
REMARK    3  A    between atoms: C_2  and  C_4
REMARK    4  A    between atoms: C_6  and  N_7
REMARK    5  A    between atoms: N_7  and  C_8
REMARK                            x       y       z     vdW  Elec       q    Type
REMARK                         _______ _______ _______ _____ _____    ______ ____
ROOT
ATOM      1  C   UNL     1       6.503   4.399  14.700  0.00  0.00    +0.000 A 
ATOM      2  C   UNL     1       5.627   3.742  15.544  0.00  0.00    +0.000 A 
ATOM      3  C   UNL     1       5.517   4.214  16.838  0.00  0.00    +0.000 A 
ATOM      4  N   UNL     1       6.202   5.296  17.233  0.00  0.00    +0.000 NA
ATOM      5  C   UNL     1       7.015   5.883  16.356  0.00  0.00    +0.000 A 
ATOM      6  N   UNL     1       7.695   7.006  16.778  0.00  0.00    +0.000 N 
ATOM      7  N   UNL     1       7.182   5.491  15.096  0.00  0.00    +0.000 NA
ATOM      8  H   UNL     1       7.193   7.444  17.537  0.00  0.00    +0.000 HD
ATOM      9  H   UNL     1       7.927   7.582  15.981  0.00  0.00    +0.000 HD
ENDROOT
BRANCH   1  11
ATOM     10  C   UNL     1       5.311   3.694  12.631  0.00  0.00    +0.000 C 
ATOM     11  C   UNL     1       6.678   3.924  13.272  0.00  0.00    +0.000 C 
ATOM     12  C   UNL     1       7.518   4.892  12.432  0.00  0.00    +0.000 C 
ENDBRANCH   1  11
BRANCH   3  13
ATOM     13  N   UNL     1       4.651   3.532  17.731  0.00  0.00    +0.000 N 
ATOM     14  H   UNL     1       5.066   2.673  18.071  0.00  0.00    +0.000 HD
BRANCH  13  15
ATOM     15  C   UNL     1       3.730   4.084  18.650  0.00  0.00    +0.000 A 
ATOM     16  C   UNL     1       3.352   5.433  18.655  0.00  0.00    +0.000 A 
ATOM     17  C   UNL     1       2.490   5.934  19.631  0.00  0.00    +0.000 A 
ATOM     18 CL   UNL     1       2.094   7.611  19.640  0.00  0.00    +0.000 Cl
ATOM     19  C   UNL     1       1.957   5.098  20.603  0.00  0.00    +0.000 A 
ATOM     20  C   UNL     1       2.280   3.747  20.576  0.00  0.00    +0.000 A 
ATOM     21 CL   UNL     1       1.627   2.691  21.769  0.00  0.00    +0.000 Cl
ATOM     22  C   UNL     1       3.147   3.239  19.606  0.00  0.00    +0.000 A 
ENDBRANCH  13  15
ENDBRANCH   3  13
TORSDOF 3
ENDMDL
MODEL 4
REMARK VINA RESULT:      -7.7      1.851      2.655
REMARK  Name = 
REMARK  5 active torsions:
REMARK  status: ('A' for Active; 'I' for Inactive)
REMARK    1  A    between atoms: C_1  and  C_2
REMARK    2  A    between atoms: C_2  and  C_3
REMARK    3  A    between atoms: C_2  and  C_4
REMARK    4  A    between atoms: C_6  and  N_7
REMARK    5  A    between atoms: N_7  and  C_8
REMARK                            x       y       z     vdW  Elec       q    Type
REMARK                         _______ _______ _______ _____ _____    ______ ____
ROOT
ATOM      1  C   UNL     1       6.624   4.415  14.701  0.00  0.00    +0.000 A 
ATOM      2  C   UNL     1       5.722   3.720  15.484  0.00  0.00    +0.000 A 
ATOM      3  C   UNL     1       5.550   4.149  16.786  0.00  0.00    +0.000 A 
ATOM      4  N   UNL     1       6.202   5.227  17.244  0.00  0.00    +0.000 NA
ATOM      5  C   UNL     1       7.043   5.852  16.423  0.00  0.00    +0.000 A 
ATOM      6  N   UNL     1       7.688   6.970  16.908  0.00  0.00    +0.000 N 
ATOM      7  N   UNL     1       7.270   5.502  15.159  0.00  0.00    +0.000 NA
ATOM      8  H   UNL     1       7.147   7.377  17.658  0.00  0.00    +0.000 HD
ATOM      9  H   UNL     1       7.946   7.574  16.141  0.00  0.00    +0.000 HD
ENDROOT
BRANCH   1  11
ATOM     10  C   UNL     1       5.551   3.559  12.623  0.00  0.00    +0.000 C 
ATOM     11  C   UNL     1       6.868   3.988  13.267  0.00  0.00    +0.000 C 
ATOM     12  C   UNL     1       7.548   5.082  12.438  0.00  0.00    +0.000 C 
ENDBRANCH   1  11
BRANCH   3  13
ATOM     13  N   UNL     1       4.655   3.428  17.618  0.00  0.00    +0.000 N 
ATOM     14  H   UNL     1       5.016   2.511  17.849  0.00  0.00    +0.000 HD
BRANCH  13  15
ATOM     15  C   UNL     1       3.791   3.931  18.618  0.00  0.00    +0.000 A 
ATOM     16  C   UNL     1       3.225   3.139  19.625  0.00  0.00    +0.000 A 
ATOM     17  C   UNL     1       2.324   3.679  20.544  0.00  0.00    +0.000 A 
ATOM     18 CL   UNL     1       1.603   2.660  21.731  0.00  0.00    +0.000 Cl
ATOM     19  C   UNL     1       1.994   5.027  20.504  0.00  0.00    +0.000 A 
ATOM     20  C   UNL     1       2.591   5.835  19.545  0.00  0.00    +0.000 A 
ATOM     21 CL   UNL     1       2.200   7.511  19.480  0.00  0.00    +0.000 Cl
ATOM     22  C   UNL     1       3.489   5.301  18.618  0.00  0.00    +0.000 A 
ENDBRANCH  13  15
ENDBRANCH   3  13
TORSDOF 3
ENDMDL
MODEL 5
REMARK VINA RESULT:      -7.7      1.852      3.627
REMARK  Name = 
REMARK  5 active torsions:
REMARK  status: ('A' for Active; 'I' for Inactive)
REMARK    1  A    between atoms: C_1  and  C_2
REMARK    2  A    between atoms: C_2  and  C_3
REMARK    3  A    between atoms: C_2  and  C_4
REMARK    4  A    between atoms: C_6  and  N_7
REMARK    5  A    between atoms: N_7  and  C_8
REMARK                            x       y       z     vdW  Elec       q    Type
REMARK                         _______ _______ _______ _____ _____    ______ ____
ROOT
ATOM      1  C   UNL     1       6.343   4.559  14.836  0.00  0.00    +0.000 A 
ATOM      2  C   UNL     1       5.047   4.342  15.267  0.00  0.00    +0.000 A 
ATOM      3  C   UNL     1       4.852   4.156  16.622  0.00  0.00    +0.000 A 
ATOM      4  N   UNL     1       5.880   4.233  17.479  0.00  0.00    +0.000 NA
ATOM      5  C   UNL     1       7.097   4.459  16.987  0.00  0.00    +0.000 A 
ATOM      6  N   UNL     1       8.136   4.553  17.888  0.00  0.00    +0.000 N 
ATOM      7  N   UNL     1       7.371   4.644  15.698  0.00  0.00    +0.000 NA
ATOM      8  H   UNL     1       7.779   4.827  18.793  0.00  0.00    +0.000 HD
ATOM      9  H   UNL     1       8.879   5.111  17.493  0.00  0.00    +0.000 HD
ENDROOT
BRANCH   1  11
ATOM     10  C   UNL     1       8.056   5.259  13.170  0.00  0.00    +0.000 C 
ATOM     11  C   UNL     1       6.626   4.758  13.360  0.00  0.00    +0.000 C 
ATOM     12  C   UNL     1       6.381   3.488  12.540  0.00  0.00    +0.000 C 
ENDBRANCH   1  11
BRANCH   3  13
ATOM     13  N   UNL     1       3.536   3.897  17.082  0.00  0.00    +0.000 N 
ATOM     14  H   UNL     1       3.226   2.968  16.824  0.00  0.00    +0.000 HD
BRANCH  13  15
ATOM     15  C   UNL     1       2.913   4.361  18.263  0.00  0.00    +0.000 A 
ATOM     16  C   UNL     1       2.710   5.717  18.553  0.00  0.00    +0.000 A 
ATOM     17  C   UNL     1       2.152   6.117  19.767  0.00  0.00    +0.000 A 
ATOM     18 CL   UNL     1       1.972   7.795  20.112  0.00  0.00    +0.000 Cl
ATOM     19  C   UNL     1       1.750   5.176  20.707  0.00  0.00    +0.000 A 
ATOM     20  C   UNL     1       1.896   3.827  20.409  0.00  0.00    +0.000 A 
ATOM     21 CL   UNL     1       1.400   2.643  21.557  0.00  0.00    +0.000 Cl
ATOM     22  C   UNL     1       2.459   3.419  19.198  0.00  0.00    +0.000 A 
ENDBRANCH  13  15
ENDBRANCH   3  13
TORSDOF 3
ENDMDL
MODEL 6
REMARK VINA RESULT:      -7.6      2.216      3.144
REMARK  Name = 
REMARK  5 active torsions:
REMARK  status: ('A' for Active; 'I' for Inactive)
REMARK    1  A    between atoms: C_1  and  C_2
REMARK    2  A    between atoms: C_2  and  C_3
REMARK    3  A    between atoms: C_2  and  C_4
REMARK    4  A    between atoms: C_6  and  N_7
REMARK    5  A    between atoms: N_7  and  C_8
REMARK                            x       y       z     vdW  Elec       q    Type
REMARK                         _______ _______ _______ _____ _____    ______ ____
ROOT
ATOM      1  C   UNL     1       6.870   4.860  15.586  0.00  0.00    +0.000 A 
ATOM      2  C   UNL     1       6.159   4.156  16.540  0.00  0.00    +0.000 A 
ATOM      3  C   UNL     1       6.070   4.711  17.802  0.00  0.00    +0.000 A 
ATOM      4  N   UNL     1       6.616   5.907  18.065  0.00  0.00    +0.000 NA
ATOM      5  C   UNL     1       7.272   6.529  17.088  0.00  0.00    +0.000 A 
ATOM      6  N   UNL     1       7.808   7.767  17.375  0.00  0.00    +0.000 N 
ATOM      7  N   UNL     1       7.408   6.064  15.849  0.00  0.00    +0.000 NA
ATOM      8  H   UNL     1       7.301   8.189  18.139  0.00  0.00    +0.000 HD
ATOM      9  H   UNL     1       7.899   8.303  16.524  0.00  0.00    +0.000 HD
ENDROOT
BRANCH   1  11
ATOM     10  C   UNL     1       5.642   3.915  13.636  0.00  0.00    +0.000 C 
ATOM     11  C   UNL     1       7.014   4.300  14.185  0.00  0.00    +0.000 C 
ATOM     12  C   UNL     1       7.727   5.272  13.238  0.00  0.00    +0.000 C 
ENDBRANCH   1  11
BRANCH   3  13
ATOM     13  N   UNL     1       5.376   3.988  18.807  0.00  0.00    +0.000 N 
ATOM     14  H   UNL     1       5.968   3.796  19.606  0.00  0.00    +0.000 HD
BRANCH  13  15
ATOM     15  C   UNL     1       4.009   4.072  19.159  0.00  0.00    +0.000 A 
ATOM     16  C   UNL     1       3.084   3.045  18.928  0.00  0.00    +0.000 A 
ATOM     17  C   UNL     1       1.733   3.213  19.236  0.00  0.00    +0.000 A 
ATOM     18 CL   UNL     1       0.616   1.950  18.884  0.00  0.00    +0.000 Cl
ATOM     19  C   UNL     1       1.279   4.392  19.812  0.00  0.00    +0.000 A 
ATOM     20  C   UNL     1       2.195   5.396  20.096  0.00  0.00    +0.000 A 
ATOM     21 CL   UNL     1       1.654   6.864  20.815  0.00  0.00    +0.000 Cl
ATOM     22  C   UNL     1       3.548   5.238  19.787  0.00  0.00    +0.000 A 
ENDBRANCH  13  15
ENDBRANCH   3  13
TORSDOF 3
ENDMDL
MODEL 7
REMARK VINA RESULT:      -7.6      2.417      4.812
REMARK  Name = 
REMARK  5 active torsions:
REMARK  status: ('A' for Active; 'I' for Inactive)
REMARK    1  A    between atoms: C_1  and  C_2
REMARK    2  A    between atoms: C_2  and  C_3
REMARK    3  A    between atoms: C_2  and  C_4
REMARK    4  A    between atoms: C_6  and  N_7
REMARK    5  A    between atoms: N_7  and  C_8
REMARK                            x       y       z     vdW  Elec       q    Type
REMARK                         _______ _______ _______ _____ _____    ______ ____
ROOT
ATOM      1  C   UNL     1       6.794   5.383  16.965  0.00  0.00    +0.000 A 
ATOM      2  C   UNL     1       5.538   5.100  17.470  0.00  0.00    +0.000 A 
ATOM      3  C   UNL     1       4.676   4.385  16.662  0.00  0.00    +0.000 A 
ATOM      4  N   UNL     1       5.069   3.948  15.457  0.00  0.00    +0.000 NA
ATOM      5  C   UNL     1       6.300   4.250  15.047  0.00  0.00    +0.000 A 
ATOM      6  N   UNL     1       6.690   3.774  13.814  0.00  0.00    +0.000 N 
ATOM      7  N   UNL     1       7.189   4.936  15.760  0.00  0.00    +0.000 NA
ATOM      8  H   UNL     1       6.148   2.955  13.577  0.00  0.00    +0.000 HD
ATOM      9  H   UNL     1       7.696   3.690  13.785  0.00  0.00    +0.000 HD
ENDROOT
BRANCH   1  11
ATOM     10  C   UNL     1       7.553   7.670  17.593  0.00  0.00    +0.000 C 
ATOM     11  C   UNL     1       7.783   6.174  17.797  0.00  0.00    +0.000 C 
ATOM     12  C   UNL     1       7.719   5.811  19.285  0.00  0.00    +0.000 C 
ENDBRANCH   1  11
BRANCH   3  13
ATOM     13  N   UNL     1       3.370   4.114  17.146  0.00  0.00    +0.000 N 
ATOM     14  H   UNL     1       3.039   3.207  16.842  0.00  0.00    +0.000 HD
BRANCH  13  15
ATOM     15  C   UNL     1       2.791   4.513  18.373  0.00  0.00    +0.000 A 
ATOM     16  C   UNL     1       2.541   5.848  18.717  0.00  0.00    +0.000 A 
ATOM     17  C   UNL     1       2.030   6.183  19.971  0.00  0.00    +0.000 A 
ATOM     18 CL   UNL     1       1.792   7.840  20.379  0.00  0.00    +0.000 Cl
ATOM     19  C   UNL     1       1.723   5.197  20.899  0.00  0.00    +0.000 A 
ATOM     20  C   UNL     1       1.914   3.866  20.550  0.00  0.00    +0.000 A 
ATOM     21 CL   UNL     1       1.536   2.626  21.683  0.00  0.00    +0.000 Cl
ATOM     22  C   UNL     1       2.430   3.522  19.298  0.00  0.00    +0.000 A 
ENDBRANCH  13  15
ENDBRANCH   3  13
TORSDOF 3
ENDMDL
MODEL 8
REMARK VINA RESULT:      -7.4      4.126      7.257
REMARK  Name = 
REMARK  5 active torsions:
REMARK  status: ('A' for Active; 'I' for Inactive)
REMARK    1  A    between atoms: C_1  and  C_2
REMARK    2  A    between atoms: C_2  and  C_3
REMARK    3  A    between atoms: C_2  and  C_4
REMARK    4  A    between atoms: C_6  and  N_7
REMARK    5  A    between atoms: N_7  and  C_8
REMARK                            x       y       z     vdW  Elec       q    Type
REMARK                         _______ _______ _______ _____ _____    ______ ____
ROOT
ATOM      1  C   UNL     1       1.597   4.885  20.180  0.00  0.00    +0.000 A 
ATOM      2  C   UNL     1       2.353   5.027  19.032  0.00  0.00    +0.000 A 
ATOM      3  C   UNL     1       2.779   6.300  18.706  0.00  0.00    +0.000 A 
ATOM      4  N   UNL     1       2.504   7.340  19.506  0.00  0.00    +0.000 NA
ATOM      5  C   UNL     1       1.782   7.120  20.602  0.00  0.00    +0.000 A 
ATOM      6  N   UNL     1       1.527   8.200  21.420  0.00  0.00    +0.000 N 
ATOM      7  N   UNL     1       1.330   5.929  20.986  0.00  0.00    +0.000 NA
ATOM      8  H   UNL     1       2.238   8.905  21.285  0.00  0.00    +0.000 HD
ATOM      9  H   UNL     1       1.362   7.881  22.364  0.00  0.00    +0.000 HD
ENDROOT
BRANCH   1  11
ATOM     10  C   UNL     1       0.859   2.658  19.345  0.00  0.00    +0.000 C 
ATOM     11  C   UNL     1       1.089   3.516  20.587  0.00  0.00    +0.000 C 
ATOM     12  C   UNL     1       2.030   2.811  21.569  0.00  0.00    +0.000 C 
ENDBRANCH   1  11
BRANCH   3  13
ATOM     13  N   UNL     1       3.526   6.474  17.513  0.00  0.00    +0.000 N 
ATOM     14  H   UNL     1       3.403   7.402  17.126  0.00  0.00    +0.000 HD
BRANCH  13  15
ATOM     15  C   UNL     1       4.781   5.915  17.175  0.00  0.00    +0.000 A 
ATOM     16  C   UNL     1       5.059   5.323  15.936  0.00  0.00    +0.000 A 
ATOM     17  C   UNL     1       6.295   4.727  15.686  0.00  0.00    +0.000 A 
ATOM     18 CL   UNL     1       6.580   3.958  14.171  0.00  0.00    +0.000 Cl
ATOM     19  C   UNL     1       7.295   4.736  16.650  0.00  0.00    +0.000 A 
ATOM     20  C   UNL     1       7.050   5.367  17.863  0.00  0.00    +0.000 A 
ATOM     21 CL   UNL     1       8.277   5.395  19.070  0.00  0.00    +0.000 Cl
ATOM     22  C   UNL     1       5.814   5.962  18.123  0.00  0.00    +0.000 A 
ENDBRANCH  13  15
ENDBRANCH   3  13
TORSDOF 3
ENDMDL
MODEL 9
REMARK VINA RESULT:      -7.4      2.327      3.824
REMARK  Name = 
REMARK  5 active torsions:
REMARK  status: ('A' for Active; 'I' for Inactive)
REMARK    1  A    between atoms: C_1  and  C_2
REMARK    2  A    between atoms: C_2  and  C_3
REMARK    3  A    between atoms: C_2  and  C_4
REMARK    4  A    between atoms: C_6  and  N_7
REMARK    5  A    between atoms: N_7  and  C_8
REMARK                            x       y       z     vdW  Elec       q    Type
REMARK                         _______ _______ _______ _____ _____    ______ ____
ROOT
ATOM      1  C   UNL     1       6.805   4.976  15.771  0.00  0.00    +0.000 A 
ATOM      2  C   UNL     1       6.077   4.345  16.762  0.00  0.00    +0.000 A 
ATOM      3  C   UNL     1       6.024   4.959  17.999  0.00  0.00    +0.000 A 
ATOM      4  N   UNL     1       6.621   6.142  18.202  0.00  0.00    +0.000 NA
ATOM      5  C   UNL     1       7.292   6.693  17.193  0.00  0.00    +0.000 A 
ATOM      6  N   UNL     1       7.881   7.919  17.419  0.00  0.00    +0.000 N 
ATOM      7  N   UNL     1       7.395   6.168  15.975  0.00  0.00    +0.000 NA
ATOM      8  H   UNL     1       7.399   8.396  18.167  0.00  0.00    +0.000 HD
ATOM      9  H   UNL     1       7.984   8.413  16.544  0.00  0.00    +0.000 HD
ENDROOT
BRANCH   1  11
ATOM     10  C   UNL     1       5.517   4.027  13.863  0.00  0.00    +0.000 C 
ATOM     11  C   UNL     1       6.912   4.349  14.395  0.00  0.00    +0.000 C 
ATOM     12  C   UNL     1       7.681   5.233  13.407  0.00  0.00    +0.000 C 
ENDBRANCH   1  11
BRANCH   3  13
ATOM     13  N   UNL     1       5.312   4.312  19.041  0.00  0.00    +0.000 N 
ATOM     14  H   UNL     1       5.881   4.201  19.871  0.00  0.00    +0.000 HD
BRANCH  13  15
ATOM     15  C   UNL     1       3.933   4.397  19.344  0.00  0.00    +0.000 A 
ATOM     16  C   UNL     1       3.339   5.511  19.950  0.00  0.00    +0.000 A 
ATOM     17  C   UNL     1       1.985   5.510  20.287  0.00  0.00    +0.000 A 
ATOM     18 CL   UNL     1       1.303   6.876  21.084  0.00  0.00    +0.000 Cl
ATOM     19  C   UNL     1       1.184   4.413  19.997  0.00  0.00    +0.000 A 
ATOM     20  C   UNL     1       1.749   3.324  19.347  0.00  0.00    +0.000 A 
ATOM     21 CL   UNL     1       0.773   1.955  18.973  0.00  0.00    +0.000 Cl
ATOM     22  C   UNL     1       3.104   3.315  19.011  0.00  0.00    +0.000 A 
ENDBRANCH  13  15
ENDBRANCH   3  13
TORSDOF 3
ENDMDL
