MODEL 1
REMARK VINA RESULT:      -8.0      0.000      0.000
REMARK  Name = 
REMARK  8 active torsions:
REMARK  status: ('A' for Active; 'I' for Inactive)
REMARK    1  A    between atoms: C_1  and  C_2
REMARK    2  A    between atoms: C_5  and  C_6
REMARK    3  A    between atoms: C_6  and  C_7
REMARK    4  A    between atoms: C_7  and  N_8
REMARK    5  A    between atoms: C_9  and  C_11
REMARK    6  A    between atoms: C_11  and  N_12
REMARK    7  A    between atoms: C_20  and  S_21
REMARK    8  A    between atoms: S_21  and  N_24
REMARK                            x       y       z     vdW  Elec       q    Type
REMARK                         _______ _______ _______ _____ _____    ______ ____
ROOT
ATOM      1  N   UNL     1       2.528   5.437  19.687  0.00  0.00    +0.000 N 
ATOM      2  C   UNL     1       1.292   5.033  20.179  0.00  0.00    +0.000 C 
ATOM      3  O   UNL     1       0.520   5.798  20.766  0.00  0.00    +0.000 OA
ATOM      4  C   UNL     1       0.904   3.582  19.916  0.00  0.00    +0.000 C 
ATOM      5  O   UNL     1       1.826   2.676  19.352  0.00  0.00    +0.000 OA
ATOM      6  C   UNL     1       2.804   3.266  18.603  0.00  0.00    +0.000 A 
ATOM      7  C   UNL     1       3.417   2.424  17.667  0.00  0.00    +0.000 A 
ATOM      8  C   UNL     1       4.418   2.909  16.829  0.00  0.00    +0.000 A 
ATOM      9  C   UNL     1       4.832   4.235  16.961  0.00  0.00    +0.000 A 
ATOM     10  C   UNL     1       4.233   5.075  17.914  0.00  0.00    +0.000 A 
ATOM     11  C   UNL     1       3.206   4.603  18.750  0.00  0.00    +0.000 A 
ENDROOT
BRANCH   9  12
ATOM     12  S   UNL     1       5.943   4.936  15.746  0.00  0.00    +0.000 S 
ATOM     13  O   UNL     1       6.354   3.852  14.879  0.00  0.00    +0.000 OA
ATOM     14  O   UNL     1       5.289   6.111  15.210  0.00  0.00    +0.000 OA
BRANCH  12  15
ATOM     15  N   UNL     1       7.281   5.440  16.620  0.00  0.00    +0.000 NA
ATOM     16  C   UNL     1       7.823   4.623  17.709  0.00  0.00    +0.000 C 
ATOM     17  C   UNL     1       7.733   5.516  18.932  0.00  0.00    +0.000 C 
ATOM     18  C   UNL     1       7.830   6.936  18.400  0.00  0.00    +0.000 C 
ATOM     19  C   UNL     1       7.492   6.862  16.915  0.00  0.00    +0.000 C 
ENDBRANCH  12  15
ENDBRANCH   9  12
BRANCH   1  20
ATOM     20  C   UNL     1       2.904   6.830  19.910  0.00  0.00    +0.000 C 
BRANCH  20  22
ATOM     21  N   UNL     1       1.523   8.836  19.676  0.00  0.00    +0.000 N 
ATOM     22  C   UNL     1       2.156   7.811  18.995  0.00  0.00    +0.000 C 
ATOM     23  O   UNL     1       2.139   7.691  17.774  0.00  0.00    +0.000 OA
ATOM     24  H   UNL     1       2.030   9.148  20.506  0.00  0.00    +0.000 HD
BRANCH  21  25
ATOM     25  C   UNL     1       0.752   9.846  18.970  0.00  0.00    +0.000 C 
BRANCH  25  26
ATOM     26  C   UNL     1      -0.308  10.489  19.869  0.00  0.00    +0.000 C 
BRANCH  26  31
ATOM     27  C   UNL     1      -5.233  11.752  17.029  0.00  0.00    +0.000 C 
ATOM     28  C   UNL     1      -3.949  11.437  17.738  0.00  0.00    +0.000 A 
ATOM     29  C   UNL     1      -3.100  10.426  17.280  0.00  0.00    +0.000 A 
ATOM     30  C   UNL     1      -1.922  10.130  17.964  0.00  0.00    +0.000 A 
ATOM     31  C   UNL     1      -1.570  10.834  19.122  0.00  0.00    +0.000 A 
ATOM     32  C   UNL     1      -2.409  11.857  19.571  0.00  0.00    +0.000 A 
ATOM     33  C   UNL     1      -3.591  12.158  18.886  0.00  0.00    +0.000 A 
ENDBRANCH  26  31
ENDBRANCH  25  26
ENDBRANCH  21  25
ENDBRANCH  20  22
ENDBRANCH   1  20
TORSDOF 7
ENDMDL
MODEL 2
REMARK VINA RESULT:      -8.0      1.621      2.217
REMARK  Name = 
REMARK  8 active torsions:
REMARK  status: ('A' for Active; 'I' for Inactive)
REMARK    1  A    between atoms: C_1  and  C_2
REMARK    2  A    between atoms: C_5  and  C_6
REMARK    3  A    between atoms: C_6  and  C_7
REMARK    4  A    between atoms: C_7  and  N_8
REMARK    5  A    between atoms: C_9  and  C_11
REMARK    6  A    between atoms: C_11  and  N_12
REMARK    7  A    between atoms: C_20  and  S_21
REMARK    8  A    between atoms: S_21  and  N_24
REMARK                            x       y       z     vdW  Elec       q    Type
REMARK                         _______ _______ _______ _____ _____    ______ ____
ROOT
ATOM      1  N   UNL     1       2.519   5.562  19.779  0.00  0.00    +0.000 N 
ATOM      2  C   UNL     1       1.288   5.157  20.283  0.00  0.00    +0.000 C 
ATOM      3  O   UNL     1       0.526   5.919  20.886  0.00  0.00    +0.000 OA
ATOM      4  C   UNL     1       0.893   3.709  20.013  0.00  0.00    +0.000 C 
ATOM      5  O   UNL     1       1.806   2.805  19.428  0.00  0.00    +0.000 OA
ATOM      6  C   UNL     1       2.776   3.400  18.673  0.00  0.00    +0.000 A 
ATOM      7  C   UNL     1       3.375   2.564  17.721  0.00  0.00    +0.000 A 
ATOM      8  C   UNL     1       4.366   3.055  16.875  0.00  0.00    +0.000 A 
ATOM      9  C   UNL     1       4.785   4.378  17.013  0.00  0.00    +0.000 A 
ATOM     10  C   UNL     1       4.201   5.211  17.981  0.00  0.00    +0.000 A 
ATOM     11  C   UNL     1       3.183   4.735  18.825  0.00  0.00    +0.000 A 
ENDROOT
BRANCH   9  12
ATOM     12  S   UNL     1       5.882   5.087  15.791  0.00  0.00    +0.000 S 
ATOM     13  O   UNL     1       6.241   4.020  14.881  0.00  0.00    +0.000 OA
ATOM     14  O   UNL     1       5.247   6.295  15.308  0.00  0.00    +0.000 OA
BRANCH  12  15
ATOM     15  N   UNL     1       7.256   5.528  16.643  0.00  0.00    +0.000 NA
ATOM     16  C   UNL     1       7.807   4.662  17.689  0.00  0.00    +0.000 C 
ATOM     17  C   UNL     1       7.773   5.515  18.942  0.00  0.00    +0.000 C 
ATOM     18  C   UNL     1       7.891   6.950  18.455  0.00  0.00    +0.000 C 
ATOM     19  C   UNL     1       7.511   6.934  16.979  0.00  0.00    +0.000 C 
ENDBRANCH  12  15
ENDBRANCH   9  12
BRANCH   1  20
ATOM     20  C   UNL     1       2.901   6.952  20.009  0.00  0.00    +0.000 C 
BRANCH  20  22
ATOM     21  N   UNL     1       1.260   8.768  19.980  0.00  0.00    +0.000 N 
ATOM     22  C   UNL     1       2.061   7.951  19.200  0.00  0.00    +0.000 C 
ATOM     23  O   UNL     1       2.112   8.016  17.975  0.00  0.00    +0.000 OA
ATOM     24  H   UNL     1       1.683   9.016  20.876  0.00  0.00    +0.000 HD
BRANCH  21  25
ATOM     25  C   UNL     1       0.385   9.760  19.380  0.00  0.00    +0.000 C 
BRANCH  25  26
ATOM     26  C   UNL     1       0.585  11.147  19.996  0.00  0.00    +0.000 C 
BRANCH  26  31
ATOM     27  C   UNL     1      -3.613  12.438  23.821  0.00  0.00    +0.000 C 
ATOM     28  C   UNL     1      -2.521  12.133  22.838  0.00  0.00    +0.000 A 
ATOM     29  C   UNL     1      -2.520  12.702  21.562  0.00  0.00    +0.000 A 
ATOM     30  C   UNL     1      -1.510  12.389  20.651  0.00  0.00    +0.000 A 
ATOM     31  C   UNL     1      -0.486  11.499  20.995  0.00  0.00    +0.000 A 
ATOM     32  C   UNL     1      -0.477  10.943  22.278  0.00  0.00    +0.000 A 
ATOM     33  C   UNL     1      -1.487  11.256  23.194  0.00  0.00    +0.000 A 
ENDBRANCH  26  31
ENDBRANCH  25  26
ENDBRANCH  21  25
ENDBRANCH  20  22
ENDBRANCH   1  20
TORSDOF 7
ENDMDL
MODEL 3
REMARK VINA RESULT:      -7.7      2.124      2.633
REMARK  Name = 
REMARK  8 active torsions:
REMARK  status: ('A' for Active; 'I' for Inactive)
REMARK    1  A    between atoms: C_1  and  C_2
REMARK    2  A    between atoms: C_5  and  C_6
REMARK    3  A    between atoms: C_6  and  C_7
REMARK    4  A    between atoms: C_7  and  N_8
REMARK    5  A    between atoms: C_9  and  C_11
REMARK    6  A    between atoms: C_11  and  N_12
REMARK    7  A    between atoms: C_20  and  S_21
REMARK    8  A    between atoms: S_21  and  N_24
REMARK                            x       y       z     vdW  Elec       q    Type
REMARK                         _______ _______ _______ _____ _____    ______ ____
ROOT
ATOM      1  N   UNL     1       2.634   4.367  19.649  0.00  0.00    +0.000 N 
ATOM      2  C   UNL     1       1.328   3.894  19.706  0.00  0.00    +0.000 C 
ATOM      3  O   UNL     1       0.464   4.397  20.432  0.00  0.00    +0.000 OA
ATOM      4  C   UNL     1       0.991   2.731  18.780  0.00  0.00    +0.000 C 
ATOM      5  O   UNL     1       1.999   2.080  18.037  0.00  0.00    +0.000 OA
ATOM      6  C   UNL     1       3.100   2.851  17.791  0.00  0.00    +0.000 A 
ATOM      7  C   UNL     1       3.871   2.442  16.697  0.00  0.00    +0.000 A 
ATOM      8  C   UNL     1       5.011   3.154  16.330  0.00  0.00    +0.000 A 
ATOM      9  C   UNL     1       5.396   4.258  17.091  0.00  0.00    +0.000 A 
ATOM     10  C   UNL     1       4.635   4.657  18.202  0.00  0.00    +0.000 A 
ATOM     11  C   UNL     1       3.471   3.960  18.568  0.00  0.00    +0.000 A 
ENDROOT
BRANCH   9  12
ATOM     12  S   UNL     1       6.714   5.316  16.502  0.00  0.00    +0.000 S 
ATOM     13  O   UNL     1       7.928   4.531  16.535  0.00  0.00    +0.000 OA
ATOM     14  O   UNL     1       6.248   5.918  15.269  0.00  0.00    +0.000 OA
BRANCH  12  15
ATOM     15  N   UNL     1       6.845   6.528  17.653  0.00  0.00    +0.000 NA
ATOM     16  C   UNL     1       6.582   7.928  17.309  0.00  0.00    +0.000 C 
ATOM     17  C   UNL     1       7.881   8.644  17.621  0.00  0.00    +0.000 C 
ATOM     18  C   UNL     1       8.530   7.833  18.731  0.00  0.00    +0.000 C 
ATOM     19  C   UNL     1       7.871   6.459  18.700  0.00  0.00    +0.000 C 
ENDBRANCH  12  15
ENDBRANCH   9  12
BRANCH   1  20
ATOM     20  C   UNL     1       2.966   5.496  20.513  0.00  0.00    +0.000 C 
BRANCH  20  22
ATOM     21  N   UNL     1       1.506   7.382  21.058  0.00  0.00    +0.000 N 
ATOM     22  C   UNL     1       2.296   6.807  20.078  0.00  0.00    +0.000 C 
ATOM     23  O   UNL     1       2.464   7.295  18.964  0.00  0.00    +0.000 OA
ATOM     24  H   UNL     1       1.867   7.246  22.004  0.00  0.00    +0.000 HD
BRANCH  21  25
ATOM     25  C   UNL     1       0.781   8.618  20.813  0.00  0.00    +0.000 C 
BRANCH  25  26
ATOM     26  C   UNL     1       0.929   9.607  21.973  0.00  0.00    +0.000 C 
BRANCH  26  31
ATOM     27  C   UNL     1      -3.309  13.597  22.176  0.00  0.00    +0.000 C 
ATOM     28  C   UNL     1      -2.237  12.548  22.121  0.00  0.00    +0.000 A 
ATOM     29  C   UNL     1      -2.059  11.643  23.170  0.00  0.00    +0.000 A 
ATOM     30  C   UNL     1      -1.042  10.690  23.114  0.00  0.00    +0.000 A 
ATOM     31  C   UNL     1      -0.182  10.624  22.012  0.00  0.00    +0.000 A 
ATOM     32  C   UNL     1      -0.371  11.517  20.954  0.00  0.00    +0.000 A 
ATOM     33  C   UNL     1      -1.391  12.473  21.006  0.00  0.00    +0.000 A 
ENDBRANCH  26  31
ENDBRANCH  25  26
ENDBRANCH  21  25
ENDBRANCH  20  22
ENDBRANCH   1  20
TORSDOF 7
ENDMDL
MODEL 4
REMARK VINA RESULT:      -7.4      1.956      2.693
REMARK  Name = 
REMARK  8 active torsions:
REMARK  status: ('A' for Active; 'I' for Inactive)
REMARK    1  A    between atoms: C_1  and  C_2
REMARK    2  A    between atoms: C_5  and  C_6
REMARK    3  A    between atoms: C_6  and  C_7
REMARK    4  A    between atoms: C_7  and  N_8
REMARK    5  A    between atoms: C_9  and  C_11
REMARK    6  A    between atoms: C_11  and  N_12
REMARK    7  A    between atoms: C_20  and  S_21
REMARK    8  A    between atoms: S_21  and  N_24
REMARK                            x       y       z     vdW  Elec       q    Type
REMARK                         _______ _______ _______ _____ _____    ______ ____
ROOT
ATOM      1  N   UNL     1       2.708   3.815  20.133  0.00  0.00    +0.000 N 
ATOM      2  C   UNL     1       1.788   2.787  20.309  0.00  0.00    +0.000 C 
ATOM      3  O   UNL     1       0.949   2.785  21.215  0.00  0.00    +0.000 OA
ATOM      4  C   UNL     1       1.835   1.659  19.284  0.00  0.00    +0.000 C 
ATOM      5  O   UNL     1       2.864   1.597  18.320  0.00  0.00    +0.000 OA
ATOM      6  C   UNL     1       3.434   2.804  18.032  0.00  0.00    +0.000 A 
ATOM      7  C   UNL     1       4.081   2.867  16.791  0.00  0.00    +0.000 A 
ATOM      8  C   UNL     1       4.687   4.048  16.370  0.00  0.00    +0.000 A 
ATOM      9  C   UNL     1       4.678   5.156  17.217  0.00  0.00    +0.000 A 
ATOM     10  C   UNL     1       4.048   5.089  18.471  0.00  0.00    +0.000 A 
ATOM     11  C   UNL     1       3.413   3.909  18.897  0.00  0.00    +0.000 A 
ENDROOT
BRANCH   9  12
ATOM     12  S   UNL     1       5.243   6.739  16.602  0.00  0.00    +0.000 S 
ATOM     13  O   UNL     1       5.125   6.695  15.161  0.00  0.00    +0.000 OA
ATOM     14  O   UNL     1       4.559   7.756  17.374  0.00  0.00    +0.000 OA
BRANCH  12  15
ATOM     15  N   UNL     1       6.872   6.800  16.990  0.00  0.00    +0.000 NA
ATOM     16  C   UNL     1       7.522   5.692  17.694  0.00  0.00    +0.000 C 
ATOM     17  C   UNL     1       8.053   6.316  18.971  0.00  0.00    +0.000 C 
ATOM     18  C   UNL     1       8.314   7.774  18.628  0.00  0.00    +0.000 C 
ATOM     19  C   UNL     1       7.505   8.068  17.370  0.00  0.00    +0.000 C 
ENDBRANCH  12  15
ENDBRANCH   9  12
BRANCH   1  20
ATOM     20  C   UNL     1       2.660   4.914  21.093  0.00  0.00    +0.000 C 
BRANCH  20  22
ATOM     21  N   UNL     1       2.092   7.281  20.840  0.00  0.00    +0.000 N 
ATOM     22  C   UNL     1       1.619   5.984  20.734  0.00  0.00    +0.000 C 
ATOM     23  O   UNL     1       0.479   5.701  20.375  0.00  0.00    +0.000 OA
ATOM     24  H   UNL     1       3.077   7.377  20.588  0.00  0.00    +0.000 HD
BRANCH  21  25
ATOM     25  C   UNL     1       1.236   8.420  20.556  0.00  0.00    +0.000 C 
BRANCH  25  26
ATOM     26  C   UNL     1       1.472   8.976  19.149  0.00  0.00    +0.000 C 
BRANCH  26  31
ATOM     27  C   UNL     1      -0.130  14.559  18.725  0.00  0.00    +0.000 C 
ATOM     28  C   UNL     1       0.264  13.114  18.813  0.00  0.00    +0.000 A 
ATOM     29  C   UNL     1      -0.614  12.157  19.329  0.00  0.00    +0.000 A 
ATOM     30  C   UNL     1      -0.224  10.822  19.427  0.00  0.00    +0.000 A 
ATOM     31  C   UNL     1       1.050  10.417  19.015  0.00  0.00    +0.000 A 
ATOM     32  C   UNL     1       1.923  11.369  18.483  0.00  0.00    +0.000 A 
ATOM     33  C   UNL     1       1.534  12.709  18.382  0.00  0.00    +0.000 A 
ENDBRANCH  26  31
ENDBRANCH  25  26
ENDBRANCH  21  25
ENDBRANCH  20  22
ENDBRANCH   1  20
TORSDOF 7
ENDMDL
MODEL 5
REMARK VINA RESULT:      -7.4      1.736      2.344
REMARK  Name = 
REMARK  8 active torsions:
REMARK  status: ('A' for Active; 'I' for Inactive)
REMARK    1  A    between atoms: C_1  and  C_2
REMARK    2  A    between atoms: C_5  and  C_6
REMARK    3  A    between atoms: C_6  and  C_7
REMARK    4  A    between atoms: C_7  and  N_8
REMARK    5  A    between atoms: C_9  and  C_11
REMARK    6  A    between atoms: C_11  and  N_12
REMARK    7  A    between atoms: C_20  and  S_21
REMARK    8  A    between atoms: S_21  and  N_24
REMARK                            x       y       z     vdW  Elec       q    Type
REMARK                         _______ _______ _______ _____ _____    ______ ____
ROOT
ATOM      1  N   UNL     1       2.564   4.687  19.575  0.00  0.00    +0.000 N 
ATOM      2  C   UNL     1       1.332   4.134  19.905  0.00  0.00    +0.000 C 
ATOM      3  O   UNL     1       0.570   4.640  20.735  0.00  0.00    +0.000 OA
ATOM      4  C   UNL     1       0.937   2.871  19.148  0.00  0.00    +0.000 C 
ATOM      5  O   UNL     1       1.850   2.226  18.286  0.00  0.00    +0.000 OA
ATOM      6  C   UNL     1       2.821   3.045  17.786  0.00  0.00    +0.000 A 
ATOM      7  C   UNL     1       3.421   2.592  16.604  0.00  0.00    +0.000 A 
ATOM      8  C   UNL     1       4.414   3.344  15.983  0.00  0.00    +0.000 A 
ATOM      9  C   UNL     1       4.833   4.536  16.573  0.00  0.00    +0.000 A 
ATOM     10  C   UNL     1       4.249   4.982  17.770  0.00  0.00    +0.000 A 
ATOM     11  C   UNL     1       3.229   4.243  18.394  0.00  0.00    +0.000 A 
ENDROOT
BRANCH   9  12
ATOM     12  S   UNL     1       5.934   5.625  15.674  0.00  0.00    +0.000 S 
ATOM     13  O   UNL     1       6.316   4.929  14.464  0.00  0.00    +0.000 OA
ATOM     14  O   UNL     1       5.286   6.919  15.616  0.00  0.00    +0.000 OA
BRANCH  12  15
ATOM     15  N   UNL     1       7.292   5.768  16.645  0.00  0.00    +0.000 NA
ATOM     16  C   UNL     1       7.719   4.668  17.514  0.00  0.00    +0.000 C 
ATOM     17  C   UNL     1       7.689   5.256  18.910  0.00  0.00    +0.000 C 
ATOM     18  C   UNL     1       7.945   6.743  18.726  0.00  0.00    +0.000 C 
ATOM     19  C   UNL     1       7.640   7.052  17.264  0.00  0.00    +0.000 C 
ENDBRANCH  12  15
ENDBRANCH   9  12
BRANCH   1  20
ATOM     20  C   UNL     1       2.947   5.910  20.275  0.00  0.00    +0.000 C 
BRANCH  20  22
ATOM     21  N   UNL     1       1.797   8.019  20.740  0.00  0.00    +0.000 N 
ATOM     22  C   UNL     1       2.229   7.160  19.744  0.00  0.00    +0.000 C 
ATOM     23  O   UNL     1       2.069   7.370  18.545  0.00  0.00    +0.000 OA
ATOM     24  H   UNL     1       2.422   8.055  21.547  0.00  0.00    +0.000 HD
BRANCH  21  25
ATOM     25  C   UNL     1       1.081   9.243  20.420  0.00  0.00    +0.000 C 
BRANCH  25  26
ATOM     26  C   UNL     1      -0.323   9.261  21.030  0.00  0.00    +0.000 C 
BRANCH  26  31
ATOM     27  C   UNL     1      -2.043  14.671  22.334  0.00  0.00    +0.000 C 
ATOM     28  C   UNL     1      -1.624  13.267  22.010  0.00  0.00    +0.000 A 
ATOM     29  C   UNL     1      -1.253  12.373  23.019  0.00  0.00    +0.000 A 
ATOM     30  C   UNL     1      -0.844  11.079  22.699  0.00  0.00    +0.000 A 
ATOM     31  C   UNL     1      -0.791  10.653  21.367  0.00  0.00    +0.000 A 
ATOM     32  C   UNL     1      -1.179  11.540  20.359  0.00  0.00    +0.000 A 
ATOM     33  C   UNL     1      -1.592  12.838  20.676  0.00  0.00    +0.000 A 
ENDBRANCH  26  31
ENDBRANCH  25  26
ENDBRANCH  21  25
ENDBRANCH  20  22
ENDBRANCH   1  20
TORSDOF 7
ENDMDL
MODEL 6
REMARK VINA RESULT:      -7.3      1.766      2.240
REMARK  Name = 
REMARK  8 active torsions:
REMARK  status: ('A' for Active; 'I' for Inactive)
REMARK    1  A    between atoms: C_1  and  C_2
REMARK    2  A    between atoms: C_5  and  C_6
REMARK    3  A    between atoms: C_6  and  C_7
REMARK    4  A    between atoms: C_7  and  N_8
REMARK    5  A    between atoms: C_9  and  C_11
REMARK    6  A    between atoms: C_11  and  N_12
REMARK    7  A    between atoms: C_20  and  S_21
REMARK    8  A    between atoms: S_21  and  N_24
REMARK                            x       y       z     vdW  Elec       q    Type
REMARK                         _______ _______ _______ _____ _____    ______ ____
ROOT
ATOM      1  N   UNL     1       2.486   5.407  19.755  0.00  0.00    +0.000 N 
ATOM      2  C   UNL     1       1.259   4.948  20.220  0.00  0.00    +0.000 C 
ATOM      3  O   UNL     1       0.492   5.645  20.892  0.00  0.00    +0.000 OA
ATOM      4  C   UNL     1       0.874   3.530  19.815  0.00  0.00    +0.000 C 
ATOM      5  O   UNL     1       1.792   2.691  19.149  0.00  0.00    +0.000 OA
ATOM      6  C   UNL     1       2.757   3.360  18.452  0.00  0.00    +0.000 A 
ATOM      7  C   UNL     1       3.360   2.621  17.426  0.00  0.00    +0.000 A 
ATOM      8  C   UNL     1       4.348   3.196  16.629  0.00  0.00    +0.000 A 
ATOM      9  C   UNL     1       4.757   4.503  16.890  0.00  0.00    +0.000 A 
ATOM     10  C   UNL     1       4.169   5.238  17.932  0.00  0.00    +0.000 A 
ATOM     11  C   UNL     1       3.155   4.678  18.728  0.00  0.00    +0.000 A 
ENDROOT
BRANCH   9  12
ATOM     12  S   UNL     1       5.849   5.331  15.738  0.00  0.00    +0.000 S 
ATOM     13  O   UNL     1       6.182   4.368  14.711  0.00  0.00    +0.000 OA
ATOM     14  O   UNL     1       5.222   6.592  15.401  0.00  0.00    +0.000 OA
BRANCH  12  15
ATOM     15  N   UNL     1       7.238   5.659  16.616  0.00  0.00    +0.000 NA
ATOM     16  C   UNL     1       7.745   4.712  17.612  0.00  0.00    +0.000 C 
ATOM     17  C   UNL     1       7.746   5.493  18.911  0.00  0.00    +0.000 C 
ATOM     18  C   UNL     1       7.932   6.946  18.505  0.00  0.00    +0.000 C 
ATOM     19  C   UNL     1       7.557   7.031  17.030  0.00  0.00    +0.000 C 
ENDBRANCH  12  15
ENDBRANCH   9  12
BRANCH   1  20
ATOM     20  C   UNL     1       2.859   6.773  20.114  0.00  0.00    +0.000 C 
BRANCH  20  22
ATOM     21  N   UNL     1       1.276   8.631  20.277  0.00  0.00    +0.000 N 
ATOM     22  C   UNL     1       2.006   7.837  19.409  0.00  0.00    +0.000 C 
ATOM     23  O   UNL     1       1.991   7.967  18.188  0.00  0.00    +0.000 OA
ATOM     24  H   UNL     1       1.755   8.818  21.159  0.00  0.00    +0.000 HD
BRANCH  21  25
ATOM     25  C   UNL     1       0.398   9.678  19.781  0.00  0.00    +0.000 C 
BRANCH  25  26
ATOM     26  C   UNL     1       0.101  10.730  20.854  0.00  0.00    +0.000 C 
BRANCH  26  31
ATOM     27  C   UNL     1      -0.352  16.104  18.654  0.00  0.00    +0.000 C 
ATOM     28  C   UNL     1      -0.263  14.721  19.230  0.00  0.00    +0.000 A 
ATOM     29  C   UNL     1      -0.262  14.514  20.612  0.00  0.00    +0.000 A 
ATOM     30  C   UNL     1      -0.154  13.224  21.131  0.00  0.00    +0.000 A 
ATOM     31  C   UNL     1      -0.041  12.117  20.282  0.00  0.00    +0.000 A 
ATOM     32  C   UNL     1      -0.060  12.322  18.900  0.00  0.00    +0.000 A 
ATOM     33  C   UNL     1      -0.169  13.614  18.375  0.00  0.00    +0.000 A 
ENDBRANCH  26  31
ENDBRANCH  25  26
ENDBRANCH  21  25
ENDBRANCH  20  22
ENDBRANCH   1  20
TORSDOF 7
ENDMDL
MODEL 7
REMARK VINA RESULT:      -7.3      4.799      9.763
REMARK  Name = 
REMARK  8 active torsions:
REMARK  status: ('A' for Active; 'I' for Inactive)
REMARK    1  A    between atoms: C_1  and  C_2
REMARK    2  A    between atoms: C_5  and  C_6
REMARK    3  A    between atoms: C_6  and  C_7
REMARK    4  A    between atoms: C_7  and  N_8
REMARK    5  A    between atoms: C_9  and  C_11
REMARK    6  A    between atoms: C_11  and  N_12
REMARK    7  A    between atoms: C_20  and  S_21
REMARK    8  A    between atoms: S_21  and  N_24
REMARK                            x       y       z     vdW  Elec       q    Type
REMARK                         _______ _______ _______ _____ _____    ______ ____
ROOT
ATOM      1  N   UNL     1      -0.675  11.021  20.539  0.00  0.00    +0.000 N 
ATOM      2  C   UNL     1      -0.476   9.960  21.416  0.00  0.00    +0.000 C 
ATOM      3  O   UNL     1      -0.181   8.822  21.036  0.00  0.00    +0.000 OA
ATOM      4  C   UNL     1      -0.597  10.282  22.901  0.00  0.00    +0.000 C 
ATOM      5  O   UNL     1      -1.047  11.547  23.335  0.00  0.00    +0.000 OA
ATOM      6  C   UNL     1      -0.842  12.553  22.434  0.00  0.00    +0.000 A 
ATOM      7  C   UNL     1      -0.819  13.840  22.985  0.00  0.00    +0.000 A 
ATOM      8  C   UNL     1      -0.600  14.951  22.174  0.00  0.00    +0.000 A 
ATOM      9  C   UNL     1      -0.444  14.770  20.800  0.00  0.00    +0.000 A 
ATOM     10  C   UNL     1      -0.489  13.482  20.242  0.00  0.00    +0.000 A 
ATOM     11  C   UNL     1      -0.685  12.351  21.053  0.00  0.00    +0.000 A 
ENDROOT
BRANCH   9  12
ATOM     12  S   UNL     1       0.066  16.151  19.782  0.00  0.00    +0.000 S 
ATOM     13  O   UNL     1      -0.419  15.888  18.445  0.00  0.00    +0.000 OA
ATOM     14  O   UNL     1      -0.315  17.356  20.489  0.00  0.00    +0.000 OA
BRANCH  12  15
ATOM     15  N   UNL     1       1.740  16.074  19.753  0.00  0.00    +0.000 NA
ATOM     16  C   UNL     1       2.436  15.037  18.987  0.00  0.00    +0.000 C 
ATOM     17  C   UNL     1       3.254  14.289  20.021  0.00  0.00    +0.000 C 
ATOM     18  C   UNL     1       3.547  15.304  21.113  0.00  0.00    +0.000 C 
ATOM     19  C   UNL     1       2.528  16.424  20.941  0.00  0.00    +0.000 C 
ENDBRANCH  12  15
ENDBRANCH   9  12
BRANCH   1  20
ATOM     20  C   UNL     1      -0.539  10.733  19.114  0.00  0.00    +0.000 C 
BRANCH  20  22
ATOM     21  N   UNL     1       1.048   9.100  18.220  0.00  0.00    +0.000 N 
ATOM     22  C   UNL     1       0.899  10.389  18.702  0.00  0.00    +0.000 C 
ATOM     23  O   UNL     1       1.821  11.196  18.787  0.00  0.00    +0.000 OA
ATOM     24  H   UNL     1       0.239   8.766  17.694  0.00  0.00    +0.000 HD
BRANCH  21  25
ATOM     25  C   UNL     1       2.346   8.598  17.801  0.00  0.00    +0.000 C 
BRANCH  25  26
ATOM     26  C   UNL     1       2.712   7.294  18.515  0.00  0.00    +0.000 C 
BRANCH  26  31
ATOM     27  C   UNL     1       6.027   3.834  15.203  0.00  0.00    +0.000 C 
ATOM     28  C   UNL     1       5.186   4.715  16.080  0.00  0.00    +0.000 A 
ATOM     29  C   UNL     1       4.202   4.176  16.913  0.00  0.00    +0.000 A 
ATOM     30  C   UNL     1       3.412   5.010  17.704  0.00  0.00    +0.000 A 
ATOM     31  C   UNL     1       3.587   6.399  17.676  0.00  0.00    +0.000 A 
ATOM     32  C   UNL     1       4.583   6.937  16.857  0.00  0.00    +0.000 A 
ATOM     33  C   UNL     1       5.378   6.103  16.064  0.00  0.00    +0.000 A 
ENDBRANCH  26  31
ENDBRANCH  25  26
ENDBRANCH  21  25
ENDBRANCH  20  22
ENDBRANCH   1  20
TORSDOF 7
ENDMDL
MODEL 8
REMARK VINA RESULT:      -7.3      4.270     10.594
REMARK  Name = 
REMARK  8 active torsions:
REMARK  status: ('A' for Active; 'I' for Inactive)
REMARK    1  A    between atoms: C_1  and  C_2
REMARK    2  A    between atoms: C_5  and  C_6
REMARK    3  A    between atoms: C_6  and  C_7
REMARK    4  A    between atoms: C_7  and  N_8
REMARK    5  A    between atoms: C_9  and  C_11
REMARK    6  A    between atoms: C_11  and  N_12
REMARK    7  A    between atoms: C_20  and  S_21
REMARK    8  A    between atoms: S_21  and  N_24
REMARK                            x       y       z     vdW  Elec       q    Type
REMARK                         _______ _______ _______ _____ _____    ______ ____
ROOT
ATOM      1  N   UNL     1       1.140  10.908  19.530  0.00  0.00    +0.000 N 
ATOM      2  C   UNL     1       1.882  11.137  18.376  0.00  0.00    +0.000 C 
ATOM      3  O   UNL     1       1.958  10.317  17.455  0.00  0.00    +0.000 OA
ATOM      4  C   UNL     1       2.574  12.491  18.278  0.00  0.00    +0.000 C 
ATOM      5  O   UNL     1       2.586  13.381  19.373  0.00  0.00    +0.000 OA
ATOM      6  C   UNL     1       1.551  13.206  20.247  0.00  0.00    +0.000 A 
ATOM      7  C   UNL     1       1.256  14.323  21.039  0.00  0.00    +0.000 A 
ATOM      8  C   UNL     1       0.211  14.280  21.958  0.00  0.00    +0.000 A 
ATOM      9  C   UNL     1      -0.513  13.098  22.110  0.00  0.00    +0.000 A 
ATOM     10  C   UNL     1      -0.205  11.970  21.332  0.00  0.00    +0.000 A 
ATOM     11  C   UNL     1       0.833  12.008  20.384  0.00  0.00    +0.000 A 
ENDROOT
BRANCH   9  12
ATOM     12  S   UNL     1      -1.998  13.096  23.110  0.00  0.00    +0.000 S 
ATOM     13  O   UNL     1      -2.261  11.718  23.466  0.00  0.00    +0.000 OA
ATOM     14  O   UNL     1      -1.816  14.107  24.131  0.00  0.00    +0.000 OA
BRANCH  12  15
ATOM     15  N   UNL     1      -3.216  13.610  22.081  0.00  0.00    +0.000 NA
ATOM     16  C   UNL     1      -4.350  14.390  22.583  0.00  0.00    +0.000 C 
ATOM     17  C   UNL     1      -5.566  13.551  22.245  0.00  0.00    +0.000 C 
ATOM     18  C   UNL     1      -5.173  12.753  21.011  0.00  0.00    +0.000 C 
ATOM     19  C   UNL     1      -3.650  12.774  20.955  0.00  0.00    +0.000 C 
ENDBRANCH  12  15
ENDBRANCH   9  12
BRANCH   1  20
ATOM     20  C   UNL     1       0.451   9.625  19.629  0.00  0.00    +0.000 C 
BRANCH  20  22
ATOM     21  N   UNL     1       1.950   7.746  19.168  0.00  0.00    +0.000 N 
ATOM     22  C   UNL     1       1.347   8.498  20.162  0.00  0.00    +0.000 C 
ATOM     23  O   UNL     1       1.514   8.300  21.363  0.00  0.00    +0.000 OA
ATOM     24  H   UNL     1       2.198   8.290  18.340  0.00  0.00    +0.000 HD
BRANCH  21  25
ATOM     25  C   UNL     1       2.818   6.626  19.492  0.00  0.00    +0.000 C 
BRANCH  25  26
ATOM     26  C   UNL     1       2.599   5.441  18.548  0.00  0.00    +0.000 C 
BRANCH  26  31
ATOM     27  C   UNL     1       6.846   4.824  14.611  0.00  0.00    +0.000 C 
ATOM     28  C   UNL     1       5.769   4.971  15.645  0.00  0.00    +0.000 A 
ATOM     29  C   UNL     1       5.104   3.854  16.159  0.00  0.00    +0.000 A 
ATOM     30  C   UNL     1       4.089   4.009  17.102  0.00  0.00    +0.000 A 
ATOM     31  C   UNL     1       3.714   5.282  17.548  0.00  0.00    +0.000 A 
ATOM     32  C   UNL     1       4.390   6.398  17.048  0.00  0.00    +0.000 A 
ATOM     33  C   UNL     1       5.410   6.246  16.103  0.00  0.00    +0.000 A 
ENDBRANCH  26  31
ENDBRANCH  25  26
ENDBRANCH  21  25
ENDBRANCH  20  22
ENDBRANCH   1  20
TORSDOF 7
ENDMDL
MODEL 9
REMARK VINA RESULT:      -7.3      4.832     11.067
REMARK  Name = 
REMARK  8 active torsions:
REMARK  status: ('A' for Active; 'I' for Inactive)
REMARK    1  A    between atoms: C_1  and  C_2
REMARK    2  A    between atoms: C_5  and  C_6
REMARK    3  A    between atoms: C_6  and  C_7
REMARK    4  A    between atoms: C_7  and  N_8
REMARK    5  A    between atoms: C_9  and  C_11
REMARK    6  A    between atoms: C_11  and  N_12
REMARK    7  A    between atoms: C_20  and  S_21
REMARK    8  A    between atoms: S_21  and  N_24
REMARK                            x       y       z     vdW  Elec       q    Type
REMARK                         _______ _______ _______ _____ _____    ______ ____
ROOT
ATOM      1  N   UNL     1      -2.525  11.917  18.178  0.00  0.00    +0.000 N 
ATOM      2  C   UNL     1      -3.028  11.301  17.037  0.00  0.00    +0.000 C 
ATOM      3  O   UNL     1      -2.305  10.782  16.181  0.00  0.00    +0.000 OA
ATOM      4  C   UNL     1      -4.547  11.256  16.910  0.00  0.00    +0.000 C 
ATOM      5  O   UNL     1      -5.372  11.947  17.822  0.00  0.00    +0.000 OA
ATOM      6  C   UNL     1      -4.796  12.168  19.041  0.00  0.00    +0.000 A 
ATOM      7  C   UNL     1      -5.701  12.396  20.085  0.00  0.00    +0.000 A 
ATOM      8  C   UNL     1      -5.241  12.618  21.381  0.00  0.00    +0.000 A 
ATOM      9  C   UNL     1      -3.867  12.649  21.620  0.00  0.00    +0.000 A 
ATOM     10  C   UNL     1      -2.958  12.442  20.569  0.00  0.00    +0.000 A 
ATOM     11  C   UNL     1      -3.410  12.195  19.261  0.00  0.00    +0.000 A 
ENDROOT
BRANCH   9  12
ATOM     12  S   UNL     1      -3.266  12.699  23.304  0.00  0.00    +0.000 S 
ATOM     13  O   UNL     1      -4.368  12.302  24.154  0.00  0.00    +0.000 OA
ATOM     14  O   UNL     1      -2.013  11.973  23.323  0.00  0.00    +0.000 OA
BRANCH  12  15
ATOM     15  N   UNL     1      -2.935  14.314  23.601  0.00  0.00    +0.000 NA
ATOM     16  C   UNL     1      -3.087  14.883  24.943  0.00  0.00    +0.000 C 
ATOM     17  C   UNL     1      -4.109  15.989  24.771  0.00  0.00    +0.000 C 
ATOM     18  C   UNL     1      -3.957  16.457  23.333  0.00  0.00    +0.000 C 
ATOM     19  C   UNL     1      -3.233  15.338  22.593  0.00  0.00    +0.000 C 
ENDBRANCH  12  15
ENDBRANCH   9  12
BRANCH   1  20
ATOM     20  C   UNL     1      -1.073  11.948  18.325  0.00  0.00    +0.000 C 
BRANCH  20  22
ATOM     21  N   UNL     1       0.673  10.236  18.230  0.00  0.00    +0.000 N 
ATOM     22  C   UNL     1      -0.493  10.632  18.863  0.00  0.00    +0.000 C 
ATOM     23  O   UNL     1      -1.019  10.004  19.778  0.00  0.00    +0.000 OA
ATOM     24  H   UNL     1       1.269  11.017  17.949  0.00  0.00    +0.000 HD
BRANCH  21  25
ATOM     25  C   UNL     1       1.350   9.004  18.598  0.00  0.00    +0.000 C 
BRANCH  25  26
ATOM     26  C   UNL     1       2.660   8.819  17.829  0.00  0.00    +0.000 C 
BRANCH  26  31
ATOM     27  C   UNL     1       4.241   3.231  17.393  0.00  0.00    +0.000 C 
ATOM     28  C   UNL     1       3.830   4.671  17.476  0.00  0.00    +0.000 A 
ATOM     29  C   UNL     1       4.640   5.684  16.957  0.00  0.00    +0.000 A 
ATOM     30  C   UNL     1       4.255   7.020  17.064  0.00  0.00    +0.000 A 
ATOM     31  C   UNL     1       3.056   7.371  17.695  0.00  0.00    +0.000 A 
ATOM     32  C   UNL     1       2.236   6.358  18.199  0.00  0.00    +0.000 A 
ATOM     33  C   UNL     1       2.619   5.016  18.092  0.00  0.00    +0.000 A 
ENDBRANCH  26  31
ENDBRANCH  25  26
ENDBRANCH  21  25
ENDBRANCH  20  22
ENDBRANCH   1  20
TORSDOF 7
ENDMDL
