MODEL 1
REMARK VINA RESULT:      -7.2      0.000      0.000
REMARK  Name = 
REMARK  9 active torsions:
REMARK  status: ('A' for Active; 'I' for Inactive)
REMARK    1  A    between atoms: C_1  and  C_2
REMARK    2  A    between atoms: C_2  and  C_3
REMARK    3  A    between atoms: C_3  and  C_4
REMARK    4  A    between atoms: C_3  and  O_6
REMARK    5  A    between atoms: C_4  and  C_5
REMARK    6  A    between atoms: O_6  and  C_7
REMARK    7  A    between atoms: C_7  and  C_9
REMARK    8  A    between atoms: C_9  and  C_10
REMARK    9  A    between atoms: C_11  and  C_12
REMARK                            x       y       z     vdW  Elec       q    Type
REMARK                         _______ _______ _______ _____ _____    ______ ____
ROOT
ATOM      1  C   UNL     1       2.503   6.898  19.716  0.00  0.00    +0.000 A 
ATOM      2  C   UNL     1       2.859   7.125  18.385  0.00  0.00    +0.000 A 
ATOM      3  N   UNL     1       2.299   8.287  17.912  0.00  0.00    +0.000 NA
ATOM      4  C   UNL     1       1.573   8.761  18.897  0.00  0.00    +0.000 A 
ATOM      5  C   UNL     1       0.718   9.901  18.959  0.00  0.00    +0.000 A 
ATOM      6  C   UNL     1       0.119  10.231  20.111  0.00  0.00    +0.000 A 
ATOM      7  C   UNL     1       0.351   9.455  21.323  0.00  0.00    +0.000 A 
ATOM      8 CL   UNL     1      -0.396   9.957  22.784  0.00  0.00    +0.000 Cl
ATOM      9  C   UNL     1       1.110   8.349  21.263  0.00  0.00    +0.000 A 
ATOM     10  N   UNL     1       1.708   7.990  20.047  0.00  0.00    +0.000 N 
ENDROOT
BRANCH   2  11
ATOM     11  C   UNL     1       3.683   6.298  17.515  0.00  0.00    +0.000 A 
ATOM     12  C   UNL     1       4.709   6.859  16.763  0.00  0.00    +0.000 A 
ATOM     13  C   UNL     1       5.482   6.076  15.896  0.00  0.00    +0.000 A 
ATOM     14  C   UNL     1       5.268   4.713  15.808  0.00  0.00    +0.000 A 
ATOM     15 CL   UNL     1       6.210   3.783  14.711  0.00  0.00    +0.000 Cl
ATOM     16  C   UNL     1       4.309   4.116  16.614  0.00  0.00    +0.000 A 
ATOM     17  C   UNL     1       3.520   4.906  17.466  0.00  0.00    +0.000 A 
ENDBRANCH   2  11
BRANCH   1  18
ATOM     18  C   UNL     1       2.819   5.786  20.690  0.00  0.00    +0.000 C 
BRANCH  18  19
ATOM     19  C   UNL     1       1.687   4.757  20.756  0.00  0.00    +0.000 C 
ATOM     20  O   UNL     1       0.608   4.872  20.194  0.00  0.00    +0.000 OA
BRANCH  19  21
ATOM     21  O   UNL     1       2.053   3.685  21.520  0.00  0.00    +0.000 OA
BRANCH  21  22
ATOM     22  C   UNL     1       2.428   2.464  20.824  0.00  0.00    +0.000 C 
BRANCH  22  24
ATOM     23  C   UNL     1       1.847   1.957  18.420  0.00  0.00    +0.000 C 
ATOM     24  C   UNL     1       1.318   2.128  19.815  0.00  0.00    +0.000 C 
ENDBRANCH  22  24
BRANCH  22  25
ATOM     25  C   UNL     1       3.755   2.637  20.070  0.00  0.00    +0.000 C 
ATOM     26  C   UNL     1       4.859   1.733  20.613  0.00  0.00    +0.000 C 
ENDBRANCH  22  25
ENDBRANCH  21  22
ENDBRANCH  19  21
ENDBRANCH  18  19
ENDBRANCH   1  18
TORSDOF 7
ENDMDL
MODEL 2
REMARK VINA RESULT:      -7.0      2.600      6.279
REMARK  Name = 
REMARK  9 active torsions:
REMARK  status: ('A' for Active; 'I' for Inactive)
REMARK    1  A    between atoms: C_1  and  C_2
REMARK    2  A    between atoms: C_2  and  C_3
REMARK    3  A    between atoms: C_3  and  C_4
REMARK    4  A    between atoms: C_3  and  O_6
REMARK    5  A    between atoms: C_4  and  C_5
REMARK    6  A    between atoms: O_6  and  C_7
REMARK    7  A    between atoms: C_7  and  C_9
REMARK    8  A    between atoms: C_9  and  C_10
REMARK    9  A    between atoms: C_11  and  C_12
REMARK                            x       y       z     vdW  Elec       q    Type
REMARK                         _______ _______ _______ _____ _____    ______ ____
ROOT
ATOM      1  C   UNL     1       3.308   5.922  19.281  0.00  0.00    +0.000 A 
ATOM      2  C   UNL     1       2.254   6.625  19.868  0.00  0.00    +0.000 A 
ATOM      3  N   UNL     1       1.622   5.869  20.824  0.00  0.00    +0.000 NA
ATOM      4  C   UNL     1       2.227   4.704  20.816  0.00  0.00    +0.000 A 
ATOM      5  C   UNL     1       1.956   3.510  21.547  0.00  0.00    +0.000 A 
ATOM      6  C   UNL     1       2.761   2.446  21.420  0.00  0.00    +0.000 A 
ATOM      7  C   UNL     1       3.937   2.498  20.560  0.00  0.00    +0.000 A 
ATOM      8 CL   UNL     1       4.966   1.127  20.480  0.00  0.00    +0.000 Cl
ATOM      9  C   UNL     1       4.170   3.598  19.826  0.00  0.00    +0.000 A 
ATOM     10  N   UNL     1       3.306   4.695  19.939  0.00  0.00    +0.000 N 
ENDROOT
BRANCH   2  11
ATOM     11  C   UNL     1       1.786   7.971  19.565  0.00  0.00    +0.000 A 
ATOM     12  C   UNL     1       1.188   8.753  20.546  0.00  0.00    +0.000 A 
ATOM     13  C   UNL     1       0.702  10.034  20.254  0.00  0.00    +0.000 A 
ATOM     14  C   UNL     1       0.852  10.565  18.986  0.00  0.00    +0.000 A 
ATOM     15 CL   UNL     1       0.216  12.127  18.648  0.00  0.00    +0.000 Cl
ATOM     16  C   UNL     1       1.524   9.839  18.013  0.00  0.00    +0.000 A 
ATOM     17  C   UNL     1       1.990   8.546  18.303  0.00  0.00    +0.000 A 
ENDBRANCH   2  11
BRANCH   1  18
ATOM     18  C   UNL     1       4.294   6.267  18.189  0.00  0.00    +0.000 C 
BRANCH  18  19
ATOM     19  C   UNL     1       4.180   5.305  17.003  0.00  0.00    +0.000 C 
ATOM     20  O   UNL     1       3.291   4.479  16.859  0.00  0.00    +0.000 OA
BRANCH  19  21
ATOM     21  O   UNL     1       5.205   5.504  16.120  0.00  0.00    +0.000 OA
BRANCH  21  22
ATOM     22  C   UNL     1       6.238   4.483  16.054  0.00  0.00    +0.000 C 
BRANCH  22  24
ATOM     23  C   UNL     1       6.152   3.860  13.609  0.00  0.00    +0.000 C 
ATOM     24  C   UNL     1       6.920   4.580  14.679  0.00  0.00    +0.000 C 
ENDBRANCH  22  24
BRANCH  22  25
ATOM     25  C   UNL     1       7.293   4.684  17.152  0.00  0.00    +0.000 C 
ATOM     26  C   UNL     1       7.601   6.158  17.403  0.00  0.00    +0.000 C 
ENDBRANCH  22  25
ENDBRANCH  21  22
ENDBRANCH  19  21
ENDBRANCH  18  19
ENDBRANCH   1  18
TORSDOF 7
ENDMDL
MODEL 3
REMARK VINA RESULT:      -7.0      2.611      6.418
REMARK  Name = 
REMARK  9 active torsions:
REMARK  status: ('A' for Active; 'I' for Inactive)
REMARK    1  A    between atoms: C_1  and  C_2
REMARK    2  A    between atoms: C_2  and  C_3
REMARK    3  A    between atoms: C_3  and  C_4
REMARK    4  A    between atoms: C_3  and  O_6
REMARK    5  A    between atoms: C_4  and  C_5
REMARK    6  A    between atoms: O_6  and  C_7
REMARK    7  A    between atoms: C_7  and  C_9
REMARK    8  A    between atoms: C_9  and  C_10
REMARK    9  A    between atoms: C_11  and  C_12
REMARK                            x       y       z     vdW  Elec       q    Type
REMARK                         _______ _______ _______ _____ _____    ______ ____
ROOT
ATOM      1  C   UNL     1       3.281   5.782  19.237  0.00  0.00    +0.000 A 
ATOM      2  C   UNL     1       2.273   6.517  19.865  0.00  0.00    +0.000 A 
ATOM      3  N   UNL     1       1.687   5.797  20.877  0.00  0.00    +0.000 NA
ATOM      4  C   UNL     1       2.273   4.623  20.865  0.00  0.00    +0.000 A 
ATOM      5  C   UNL     1       2.028   3.453  21.643  0.00  0.00    +0.000 A 
ATOM      6  C   UNL     1       2.808   2.373  21.498  0.00  0.00    +0.000 A 
ATOM      7  C   UNL     1       3.932   2.383  20.570  0.00  0.00    +0.000 A 
ATOM      8 CL   UNL     1       4.935   0.993  20.467  0.00  0.00    +0.000 Cl
ATOM      9  C   UNL     1       4.138   3.459  19.794  0.00  0.00    +0.000 A 
ATOM     10  N   UNL     1       3.299   4.573  19.927  0.00  0.00    +0.000 N 
ENDROOT
BRANCH   2  11
ATOM     11  C   UNL     1       1.808   7.862  19.554  0.00  0.00    +0.000 A 
ATOM     12  C   UNL     1       1.228   8.659  20.534  0.00  0.00    +0.000 A 
ATOM     13  C   UNL     1       0.745   9.939  20.234  0.00  0.00    +0.000 A 
ATOM     14  C   UNL     1       0.880  10.455  18.958  0.00  0.00    +0.000 A 
ATOM     15 CL   UNL     1       0.248  12.016  18.611  0.00  0.00    +0.000 Cl
ATOM     16  C   UNL     1       1.534   9.714  17.984  0.00  0.00    +0.000 A 
ATOM     17  C   UNL     1       1.997   8.421  18.282  0.00  0.00    +0.000 A 
ENDBRANCH   2  11
BRANCH   1  18
ATOM     18  C   UNL     1       4.205   6.082  18.081  0.00  0.00    +0.000 C 
BRANCH  18  19
ATOM     19  C   UNL     1       4.319   4.890  17.126  0.00  0.00    +0.000 C 
ATOM     20  O   UNL     1       3.370   4.316  16.612  0.00  0.00    +0.000 OA
BRANCH  19  21
ATOM     21  O   UNL     1       5.630   4.562  16.917  0.00  0.00    +0.000 OA
BRANCH  21  22
ATOM     22  C   UNL     1       6.473   5.557  16.274  0.00  0.00    +0.000 C 
BRANCH  22  24
ATOM     23  C   UNL     1       7.557   7.505  17.459  0.00  0.00    +0.000 C 
ATOM     24  C   UNL     1       7.534   6.014  17.289  0.00  0.00    +0.000 C 
ENDBRANCH  22  24
BRANCH  22  25
ATOM     25  C   UNL     1       7.178   4.977  15.039  0.00  0.00    +0.000 C 
ATOM     26  C   UNL     1       6.228   4.189  14.140  0.00  0.00    +0.000 C 
ENDBRANCH  22  25
ENDBRANCH  21  22
ENDBRANCH  19  21
ENDBRANCH  18  19
ENDBRANCH   1  18
TORSDOF 7
ENDMDL
MODEL 4
REMARK VINA RESULT:      -6.9      0.818      1.504
REMARK  Name = 
REMARK  9 active torsions:
REMARK  status: ('A' for Active; 'I' for Inactive)
REMARK    1  A    between atoms: C_1  and  C_2
REMARK    2  A    between atoms: C_2  and  C_3
REMARK    3  A    between atoms: C_3  and  C_4
REMARK    4  A    between atoms: C_3  and  O_6
REMARK    5  A    between atoms: C_4  and  C_5
REMARK    6  A    between atoms: O_6  and  C_7
REMARK    7  A    between atoms: C_7  and  C_9
REMARK    8  A    between atoms: C_9  and  C_10
REMARK    9  A    between atoms: C_11  and  C_12
REMARK                            x       y       z     vdW  Elec       q    Type
REMARK                         _______ _______ _______ _____ _____    ______ ____
ROOT
ATOM      1  C   UNL     1       2.639   6.951  19.307  0.00  0.00    +0.000 A 
ATOM      2  C   UNL     1       3.082   7.232  18.012  0.00  0.00    +0.000 A 
ATOM      3  N   UNL     1       2.616   8.449  17.580  0.00  0.00    +0.000 NA
ATOM      4  C   UNL     1       1.862   8.909  18.550  0.00  0.00    +0.000 A 
ATOM      5  C   UNL     1       1.069  10.091  18.633  0.00  0.00    +0.000 A 
ATOM      6  C   UNL     1       0.424  10.391  19.769  0.00  0.00    +0.000 A 
ATOM      7  C   UNL     1       0.542   9.535  20.943  0.00  0.00    +0.000 A 
ATOM      8 CL   UNL     1      -0.259   9.997  22.389  0.00  0.00    +0.000 Cl
ATOM      9  C   UNL     1       1.241   8.392  20.859  0.00  0.00    +0.000 A 
ATOM     10  N   UNL     1       1.887   8.068  19.658  0.00  0.00    +0.000 N 
ENDROOT
BRANCH   2  11
ATOM     11  C   UNL     1       3.908   6.408  17.141  0.00  0.00    +0.000 A 
ATOM     12  C   UNL     1       3.838   5.020  17.197  0.00  0.00    +0.000 A 
ATOM     13  C   UNL     1       4.656   4.220  16.390  0.00  0.00    +0.000 A 
ATOM     14  C   UNL     1       5.523   4.801  15.482  0.00  0.00    +0.000 A 
ATOM     15 CL   UNL     1       6.539   3.795  14.527  0.00  0.00    +0.000 Cl
ATOM     16  C   UNL     1       5.548   6.182  15.345  0.00  0.00    +0.000 A 
ATOM     17  C   UNL     1       4.743   6.982  16.172  0.00  0.00    +0.000 A 
ENDBRANCH   2  11
BRANCH   1  18
ATOM     18  C   UNL     1       2.836   5.769  20.228  0.00  0.00    +0.000 C 
BRANCH  18  19
ATOM     19  C   UNL     1       1.666   4.785  20.139  0.00  0.00    +0.000 C 
ATOM     20  O   UNL     1       0.500   5.067  20.372  0.00  0.00    +0.000 OA
BRANCH  19  21
ATOM     21  O   UNL     1       2.103   3.549  19.752  0.00  0.00    +0.000 OA
BRANCH  21  22
ATOM     22  C   UNL     1       3.323   3.049  20.366  0.00  0.00    +0.000 C 
BRANCH  22  24
ATOM     23  C   UNL     1       1.458   2.318  21.904  0.00  0.00    +0.000 C 
ATOM     24  C   UNL     1       2.938   2.296  21.651  0.00  0.00    +0.000 C 
ENDBRANCH  22  24
BRANCH  22  25
ATOM     25  C   UNL     1       4.067   2.089  19.427  0.00  0.00    +0.000 C 
ATOM     26  C   UNL     1       3.172   1.546  18.316  0.00  0.00    +0.000 C 
ENDBRANCH  22  25
ENDBRANCH  21  22
ENDBRANCH  19  21
ENDBRANCH  18  19
ENDBRANCH   1  18
TORSDOF 7
ENDMDL
MODEL 5
REMARK VINA RESULT:      -6.9      1.451      5.745
REMARK  Name = 
REMARK  9 active torsions:
REMARK  status: ('A' for Active; 'I' for Inactive)
REMARK    1  A    between atoms: C_1  and  C_2
REMARK    2  A    between atoms: C_2  and  C_3
REMARK    3  A    between atoms: C_3  and  C_4
REMARK    4  A    between atoms: C_3  and  O_6
REMARK    5  A    between atoms: C_4  and  C_5
REMARK    6  A    between atoms: O_6  and  C_7
REMARK    7  A    between atoms: C_7  and  C_9
REMARK    8  A    between atoms: C_9  and  C_10
REMARK    9  A    between atoms: C_11  and  C_12
REMARK                            x       y       z     vdW  Elec       q    Type
REMARK                         _______ _______ _______ _____ _____    ______ ____
ROOT
ATOM      1  C   UNL     1       2.710   6.346  18.409  0.00  0.00    +0.000 A 
ATOM      2  C   UNL     1       2.532   7.717  18.216  0.00  0.00    +0.000 A 
ATOM      3  N   UNL     1       3.362   8.193  17.231  0.00  0.00    +0.000 NA
ATOM      4  C   UNL     1       4.079   7.165  16.841  0.00  0.00    +0.000 A 
ATOM      5  C   UNL     1       5.145   7.079  15.897  0.00  0.00    +0.000 A 
ATOM      6  C   UNL     1       5.694   5.890  15.609  0.00  0.00    +0.000 A 
ATOM      7  C   UNL     1       5.197   4.668  16.229  0.00  0.00    +0.000 A 
ATOM      8 CL   UNL     1       5.897   3.167  15.779  0.00  0.00    +0.000 Cl
ATOM      9  C   UNL     1       4.231   4.746  17.158  0.00  0.00    +0.000 A 
ATOM     10  N   UNL     1       3.684   5.995  17.479  0.00  0.00    +0.000 N 
ENDROOT
BRANCH   2  11
ATOM     11  C   UNL     1       1.634   8.620  18.922  0.00  0.00    +0.000 A 
ATOM     12  C   UNL     1       1.500   8.553  20.304  0.00  0.00    +0.000 A 
ATOM     13  C   UNL     1       0.610   9.393  20.987  0.00  0.00    +0.000 A 
ATOM     14  C   UNL     1      -0.121  10.343  20.297  0.00  0.00    +0.000 A 
ATOM     15 CL   UNL     1      -1.230  11.337  21.157  0.00  0.00    +0.000 Cl
ATOM     16  C   UNL     1       0.060  10.489  18.930  0.00  0.00    +0.000 A 
ATOM     17  C   UNL     1       0.935   9.630  18.244  0.00  0.00    +0.000 A 
ENDBRANCH   2  11
BRANCH   1  18
ATOM     18  C   UNL     1       2.082   5.350  19.357  0.00  0.00    +0.000 C 
BRANCH  18  19
ATOM     19  C   UNL     1       1.589   4.103  18.619  0.00  0.00    +0.000 C 
ATOM     20  O   UNL     1       0.995   4.115  17.551  0.00  0.00    +0.000 OA
BRANCH  19  21
ATOM     21  O   UNL     1       1.916   2.971  19.312  0.00  0.00    +0.000 OA
BRANCH  21  22
ATOM     22  C   UNL     1       3.098   3.022  20.156  0.00  0.00    +0.000 C 
BRANCH  22  24
ATOM     23  C   UNL     1       1.228   2.634  21.807  0.00  0.00    +0.000 C 
ATOM     24  C   UNL     1       2.705   2.535  21.561  0.00  0.00    +0.000 C 
ENDBRANCH  22  24
BRANCH  22  25
ATOM     25  C   UNL     1       4.215   2.122  19.609  0.00  0.00    +0.000 C 
ATOM     26  C   UNL     1       3.754   1.271  18.427  0.00  0.00    +0.000 C 
ENDBRANCH  22  25
ENDBRANCH  21  22
ENDBRANCH  19  21
ENDBRANCH  18  19
ENDBRANCH   1  18
TORSDOF 7
ENDMDL
MODEL 6
REMARK VINA RESULT:      -6.9      2.419      4.334
REMARK  Name = 
REMARK  9 active torsions:
REMARK  status: ('A' for Active; 'I' for Inactive)
REMARK    1  A    between atoms: C_1  and  C_2
REMARK    2  A    between atoms: C_2  and  C_3
REMARK    3  A    between atoms: C_3  and  C_4
REMARK    4  A    between atoms: C_3  and  O_6
REMARK    5  A    between atoms: C_4  and  C_5
REMARK    6  A    between atoms: O_6  and  C_7
REMARK    7  A    between atoms: C_7  and  C_9
REMARK    8  A    between atoms: C_9  and  C_10
REMARK    9  A    between atoms: C_11  and  C_12
REMARK                            x       y       z     vdW  Elec       q    Type
REMARK                         _______ _______ _______ _____ _____    ______ ____
ROOT
ATOM      1  C   UNL     1       2.421   7.409  18.629  0.00  0.00    +0.000 A 
ATOM      2  C   UNL     1       2.283   6.288  19.450  0.00  0.00    +0.000 A 
ATOM      3  N   UNL     1       1.638   6.604  20.621  0.00  0.00    +0.000 NA
ATOM      4  C   UNL     1       1.413   7.896  20.567  0.00  0.00    +0.000 A 
ATOM      5  C   UNL     1       0.839   8.782  21.526  0.00  0.00    +0.000 A 
ATOM      6  C   UNL     1       0.647  10.073  21.219  0.00  0.00    +0.000 A 
ATOM      7  C   UNL     1       0.993  10.587  19.900  0.00  0.00    +0.000 A 
ATOM      8 CL   UNL     1       0.673  12.234  19.542  0.00  0.00    +0.000 Cl
ATOM      9  C   UNL     1       1.585   9.774  19.009  0.00  0.00    +0.000 A 
ATOM     10  N   UNL     1       1.812   8.433  19.347  0.00  0.00    +0.000 N 
ENDROOT
BRANCH   2  11
ATOM     11  C   UNL     1       2.743   4.927  19.208  0.00  0.00    +0.000 A 
ATOM     12  C   UNL     1       2.055   4.088  18.338  0.00  0.00    +0.000 A 
ATOM     13  C   UNL     1       2.470   2.767  18.128  0.00  0.00    +0.000 A 
ATOM     14  C   UNL     1       3.606   2.284  18.751  0.00  0.00    +0.000 A 
ATOM     15 CL   UNL     1       4.072   0.648  18.501  0.00  0.00    +0.000 Cl
ATOM     16  C   UNL     1       4.359   3.129  19.554  0.00  0.00    +0.000 A 
ATOM     17  C   UNL     1       3.929   4.447  19.781  0.00  0.00    +0.000 A 
ENDBRANCH   2  11
BRANCH   1  18
ATOM     18  C   UNL     1       3.055   7.619  17.273  0.00  0.00    +0.000 C 
BRANCH  18  19
ATOM     19  C   UNL     1       4.482   7.064  17.227  0.00  0.00    +0.000 C 
ATOM     20  O   UNL     1       5.465   7.634  17.675  0.00  0.00    +0.000 OA
BRANCH  19  21
ATOM     21  O   UNL     1       4.503   5.837  16.626  0.00  0.00    +0.000 OA
BRANCH  21  22
ATOM     22  C   UNL     1       5.728   5.445  15.948  0.00  0.00    +0.000 C 
BRANCH  22  24
ATOM     23  C   UNL     1       7.392   4.710  17.699  0.00  0.00    +0.000 C 
ATOM     24  C   UNL     1       6.346   4.266  16.718  0.00  0.00    +0.000 C 
ENDBRANCH  22  24
BRANCH  22  25
ATOM     25  C   UNL     1       5.451   5.009  14.502  0.00  0.00    +0.000 C 
ATOM     26  C   UNL     1       6.312   3.823  14.074  0.00  0.00    +0.000 C 
ENDBRANCH  22  25
ENDBRANCH  21  22
ENDBRANCH  19  21
ENDBRANCH  18  19
ENDBRANCH   1  18
TORSDOF 7
ENDMDL
MODEL 7
REMARK VINA RESULT:      -6.9      2.608      6.335
REMARK  Name = 
REMARK  9 active torsions:
REMARK  status: ('A' for Active; 'I' for Inactive)
REMARK    1  A    between atoms: C_1  and  C_2
REMARK    2  A    between atoms: C_2  and  C_3
REMARK    3  A    between atoms: C_3  and  C_4
REMARK    4  A    between atoms: C_3  and  O_6
REMARK    5  A    between atoms: C_4  and  C_5
REMARK    6  A    between atoms: O_6  and  C_7
REMARK    7  A    between atoms: C_7  and  C_9
REMARK    8  A    between atoms: C_9  and  C_10
REMARK    9  A    between atoms: C_11  and  C_12
REMARK                            x       y       z     vdW  Elec       q    Type
REMARK                         _______ _______ _______ _____ _____    ______ ____
ROOT
ATOM      1  C   UNL     1       3.251   5.829  19.221  0.00  0.00    +0.000 A 
ATOM      2  C   UNL     1       2.265   6.572  19.874  0.00  0.00    +0.000 A 
ATOM      3  N   UNL     1       1.697   5.854  20.898  0.00  0.00    +0.000 NA
ATOM      4  C   UNL     1       2.272   4.674  20.869  0.00  0.00    +0.000 A 
ATOM      5  C   UNL     1       2.035   3.505  21.650  0.00  0.00    +0.000 A 
ATOM      6  C   UNL     1       2.802   2.418  21.484  0.00  0.00    +0.000 A 
ATOM      7  C   UNL     1       3.904   2.421  20.530  0.00  0.00    +0.000 A 
ATOM      8 CL   UNL     1       4.892   1.023  20.400  0.00  0.00    +0.000 Cl
ATOM      9  C   UNL     1       4.101   3.498  19.752  0.00  0.00    +0.000 A 
ATOM     10  N   UNL     1       3.275   4.618  19.907  0.00  0.00    +0.000 N 
ENDROOT
BRANCH   2  11
ATOM     11  C   UNL     1       1.805   7.922  19.577  0.00  0.00    +0.000 A 
ATOM     12  C   UNL     1       1.938   8.453  18.300  0.00  0.00    +0.000 A 
ATOM     13  C   UNL     1       1.533   9.764  18.015  0.00  0.00    +0.000 A 
ATOM     14  C   UNL     1       0.946  10.542  18.997  0.00  0.00    +0.000 A 
ATOM     15 CL   UNL     1       0.489  12.157  18.628  0.00  0.00    +0.000 Cl
ATOM     16  C   UNL     1       0.723  10.003  20.256  0.00  0.00    +0.000 A 
ATOM     17  C   UNL     1       1.151   8.697  20.545  0.00  0.00    +0.000 A 
ENDBRANCH   2  11
BRANCH   1  18
ATOM     18  C   UNL     1       4.151   6.124  18.044  0.00  0.00    +0.000 C 
BRANCH  18  19
ATOM     19  C   UNL     1       4.266   4.919  17.107  0.00  0.00    +0.000 C 
ATOM     20  O   UNL     1       3.317   4.320  16.622  0.00  0.00    +0.000 OA
BRANCH  19  21
ATOM     21  O   UNL     1       5.578   4.610  16.876  0.00  0.00    +0.000 OA
BRANCH  21  22
ATOM     22  C   UNL     1       6.365   5.568  16.115  0.00  0.00    +0.000 C 
BRANCH  22  24
ATOM     23  C   UNL     1       7.692   5.322  18.249  0.00  0.00    +0.000 C 
ATOM     24  C   UNL     1       7.404   6.193  17.061  0.00  0.00    +0.000 C 
ENDBRANCH  22  24
BRANCH  22  25
ATOM     25  C   UNL     1       7.096   4.887  14.949  0.00  0.00    +0.000 C 
ATOM     26  C   UNL     1       6.177   3.985  14.128  0.00  0.00    +0.000 C 
ENDBRANCH  22  25
ENDBRANCH  21  22
ENDBRANCH  19  21
ENDBRANCH  18  19
ENDBRANCH   1  18
TORSDOF 7
ENDMDL
MODEL 8
REMARK VINA RESULT:      -6.9      0.923      1.322
REMARK  Name = 
REMARK  9 active torsions:
REMARK  status: ('A' for Active; 'I' for Inactive)
REMARK    1  A    between atoms: C_1  and  C_2
REMARK    2  A    between atoms: C_2  and  C_3
REMARK    3  A    between atoms: C_3  and  C_4
REMARK    4  A    between atoms: C_3  and  O_6
REMARK    5  A    between atoms: C_4  and  C_5
REMARK    6  A    between atoms: O_6  and  C_7
REMARK    7  A    between atoms: C_7  and  C_9
REMARK    8  A    between atoms: C_9  and  C_10
REMARK    9  A    between atoms: C_11  and  C_12
REMARK                            x       y       z     vdW  Elec       q    Type
REMARK                         _______ _______ _______ _____ _____    ______ ____
ROOT
ATOM      1  C   UNL     1       2.560   6.887  19.657  0.00  0.00    +0.000 A 
ATOM      2  C   UNL     1       3.152   7.302  18.462  0.00  0.00    +0.000 A 
ATOM      3  N   UNL     1       2.703   8.545  18.090  0.00  0.00    +0.000 NA
ATOM      4  C   UNL     1       1.819   8.892  18.996  0.00  0.00    +0.000 A 
ATOM      5  C   UNL     1       0.983  10.044  19.087  0.00  0.00    +0.000 A 
ATOM      6  C   UNL     1       0.191  10.217  20.155  0.00  0.00    +0.000 A 
ATOM      7  C   UNL     1       0.190   9.253  21.248  0.00  0.00    +0.000 A 
ATOM      8 CL   UNL     1      -0.801   9.555  22.617  0.00  0.00    +0.000 Cl
ATOM      9  C   UNL     1       0.932   8.139  21.146  0.00  0.00    +0.000 A 
ATOM     10  N   UNL     1       1.733   7.947  20.013  0.00  0.00    +0.000 N 
ENDROOT
BRANCH   2  11
ATOM     11  C   UNL     1       4.108   6.585  17.630  0.00  0.00    +0.000 A 
ATOM     12  C   UNL     1       4.820   5.503  18.135  0.00  0.00    +0.000 A 
ATOM     13  C   UNL     1       5.768   4.831  17.353  0.00  0.00    +0.000 A 
ATOM     14  C   UNL     1       5.982   5.206  16.039  0.00  0.00    +0.000 A 
ATOM     15 CL   UNL     1       7.176   4.385  15.114  0.00  0.00    +0.000 Cl
ATOM     16  C   UNL     1       5.221   6.226  15.486  0.00  0.00    +0.000 A 
ATOM     17  C   UNL     1       4.287   6.913  16.278  0.00  0.00    +0.000 A 
ENDBRANCH   2  11
BRANCH   1  18
ATOM     18  C   UNL     1       2.680   5.625  20.480  0.00  0.00    +0.000 C 
BRANCH  18  19
ATOM     19  C   UNL     1       1.602   4.604  20.105  0.00  0.00    +0.000 C 
ATOM     20  O   UNL     1       0.539   4.466  20.691  0.00  0.00    +0.000 OA
BRANCH  19  21
ATOM     21  O   UNL     1       1.987   3.874  19.014  0.00  0.00    +0.000 OA
BRANCH  21  22
ATOM     22  C   UNL     1       2.307   2.472  19.227  0.00  0.00    +0.000 C 
BRANCH  22  24
ATOM     23  C   UNL     1       2.842   2.836  16.787  0.00  0.00    +0.000 C 
ATOM     24  C   UNL     1       3.052   1.956  17.985  0.00  0.00    +0.000 C 
ENDBRANCH  22  24
BRANCH  22  25
ATOM     25  C   UNL     1       3.200   2.284  20.462  0.00  0.00    +0.000 C 
ATOM     26  C   UNL     1       4.674   2.121  20.097  0.00  0.00    +0.000 C 
ENDBRANCH  22  25
ENDBRANCH  21  22
ENDBRANCH  19  21
ENDBRANCH  18  19
ENDBRANCH   1  18
TORSDOF 7
ENDMDL
MODEL 9
REMARK VINA RESULT:      -6.8      2.438      6.511
REMARK  Name = 
REMARK  9 active torsions:
REMARK  status: ('A' for Active; 'I' for Inactive)
REMARK    1  A    between atoms: C_1  and  C_2
REMARK    2  A    between atoms: C_2  and  C_3
REMARK    3  A    between atoms: C_3  and  C_4
REMARK    4  A    between atoms: C_3  and  O_6
REMARK    5  A    between atoms: C_4  and  C_5
REMARK    6  A    between atoms: O_6  and  C_7
REMARK    7  A    between atoms: C_7  and  C_9
REMARK    8  A    between atoms: C_9  and  C_10
REMARK    9  A    between atoms: C_11  and  C_12
REMARK                            x       y       z     vdW  Elec       q    Type
REMARK                         _______ _______ _______ _____ _____    ______ ____
ROOT
ATOM      1  C   UNL     1       2.945   5.969  19.498  0.00  0.00    +0.000 A 
ATOM      2  C   UNL     1       1.806   6.491  20.114  0.00  0.00    +0.000 A 
ATOM      3  N   UNL     1       0.920   5.496  20.447  0.00  0.00    +0.000 NA
ATOM      4  C   UNL     1       1.457   4.379  20.016  0.00  0.00    +0.000 A 
ATOM      5  C   UNL     1       0.960   3.043  20.024  0.00  0.00    +0.000 A 
ATOM      6  C   UNL     1       1.726   2.037  19.580  0.00  0.00    +0.000 A 
ATOM      7  C   UNL     1       3.084   2.284  19.111  0.00  0.00    +0.000 A 
ATOM      8 CL   UNL     1       4.042   0.951  18.608  0.00  0.00    +0.000 Cl
ATOM      9  C   UNL     1       3.542   3.544  19.048  0.00  0.00    +0.000 A 
ATOM     10  N   UNL     1       2.724   4.595  19.483  0.00  0.00    +0.000 N 
ENDROOT
BRANCH   2  11
ATOM     11  C   UNL     1       1.487   7.885  20.393  0.00  0.00    +0.000 A 
ATOM     12  C   UNL     1       1.385   8.344  21.701  0.00  0.00    +0.000 A 
ATOM     13  C   UNL     1       1.043   9.673  21.977  0.00  0.00    +0.000 A 
ATOM     14  C   UNL     1       0.843  10.572  20.945  0.00  0.00    +0.000 A 
ATOM     15 CL   UNL     1       0.391  12.189  21.314  0.00  0.00    +0.000 Cl
ATOM     16  C   UNL     1       1.025  10.160  19.633  0.00  0.00    +0.000 A 
ATOM     17  C   UNL     1       1.346   8.820  19.358  0.00  0.00    +0.000 A 
ENDBRANCH   2  11
BRANCH   1  18
ATOM     18  C   UNL     1       4.190   6.608  18.928  0.00  0.00    +0.000 C 
BRANCH  18  19
ATOM     19  C   UNL     1       4.054   6.863  17.425  0.00  0.00    +0.000 C 
ATOM     20  O   UNL     1       3.457   7.808  16.930  0.00  0.00    +0.000 OA
BRANCH  19  21
ATOM     21  O   UNL     1       4.704   5.896  16.710  0.00  0.00    +0.000 OA
BRANCH  21  22
ATOM     22  C   UNL     1       6.045   5.533  17.141  0.00  0.00    +0.000 C 
BRANCH  22  24
ATOM     23  C   UNL     1       5.801   4.291  14.957  0.00  0.00    +0.000 C 
ATOM     24  C   UNL     1       6.529   4.364  16.268  0.00  0.00    +0.000 C 
ENDBRANCH  22  24
BRANCH  22  25
ATOM     25  C   UNL     1       7.018   6.711  16.987  0.00  0.00    +0.000 C 
ATOM     26  C   UNL     1       7.859   6.943  18.240  0.00  0.00    +0.000 C 
ENDBRANCH  22  25
ENDBRANCH  21  22
ENDBRANCH  19  21
ENDBRANCH  18  19
ENDBRANCH   1  18
TORSDOF 7
ENDMDL
