MODEL 1
REMARK VINA RESULT:      -8.0      0.000      0.000
REMARK  Name = 
REMARK  6 active torsions:
REMARK  status: ('A' for Active; 'I' for Inactive)
REMARK    1  A    between atoms: O_1  and  C_2
REMARK    2  A    between atoms: C_2  and  C_3
REMARK    3  A    between atoms: C_6  and  C_7
REMARK    4  A    between atoms: C_7  and  N_8
REMARK    5  A    between atoms: C_11  and  C_12
REMARK    6  A    between atoms: C_18  and  C_19
REMARK                            x       y       z     vdW  Elec       q    Type
REMARK                         _______ _______ _______ _____ _____    ______ ____
ROOT
ATOM      1  N   UNL     1       7.887   7.993  17.218  0.00  0.00    +0.000 N 
ATOM      2  C   UNL     1       7.188   6.816  17.042  0.00  0.00    +0.000 A 
ATOM      3  N   UNL     1       7.279   6.254  15.832  0.00  0.00    +0.000 NA
ATOM      4  C   UNL     1       6.539   5.150  15.603  0.00  0.00    +0.000 A 
ATOM      5  C   UNL     1       5.730   4.579  16.561  0.00  0.00    +0.000 A 
ATOM      6  C   UNL     1       5.687   5.216  17.782  0.00  0.00    +0.000 A 
ATOM      7  N   UNL     1       6.427   6.328  18.030  0.00  0.00    +0.000 NA
ATOM      8  H   UNL     1       8.597   8.055  16.499  0.00  0.00    +0.000 HD
ENDROOT
BRANCH   4   9
ATOM      9  C   UNL     1       6.588   4.641  14.237  0.00  0.00    +0.000 A 
ATOM     10  C   UNL     1       5.929   3.635  13.559  0.00  0.00    +0.000 A 
ATOM     11  C   UNL     1       6.488   3.587  12.257  0.00  0.00    +0.000 A 
ATOM     12  C   UNL     1       7.438   4.576  12.214  0.00  0.00    +0.000 A 
ATOM     13  O   UNL     1       7.503   5.228  13.401  0.00  0.00    +0.000 OA
ENDBRANCH   4   9
BRANCH   6  14
ATOM     14  C   UNL     1       4.754   4.699  18.863  0.00  0.00    +0.000 C 
ATOM     15  F   UNL     1       4.555   5.599  19.874  0.00  0.00    +0.000 F 
ATOM     16  F   UNL     1       3.510   4.398  18.399  0.00  0.00    +0.000 F 
ATOM     17  F   UNL     1       5.219   3.573  19.474  0.00  0.00    +0.000 F 
ENDBRANCH   6  14
BRANCH   1  18
ATOM     18  C   UNL     1       8.339   8.277  18.564  0.00  0.00    +0.000 C 
BRANCH  18  22
ATOM     19  C   UNL     1       9.522  12.453  18.826  0.00  0.00    +0.000 A 
ATOM     20  C   UNL     1       8.765  11.987  17.745  0.00  0.00    +0.000 A 
ATOM     21  C   UNL     1       8.385  10.643  17.663  0.00  0.00    +0.000 A 
ATOM     22  C   UNL     1       8.763   9.727  18.656  0.00  0.00    +0.000 A 
ATOM     23  C   UNL     1       9.523  10.191  19.737  0.00  0.00    +0.000 A 
ATOM     24  C   UNL     1       9.903  11.535  19.817  0.00  0.00    +0.000 A 
BRANCH  19  25
ATOM     25  C   UNL     1       9.967  13.891  18.873  0.00  0.00    +0.000 C 
BRANCH  25  26
ATOM     26  O   UNL     1      11.335  13.997  19.244  0.00  0.00    +0.000 OA
ATOM     27  H   UNL     1      11.349  14.330  20.156  0.00  0.00    +0.000 HD
ENDBRANCH  25  26
ENDBRANCH  19  25
ENDBRANCH  18  22
ENDBRANCH   1  18
TORSDOF 6
ENDMDL
MODEL 2
REMARK VINA RESULT:      -8.0      5.823      7.146
REMARK  Name = 
REMARK  6 active torsions:
REMARK  status: ('A' for Active; 'I' for Inactive)
REMARK    1  A    between atoms: O_1  and  C_2
REMARK    2  A    between atoms: C_2  and  C_3
REMARK    3  A    between atoms: C_6  and  C_7
REMARK    4  A    between atoms: C_7  and  N_8
REMARK    5  A    between atoms: C_11  and  C_12
REMARK    6  A    between atoms: C_18  and  C_19
REMARK                            x       y       z     vdW  Elec       q    Type
REMARK                         _______ _______ _______ _____ _____    ______ ____
ROOT
ATOM      1  N   UNL     1       2.168   7.469  20.035  0.00  0.00    +0.000 N 
ATOM      2  C   UNL     1       2.596   6.180  19.791  0.00  0.00    +0.000 A 
ATOM      3  N   UNL     1       3.767   6.060  19.158  0.00  0.00    +0.000 NA
ATOM      4  C   UNL     1       4.170   4.815  18.829  0.00  0.00    +0.000 A 
ATOM      5  C   UNL     1       3.445   3.687  19.140  0.00  0.00    +0.000 A 
ATOM      6  C   UNL     1       2.247   3.892  19.791  0.00  0.00    +0.000 A 
ATOM      7  N   UNL     1       1.827   5.138  20.131  0.00  0.00    +0.000 NA
ATOM      8  H   UNL     1       2.966   8.089  19.974  0.00  0.00    +0.000 HD
ENDROOT
BRANCH   4   9
ATOM      9  C   UNL     1       5.397   4.746  18.044  0.00  0.00    +0.000 A 
ATOM     10  C   UNL     1       5.675   4.627  16.697  0.00  0.00    +0.000 A 
ATOM     11  C   UNL     1       7.085   4.535  16.577  0.00  0.00    +0.000 A 
ATOM     12  C   UNL     1       7.582   4.621  17.854  0.00  0.00    +0.000 A 
ATOM     13  O   UNL     1       6.573   4.759  18.750  0.00  0.00    +0.000 OA
ENDBRANCH   4   9
BRANCH   6  14
ATOM     14  C   UNL     1       1.347   2.705  20.092  0.00  0.00    +0.000 C 
ATOM     15  F   UNL     1       0.101   2.824  19.539  0.00  0.00    +0.000 F 
ATOM     16  F   UNL     1       1.839   1.526  19.623  0.00  0.00    +0.000 F 
ATOM     17  F   UNL     1       1.130   2.527  21.426  0.00  0.00    +0.000 F 
ENDBRANCH   6  14
BRANCH   1  18
ATOM     18  C   UNL     1       1.323   7.657  21.196  0.00  0.00    +0.000 C 
BRANCH  18  22
ATOM     19  C   UNL     1      -0.806  11.431  20.826  0.00  0.00    +0.000 A 
ATOM     20  C   UNL     1      -0.221  10.822  19.708  0.00  0.00    +0.000 A 
ATOM     21  C   UNL     1       0.463   9.607  19.830  0.00  0.00    +0.000 A 
ATOM     22  C   UNL     1       0.590   8.976  21.076  0.00  0.00    +0.000 A 
ATOM     23  C   UNL     1       0.009   9.585  22.195  0.00  0.00    +0.000 A 
ATOM     24  C   UNL     1      -0.674  10.800  22.072  0.00  0.00    +0.000 A 
BRANCH  19  25
ATOM     25  C   UNL     1      -1.493  12.763  20.686  0.00  0.00    +0.000 C 
BRANCH  25  26
ATOM     26  O   UNL     1      -1.902  12.995  19.345  0.00  0.00    +0.000 OA
ATOM     27  H   UNL     1      -1.937  12.127  18.911  0.00  0.00    +0.000 HD
ENDBRANCH  25  26
ENDBRANCH  19  25
ENDBRANCH  18  22
ENDBRANCH   1  18
TORSDOF 6
ENDMDL
MODEL 3
REMARK VINA RESULT:      -8.0      5.844      7.219
REMARK  Name = 
REMARK  6 active torsions:
REMARK  status: ('A' for Active; 'I' for Inactive)
REMARK    1  A    between atoms: O_1  and  C_2
REMARK    2  A    between atoms: C_2  and  C_3
REMARK    3  A    between atoms: C_6  and  C_7
REMARK    4  A    between atoms: C_7  and  N_8
REMARK    5  A    between atoms: C_11  and  C_12
REMARK    6  A    between atoms: C_18  and  C_19
REMARK                            x       y       z     vdW  Elec       q    Type
REMARK                         _______ _______ _______ _____ _____    ______ ____
ROOT
ATOM      1  N   UNL     1       2.163   7.511  20.020  0.00  0.00    +0.000 N 
ATOM      2  C   UNL     1       2.586   6.219  19.783  0.00  0.00    +0.000 A 
ATOM      3  N   UNL     1       3.754   6.091  19.146  0.00  0.00    +0.000 NA
ATOM      4  C   UNL     1       4.151   4.843  18.823  0.00  0.00    +0.000 A 
ATOM      5  C   UNL     1       3.424   3.719  19.146  0.00  0.00    +0.000 A 
ATOM      6  C   UNL     1       2.231   3.932  19.801  0.00  0.00    +0.000 A 
ATOM      7  N   UNL     1       1.816   5.182  20.134  0.00  0.00    +0.000 NA
ATOM      8  H   UNL     1       2.963   8.129  19.950  0.00  0.00    +0.000 HD
ENDROOT
BRANCH   4   9
ATOM      9  C   UNL     1       5.375   4.764  18.033  0.00  0.00    +0.000 A 
ATOM     10  C   UNL     1       5.646   4.658  16.683  0.00  0.00    +0.000 A 
ATOM     11  C   UNL     1       7.054   4.544  16.558  0.00  0.00    +0.000 A 
ATOM     12  C   UNL     1       7.556   4.607  17.834  0.00  0.00    +0.000 A 
ATOM     13  O   UNL     1       6.553   4.749  18.735  0.00  0.00    +0.000 OA
ENDBRANCH   4   9
BRANCH   6  14
ATOM     14  C   UNL     1       1.328   2.751  20.116  0.00  0.00    +0.000 C 
ATOM     15  F   UNL     1       1.877   1.548  19.764  0.00  0.00    +0.000 F 
ATOM     16  F   UNL     1       1.034   2.638  21.441  0.00  0.00    +0.000 F 
ATOM     17  F   UNL     1       0.134   2.803  19.461  0.00  0.00    +0.000 F 
ENDBRANCH   6  14
BRANCH   1  18
ATOM     18  C   UNL     1       1.325   7.711  21.184  0.00  0.00    +0.000 C 
BRANCH  18  22
ATOM     19  C   UNL     1      -0.795  11.490  20.817  0.00  0.00    +0.000 A 
ATOM     20  C   UNL     1      -0.697  10.836  22.052  0.00  0.00    +0.000 A 
ATOM     21  C   UNL     1      -0.014   9.621  22.167  0.00  0.00    +0.000 A 
ATOM     22  C   UNL     1       0.579   9.021  21.047  0.00  0.00    +0.000 A 
ATOM     23  C   UNL     1       0.480   9.671  19.810  0.00  0.00    +0.000 A 
ATOM     24  C   UNL     1      -0.204  10.886  19.697  0.00  0.00    +0.000 A 
BRANCH  19  25
ATOM     25  C   UNL     1      -1.578  12.771  20.700  0.00  0.00    +0.000 C 
BRANCH  25  26
ATOM     26  O   UNL     1      -1.965  13.019  19.355  0.00  0.00    +0.000 OA
ATOM     27  H   UNL     1      -2.484  13.839  19.363  0.00  0.00    +0.000 HD
ENDBRANCH  25  26
ENDBRANCH  19  25
ENDBRANCH  18  22
ENDBRANCH   1  18
TORSDOF 6
ENDMDL
MODEL 4
REMARK VINA RESULT:      -8.0      0.755      1.173
REMARK  Name = 
REMARK  6 active torsions:
REMARK  status: ('A' for Active; 'I' for Inactive)
REMARK    1  A    between atoms: O_1  and  C_2
REMARK    2  A    between atoms: C_2  and  C_3
REMARK    3  A    between atoms: C_6  and  C_7
REMARK    4  A    between atoms: C_7  and  N_8
REMARK    5  A    between atoms: C_11  and  C_12
REMARK    6  A    between atoms: C_18  and  C_19
REMARK                            x       y       z     vdW  Elec       q    Type
REMARK                         _______ _______ _______ _____ _____    ______ ____
ROOT
ATOM      1  N   UNL     1       7.896   7.971  17.199  0.00  0.00    +0.000 N 
ATOM      2  C   UNL     1       7.209   6.786  17.025  0.00  0.00    +0.000 A 
ATOM      3  N   UNL     1       7.328   6.211  15.824  0.00  0.00    +0.000 NA
ATOM      4  C   UNL     1       6.600   5.098  15.595  0.00  0.00    +0.000 A 
ATOM      5  C   UNL     1       5.778   4.533  16.544  0.00  0.00    +0.000 A 
ATOM      6  C   UNL     1       5.707   5.185  17.756  0.00  0.00    +0.000 A 
ATOM      7  N   UNL     1       6.434   6.305  18.004  0.00  0.00    +0.000 NA
ATOM      8  H   UNL     1       8.619   8.030  16.493  0.00  0.00    +0.000 HD
ENDROOT
BRANCH   4   9
ATOM      9  C   UNL     1       6.678   4.572  14.237  0.00  0.00    +0.000 A 
ATOM     10  C   UNL     1       7.517   4.796  13.163  0.00  0.00    +0.000 A 
ATOM     11  C   UNL     1       7.014   4.024  12.085  0.00  0.00    +0.000 A 
ATOM     12  C   UNL     1       5.913   3.364  12.571  0.00  0.00    +0.000 A 
ATOM     13  O   UNL     1       5.704   3.678  13.873  0.00  0.00    +0.000 OA
ENDBRANCH   4   9
BRANCH   6  14
ATOM     14  C   UNL     1       4.757   4.674  18.827  0.00  0.00    +0.000 C 
ATOM     15  F   UNL     1       5.231   3.569  19.480  0.00  0.00    +0.000 F 
ATOM     16  F   UNL     1       4.506   5.589  19.803  0.00  0.00    +0.000 F 
ATOM     17  F   UNL     1       3.544   4.301  18.329  0.00  0.00    +0.000 F 
ENDBRANCH   6  14
BRANCH   1  18
ATOM     18  C   UNL     1       8.320   8.276  18.550  0.00  0.00    +0.000 C 
BRANCH  18  22
ATOM     19  C   UNL     1       9.473  12.462  18.782  0.00  0.00    +0.000 A 
ATOM     20  C   UNL     1       8.701  11.986  17.714  0.00  0.00    +0.000 A 
ATOM     21  C   UNL     1       8.331  10.639  17.642  0.00  0.00    +0.000 A 
ATOM     22  C   UNL     1       8.734   9.729  18.631  0.00  0.00    +0.000 A 
ATOM     23  C   UNL     1       9.508  10.203  19.698  0.00  0.00    +0.000 A 
ATOM     24  C   UNL     1       9.877  11.550  19.768  0.00  0.00    +0.000 A 
BRANCH  19  25
ATOM     25  C   UNL     1       9.906  13.904  18.817  0.00  0.00    +0.000 C 
BRANCH  25  26
ATOM     26  O   UNL     1       9.502  14.593  17.641  0.00  0.00    +0.000 OA
ATOM     27  H   UNL     1       9.405  15.528  17.887  0.00  0.00    +0.000 HD
ENDBRANCH  25  26
ENDBRANCH  19  25
ENDBRANCH  18  22
ENDBRANCH   1  18
TORSDOF 6
ENDMDL
MODEL 5
REMARK VINA RESULT:      -8.0      0.526      1.323
REMARK  Name = 
REMARK  6 active torsions:
REMARK  status: ('A' for Active; 'I' for Inactive)
REMARK    1  A    between atoms: O_1  and  C_2
REMARK    2  A    between atoms: C_2  and  C_3
REMARK    3  A    between atoms: C_6  and  C_7
REMARK    4  A    between atoms: C_7  and  N_8
REMARK    5  A    between atoms: C_11  and  C_12
REMARK    6  A    between atoms: C_18  and  C_19
REMARK                            x       y       z     vdW  Elec       q    Type
REMARK                         _______ _______ _______ _____ _____    ______ ____
ROOT
ATOM      1  N   UNL     1       7.914   7.980  17.253  0.00  0.00    +0.000 N 
ATOM      2  C   UNL     1       7.205   6.808  17.076  0.00  0.00    +0.000 A 
ATOM      3  N   UNL     1       7.291   6.248  15.865  0.00  0.00    +0.000 NA
ATOM      4  C   UNL     1       6.541   5.150  15.635  0.00  0.00    +0.000 A 
ATOM      5  C   UNL     1       5.729   4.584  16.593  0.00  0.00    +0.000 A 
ATOM      6  C   UNL     1       5.693   5.220  17.815  0.00  0.00    +0.000 A 
ATOM      7  N   UNL     1       6.442   6.325  18.064  0.00  0.00    +0.000 NA
ATOM      8  H   UNL     1       8.623   8.037  16.533  0.00  0.00    +0.000 HD
ENDROOT
BRANCH   4   9
ATOM      9  C   UNL     1       6.584   4.642  14.269  0.00  0.00    +0.000 A 
ATOM     10  C   UNL     1       5.921   3.639  13.591  0.00  0.00    +0.000 A 
ATOM     11  C   UNL     1       6.475   3.590  12.287  0.00  0.00    +0.000 A 
ATOM     12  C   UNL     1       7.429   4.577  12.243  0.00  0.00    +0.000 A 
ATOM     13  O   UNL     1       7.499   5.227  13.431  0.00  0.00    +0.000 OA
ENDBRANCH   4   9
BRANCH   6  14
ATOM     14  C   UNL     1       4.757   4.709  18.897  0.00  0.00    +0.000 C 
ATOM     15  F   UNL     1       5.248   3.616  19.558  0.00  0.00    +0.000 F 
ATOM     16  F   UNL     1       4.502   5.631  19.866  0.00  0.00    +0.000 F 
ATOM     17  F   UNL     1       3.545   4.317  18.412  0.00  0.00    +0.000 F 
ENDBRANCH   6  14
BRANCH   1  18
ATOM     18  C   UNL     1       8.369   8.259  18.598  0.00  0.00    +0.000 C 
BRANCH  18  22
ATOM     19  C   UNL     1       9.584  12.424  18.889  0.00  0.00    +0.000 A 
ATOM     20  C   UNL     1       9.926  11.503  19.888  0.00  0.00    +0.000 A 
ATOM     21  C   UNL     1       9.534  10.164  19.791  0.00  0.00    +0.000 A 
ATOM     22  C   UNL     1       8.779   9.712  18.699  0.00  0.00    +0.000 A 
ATOM     23  C   UNL     1       8.435  10.632  17.700  0.00  0.00    +0.000 A 
ATOM     24  C   UNL     1       8.827  11.971  17.798  0.00  0.00    +0.000 A 
BRANCH  19  25
ATOM     25  C   UNL     1       9.969  13.873  19.033  0.00  0.00    +0.000 C 
BRANCH  25  26
ATOM     26  O   UNL     1       8.821  14.704  19.141  0.00  0.00    +0.000 OA
ATOM     27  H   UNL     1       8.049  14.128  19.014  0.00  0.00    +0.000 HD
ENDBRANCH  25  26
ENDBRANCH  19  25
ENDBRANCH  18  22
ENDBRANCH   1  18
TORSDOF 6
ENDMDL
MODEL 6
REMARK VINA RESULT:      -7.9      5.773      6.982
REMARK  Name = 
REMARK  6 active torsions:
REMARK  status: ('A' for Active; 'I' for Inactive)
REMARK    1  A    between atoms: O_1  and  C_2
REMARK    2  A    between atoms: C_2  and  C_3
REMARK    3  A    between atoms: C_6  and  C_7
REMARK    4  A    between atoms: C_7  and  N_8
REMARK    5  A    between atoms: C_11  and  C_12
REMARK    6  A    between atoms: C_18  and  C_19
REMARK                            x       y       z     vdW  Elec       q    Type
REMARK                         _______ _______ _______ _____ _____    ______ ____
ROOT
ATOM      1  N   UNL     1       2.126   7.417  19.631  0.00  0.00    +0.000 N 
ATOM      2  C   UNL     1       2.463   6.158  19.176  0.00  0.00    +0.000 A 
ATOM      3  N   UNL     1       3.437   6.105  18.262  0.00  0.00    +0.000 NA
ATOM      4  C   UNL     1       3.729   4.898  17.735  0.00  0.00    +0.000 A 
ATOM      5  C   UNL     1       3.090   3.740  18.118  0.00  0.00    +0.000 A 
ATOM      6  C   UNL     1       2.096   3.876  19.063  0.00  0.00    +0.000 A 
ATOM      7  N   UNL     1       1.790   5.083  19.605  0.00  0.00    +0.000 NA
ATOM      8  H   UNL     1       2.891   8.047  19.426  0.00  0.00    +0.000 HD
ENDROOT
BRANCH   4   9
ATOM      9  C   UNL     1       4.720   4.909  16.665  0.00  0.00    +0.000 A 
ATOM     10  C   UNL     1       5.248   5.891  15.850  0.00  0.00    +0.000 A 
ATOM     11  C   UNL     1       6.126   5.241  14.945  0.00  0.00    +0.000 A 
ATOM     12  C   UNL     1       6.094   3.909  15.274  0.00  0.00    +0.000 A 
ATOM     13  O   UNL     1       5.255   3.695  16.318  0.00  0.00    +0.000 OA
ENDBRANCH   4   9
BRANCH   6  14
ATOM     14  C   UNL     1       1.285   2.659  19.476  0.00  0.00    +0.000 C 
ATOM     15  F   UNL     1       0.831   2.730  20.765  0.00  0.00    +0.000 F 
ATOM     16  F   UNL     1       0.173   2.471  18.713  0.00  0.00    +0.000 F 
ATOM     17  F   UNL     1       1.995   1.498  19.411  0.00  0.00    +0.000 F 
ENDBRANCH   6  14
BRANCH   1  18
ATOM     18  C   UNL     1       1.602   7.495  20.978  0.00  0.00    +0.000 C 
BRANCH  18  22
ATOM     19  C   UNL     1      -0.707  11.156  21.401  0.00  0.00    +0.000 A 
ATOM     20  C   UNL     1      -0.158  10.790  20.166  0.00  0.00    +0.000 A 
ATOM     21  C   UNL     1       0.584   9.611  20.033  0.00  0.00    +0.000 A 
ATOM     22  C   UNL     1       0.807   8.773  21.135  0.00  0.00    +0.000 A 
ATOM     23  C   UNL     1       0.261   9.139  22.372  0.00  0.00    +0.000 A 
ATOM     24  C   UNL     1      -0.480  10.318  22.504  0.00  0.00    +0.000 A 
BRANCH  19  25
ATOM     25  C   UNL     1      -1.458  12.453  21.539  0.00  0.00    +0.000 C 
BRANCH  25  26
ATOM     26  O   UNL     1      -2.654  12.442  20.771  0.00  0.00    +0.000 OA
ATOM     27  H   UNL     1      -3.375  12.678  21.378  0.00  0.00    +0.000 HD
ENDBRANCH  25  26
ENDBRANCH  19  25
ENDBRANCH  18  22
ENDBRANCH   1  18
TORSDOF 6
ENDMDL
MODEL 7
REMARK VINA RESULT:      -7.8      6.207      7.494
REMARK  Name = 
REMARK  6 active torsions:
REMARK  status: ('A' for Active; 'I' for Inactive)
REMARK    1  A    between atoms: O_1  and  C_2
REMARK    2  A    between atoms: C_2  and  C_3
REMARK    3  A    between atoms: C_6  and  C_7
REMARK    4  A    between atoms: C_7  and  N_8
REMARK    5  A    between atoms: C_11  and  C_12
REMARK    6  A    between atoms: C_18  and  C_19
REMARK                            x       y       z     vdW  Elec       q    Type
REMARK                         _______ _______ _______ _____ _____    ______ ____
ROOT
ATOM      1  N   UNL     1       1.770   7.735  20.191  0.00  0.00    +0.000 N 
ATOM      2  C   UNL     1       2.295   6.498  19.874  0.00  0.00    +0.000 A 
ATOM      3  N   UNL     1       3.076   6.451  18.791  0.00  0.00    +0.000 NA
ATOM      4  C   UNL     1       3.533   5.241  18.407  0.00  0.00    +0.000 A 
ATOM      5  C   UNL     1       3.250   4.082  19.094  0.00  0.00    +0.000 A 
ATOM      6  C   UNL     1       2.437   4.210  20.199  0.00  0.00    +0.000 A 
ATOM      7  N   UNL     1       1.969   5.421  20.600  0.00  0.00    +0.000 NA
ATOM      8  H   UNL     1       2.324   8.445  19.730  0.00  0.00    +0.000 HD
ENDROOT
BRANCH   4   9
ATOM      9  C   UNL     1       4.289   5.229  17.159  0.00  0.00    +0.000 A 
ATOM     10  C   UNL     1       4.816   4.233  16.361  0.00  0.00    +0.000 A 
ATOM     11  C   UNL     1       5.518   4.880  15.312  0.00  0.00    +0.000 A 
ATOM     12  C   UNL     1       5.361   6.227  15.523  0.00  0.00    +0.000 A 
ATOM     13  O   UNL     1       4.612   6.453  16.631  0.00  0.00    +0.000 OA
ENDBRANCH   4   9
BRANCH   6  14
ATOM     14  C   UNL     1       2.007   2.968  20.960  0.00  0.00    +0.000 C 
ATOM     15  F   UNL     1       3.007   2.438  21.729  0.00  0.00    +0.000 F 
ATOM     16  F   UNL     1       0.975   3.195  21.819  0.00  0.00    +0.000 F 
ATOM     17  F   UNL     1       1.609   1.953  20.143  0.00  0.00    +0.000 F 
ENDBRANCH   6  14
BRANCH   1  18
ATOM     18  C   UNL     1       1.491   7.976  21.590  0.00  0.00    +0.000 C 
BRANCH  18  22
ATOM     19  C   UNL     1      -1.274  11.309  21.982  0.00  0.00    +0.000 A 
ATOM     20  C   UNL     1      -0.941  10.517  23.088  0.00  0.00    +0.000 A 
ATOM     21  C   UNL     1      -0.051   9.445  22.959  0.00  0.00    +0.000 A 
ATOM     22  C   UNL     1       0.520   9.130  21.718  0.00  0.00    +0.000 A 
ATOM     23  C   UNL     1       0.186   9.920  20.610  0.00  0.00    +0.000 A 
ATOM     24  C   UNL     1      -0.705  10.991  20.740  0.00  0.00    +0.000 A 
BRANCH  19  25
ATOM     25  C   UNL     1      -2.274  12.426  22.127  0.00  0.00    +0.000 C 
BRANCH  25  26
ATOM     26  O   UNL     1      -3.328  12.064  23.010  0.00  0.00    +0.000 OA
ATOM     27  H   UNL     1      -3.978  12.785  22.975  0.00  0.00    +0.000 HD
ENDBRANCH  25  26
ENDBRANCH  19  25
ENDBRANCH  18  22
ENDBRANCH   1  18
TORSDOF 6
ENDMDL
MODEL 8
REMARK VINA RESULT:      -7.8      5.822      7.161
REMARK  Name = 
REMARK  6 active torsions:
REMARK  status: ('A' for Active; 'I' for Inactive)
REMARK    1  A    between atoms: O_1  and  C_2
REMARK    2  A    between atoms: C_2  and  C_3
REMARK    3  A    between atoms: C_6  and  C_7
REMARK    4  A    between atoms: C_7  and  N_8
REMARK    5  A    between atoms: C_11  and  C_12
REMARK    6  A    between atoms: C_18  and  C_19
REMARK                            x       y       z     vdW  Elec       q    Type
REMARK                         _______ _______ _______ _____ _____    ______ ____
ROOT
ATOM      1  N   UNL     1       2.174   7.434  19.967  0.00  0.00    +0.000 N 
ATOM      2  C   UNL     1       2.553   6.194  19.493  0.00  0.00    +0.000 A 
ATOM      3  N   UNL     1       3.622   6.173  18.691  0.00  0.00    +0.000 NA
ATOM      4  C   UNL     1       3.964   4.989  18.144  0.00  0.00    +0.000 A 
ATOM      5  C   UNL     1       3.281   3.821  18.399  0.00  0.00    +0.000 A 
ATOM      6  C   UNL     1       2.189   3.923  19.233  0.00  0.00    +0.000 A 
ATOM      7  N   UNL     1       1.831   5.107  19.794  0.00  0.00    +0.000 NA
ATOM      8  H   UNL     1       2.960   8.065  19.878  0.00  0.00    +0.000 HD
ENDROOT
BRANCH   4   9
ATOM      9  C   UNL     1       5.068   5.040  17.191  0.00  0.00    +0.000 A 
ATOM     10  C   UNL     1       5.213   5.527  15.908  0.00  0.00    +0.000 A 
ATOM     11  C   UNL     1       6.528   5.197  15.492  0.00  0.00    +0.000 A 
ATOM     12  C   UNL     1       7.110   4.547  16.551  0.00  0.00    +0.000 A 
ATOM     13  O   UNL     1       6.242   4.453  17.589  0.00  0.00    +0.000 OA
ENDBRANCH   4   9
BRANCH   6  14
ATOM     14  C   UNL     1       1.331   2.697  19.496  0.00  0.00    +0.000 C 
ATOM     15  F   UNL     1       0.737   2.713  20.728  0.00  0.00    +0.000 F 
ATOM     16  F   UNL     1       0.310   2.556  18.606  0.00  0.00    +0.000 F 
ATOM     17  F   UNL     1       2.038   1.533  19.456  0.00  0.00    +0.000 F 
ENDBRANCH   6  14
BRANCH   1  18
ATOM     18  C   UNL     1       1.503   7.455  21.250  0.00  0.00    +0.000 C 
BRANCH  18  22
ATOM     19  C   UNL     1      -0.781  11.134  21.639  0.00  0.00    +0.000 A 
ATOM     20  C   UNL     1      -0.551  10.309  22.747  0.00  0.00    +0.000 A 
ATOM     21  C   UNL     1       0.185   9.127  22.619  0.00  0.00    +0.000 A 
ATOM     22  C   UNL     1       0.700   8.731  21.376  0.00  0.00    +0.000 A 
ATOM     23  C   UNL     1       0.469   9.553  20.266  0.00  0.00    +0.000 A 
ATOM     24  C   UNL     1      -0.268  10.736  20.395  0.00  0.00    +0.000 A 
BRANCH  19  25
ATOM     25  C   UNL     1      -1.619  12.377  21.783  0.00  0.00    +0.000 C 
BRANCH  25  26
ATOM     26  O   UNL     1      -2.277  12.413  23.042  0.00  0.00    +0.000 OA
ATOM     27  H   UNL     1      -3.054  11.836  22.966  0.00  0.00    +0.000 HD
ENDBRANCH  25  26
ENDBRANCH  19  25
ENDBRANCH  18  22
ENDBRANCH   1  18
TORSDOF 6
ENDMDL
MODEL 9
REMARK VINA RESULT:      -7.8      5.779      7.092
REMARK  Name = 
REMARK  6 active torsions:
REMARK  status: ('A' for Active; 'I' for Inactive)
REMARK    1  A    between atoms: O_1  and  C_2
REMARK    2  A    between atoms: C_2  and  C_3
REMARK    3  A    between atoms: C_6  and  C_7
REMARK    4  A    between atoms: C_7  and  N_8
REMARK    5  A    between atoms: C_11  and  C_12
REMARK    6  A    between atoms: C_18  and  C_19
REMARK                            x       y       z     vdW  Elec       q    Type
REMARK                         _______ _______ _______ _____ _____    ______ ____
ROOT
ATOM      1  N   UNL     1       2.195   7.485  20.029  0.00  0.00    +0.000 N 
ATOM      2  C   UNL     1       2.600   6.184  19.809  0.00  0.00    +0.000 A 
ATOM      3  N   UNL     1       3.779   6.032  19.197  0.00  0.00    +0.000 NA
ATOM      4  C   UNL     1       4.161   4.775  18.890  0.00  0.00    +0.000 A 
ATOM      5  C   UNL     1       3.408   3.666  19.204  0.00  0.00    +0.000 A 
ATOM      6  C   UNL     1       2.205   3.904  19.833  0.00  0.00    +0.000 A 
ATOM      7  N   UNL     1       1.805   5.163  20.149  0.00  0.00    +0.000 NA
ATOM      8  H   UNL     1       3.006   8.088  19.972  0.00  0.00    +0.000 HD
ENDROOT
BRANCH   4   9
ATOM      9  C   UNL     1       5.400   4.670  18.127  0.00  0.00    +0.000 A 
ATOM     10  C   UNL     1       6.729   4.918  18.406  0.00  0.00    +0.000 A 
ATOM     11  C   UNL     1       7.447   4.695  17.203  0.00  0.00    +0.000 A 
ATOM     12  C   UNL     1       6.517   4.307  16.271  0.00  0.00    +0.000 A 
ATOM     13  O   UNL     1       5.276   4.279  16.818  0.00  0.00    +0.000 OA
ENDBRANCH   4   9
BRANCH   6  14
ATOM     14  C   UNL     1       1.275   2.740  20.135  0.00  0.00    +0.000 C 
ATOM     15  F   UNL     1       1.010   2.599  21.470  0.00  0.00    +0.000 F 
ATOM     16  F   UNL     1       0.058   2.856  19.536  0.00  0.00    +0.000 F 
ATOM     17  F   UNL     1       1.783   1.537  19.743  0.00  0.00    +0.000 F 
ENDBRANCH   6  14
BRANCH   1  18
ATOM     18  C   UNL     1       1.336   7.706  21.173  0.00  0.00    +0.000 C 
BRANCH  18  22
ATOM     19  C   UNL     1      -0.761  11.484  20.684  0.00  0.00    +0.000 A 
ATOM     20  C   UNL     1      -0.132  10.864  19.596  0.00  0.00    +0.000 A 
ATOM     21  C   UNL     1       0.541   9.648  19.757  0.00  0.00    +0.000 A 
ATOM     22  C   UNL     1       0.614   9.027  21.012  0.00  0.00    +0.000 A 
ATOM     23  C   UNL     1      -0.012   9.647  22.101  0.00  0.00    +0.000 A 
ATOM     24  C   UNL     1      -0.684  10.863  21.939  0.00  0.00    +0.000 A 
BRANCH  19  25
ATOM     25  C   UNL     1      -1.436  12.818  20.505  0.00  0.00    +0.000 C 
BRANCH  25  26
ATOM     26  O   UNL     1      -1.842  13.015  19.157  0.00  0.00    +0.000 OA
ATOM     27  H   UNL     1      -2.721  13.427  19.189  0.00  0.00    +0.000 HD
ENDBRANCH  25  26
ENDBRANCH  19  25
ENDBRANCH  18  22
ENDBRANCH   1  18
TORSDOF 6
ENDMDL
