MODEL 1
REMARK VINA RESULT:      -7.3      0.000      0.000
REMARK  Name = 
REMARK  3 active torsions:
REMARK  status: ('A' for Active; 'I' for Inactive)
REMARK    1  A    between atoms: C_1  and  C_2
REMARK    2  A    between atoms: C_7  and  C_9
REMARK    3  A    between atoms: C_12  and  N_13
REMARK                            x       y       z     vdW  Elec       q    Type
REMARK                         _______ _______ _______ _____ _____    ______ ____
ROOT
ATOM      1  C   UNL     1       2.481   7.583  18.760  0.00  0.00    +0.000 A 
ATOM      2  C   UNL     1       2.181   8.574  17.820  0.00  0.00    +0.000 A 
ATOM      3  C   UNL     1       1.380   9.668  18.158  0.00  0.00    +0.000 A 
ATOM      4  C   UNL     1       0.859   9.819  19.447  0.00  0.00    +0.000 A 
ATOM      5  C   UNL     1       1.143   8.804  20.378  0.00  0.00    +0.000 A 
ATOM      6  C   UNL     1       1.936   7.692  20.041  0.00  0.00    +0.000 A 
ENDROOT
BRANCH   1  13
ATOM      7  C   UNL     1       7.321   5.076  13.986  0.00  0.00    +0.000 C 
ATOM      8  C   UNL     1       6.308   4.924  15.058  0.00  0.00    +0.000 A 
ATOM      9  C   UNL     1       5.974   3.750  15.707  0.00  0.00    +0.000 A 
ATOM     10  S   UNL     1       4.810   4.065  16.914  0.00  0.00    +0.000 S 
ATOM     11  C   UNL     1       4.832   5.719  16.501  0.00  0.00    +0.000 A 
ATOM     12  N   UNL     1       4.046   6.654  17.133  0.00  0.00    +0.000 N 
ATOM     13  C   UNL     1       3.359   6.463  18.310  0.00  0.00    +0.000 C 
ATOM     14  O   UNL     1       3.392   5.459  19.017  0.00  0.00    +0.000 OA
ATOM     15  N   UNL     1       5.610   6.044  15.494  0.00  0.00    +0.000 NA
ATOM     16  H   UNL     1       4.045   7.544  16.660  0.00  0.00    +0.000 HD
ENDBRANCH   1  13
BRANCH   4  17
ATOM     17  N   UNL     1       0.090  10.962  19.807  0.00  0.00    +0.000 N 
ATOM     18  C   UNL     1      -1.307  11.098  19.463  0.00  0.00    +0.000 C 
ATOM     19  C   UNL     1      -1.653  12.528  19.820  0.00  0.00    +0.000 C 
ATOM     20  C   UNL     1      -0.715  12.853  20.964  0.00  0.00    +0.000 C 
ATOM     21  C   UNL     1       0.486  11.980  20.693  0.00  0.00    +0.000 C 
ATOM     22  O   UNL     1       1.568  12.176  21.223  0.00  0.00    +0.000 OA
ENDBRANCH   4  17
TORSDOF 2
ENDMDL
MODEL 2
REMARK VINA RESULT:      -7.2      1.017      1.332
REMARK  Name = 
REMARK  3 active torsions:
REMARK  status: ('A' for Active; 'I' for Inactive)
REMARK    1  A    between atoms: C_1  and  C_2
REMARK    2  A    between atoms: C_7  and  C_9
REMARK    3  A    between atoms: C_12  and  N_13
REMARK                            x       y       z     vdW  Elec       q    Type
REMARK                         _______ _______ _______ _____ _____    ______ ____
ROOT
ATOM      1  C   UNL     1       2.557   7.479  18.718  0.00  0.00    +0.000 A 
ATOM      2  C   UNL     1       2.254   8.493  17.804  0.00  0.00    +0.000 A 
ATOM      3  C   UNL     1       1.450   9.575  18.170  0.00  0.00    +0.000 A 
ATOM      4  C   UNL     1       0.929   9.691  19.463  0.00  0.00    +0.000 A 
ATOM      5  C   UNL     1       1.217   8.654  20.368  0.00  0.00    +0.000 A 
ATOM      6  C   UNL     1       2.013   7.553  20.002  0.00  0.00    +0.000 A 
ENDROOT
BRANCH   1  13
ATOM      7  C   UNL     1       7.376   5.099  13.858  0.00  0.00    +0.000 C 
ATOM      8  C   UNL     1       6.371   4.918  14.935  0.00  0.00    +0.000 A 
ATOM      9  C   UNL     1       6.049   3.729  15.561  0.00  0.00    +0.000 A 
ATOM     10  S   UNL     1       4.891   4.012  16.783  0.00  0.00    +0.000 S 
ATOM     11  C   UNL     1       4.901   5.675  16.404  0.00  0.00    +0.000 A 
ATOM     12  N   UNL     1       4.116   6.593  17.061  0.00  0.00    +0.000 N 
ATOM     13  C   UNL     1       3.438   6.373  18.238  0.00  0.00    +0.000 C 
ATOM     14  O   UNL     1       3.481   5.355  18.924  0.00  0.00    +0.000 OA
ATOM     15  N   UNL     1       5.671   6.025  15.398  0.00  0.00    +0.000 NA
ATOM     16  H   UNL     1       4.106   7.492  16.607  0.00  0.00    +0.000 HD
ENDBRANCH   1  13
BRANCH   4  17
ATOM     17  N   UNL     1       0.158  10.823  19.854  0.00  0.00    +0.000 N 
ATOM     18  C   UNL     1       0.705  11.900  20.646  0.00  0.00    +0.000 C 
ATOM     19  C   UNL     1      -0.492  12.748  21.020  0.00  0.00    +0.000 C 
ATOM     20  C   UNL     1      -1.454  12.544  19.870  0.00  0.00    +0.000 C 
ATOM     21  C   UNL     1      -1.121  11.158  19.374  0.00  0.00    +0.000 C 
ATOM     22  O   UNL     1      -1.875  10.523  18.654  0.00  0.00    +0.000 OA
ENDBRANCH   4  17
TORSDOF 2
ENDMDL
MODEL 3
REMARK VINA RESULT:      -7.2      1.007      1.450
REMARK  Name = 
REMARK  3 active torsions:
REMARK  status: ('A' for Active; 'I' for Inactive)
REMARK    1  A    between atoms: C_1  and  C_2
REMARK    2  A    between atoms: C_7  and  C_9
REMARK    3  A    between atoms: C_12  and  N_13
REMARK                            x       y       z     vdW  Elec       q    Type
REMARK                         _______ _______ _______ _____ _____    ______ ____
ROOT
ATOM      1  C   UNL     1       2.595   7.310  18.782  0.00  0.00    +0.000 A 
ATOM      2  C   UNL     1       2.204   7.187  20.118  0.00  0.00    +0.000 A 
ATOM      3  C   UNL     1       1.408   8.161  20.728  0.00  0.00    +0.000 A 
ATOM      4  C   UNL     1       0.964   9.284  20.023  0.00  0.00    +0.000 A 
ATOM      5  C   UNL     1       1.385   9.413  18.688  0.00  0.00    +0.000 A 
ATOM      6  C   UNL     1       2.200   8.445  18.072  0.00  0.00    +0.000 A 
ENDROOT
BRANCH   1  13
ATOM      7  C   UNL     1       7.472   5.178  13.864  0.00  0.00    +0.000 C 
ATOM      8  C   UNL     1       6.413   4.944  14.877  0.00  0.00    +0.000 A 
ATOM      9  C   UNL     1       5.997   3.717  15.356  0.00  0.00    +0.000 A 
ATOM     10  S   UNL     1       4.807   3.936  16.560  0.00  0.00    +0.000 S 
ATOM     11  C   UNL     1       4.928   5.627  16.368  0.00  0.00    +0.000 A 
ATOM     12  N   UNL     1       4.169   6.514  17.094  0.00  0.00    +0.000 N 
ATOM     13  C   UNL     1       3.431   6.210  18.215  0.00  0.00    +0.000 C 
ATOM     14  O   UNL     1       3.387   5.123  18.784  0.00  0.00    +0.000 OA
ATOM     15  N   UNL     1       5.758   6.035  15.435  0.00  0.00    +0.000 NA
ATOM     16  H   UNL     1       4.231   7.456  16.742  0.00  0.00    +0.000 HD
ENDBRANCH   1  13
BRANCH   4  17
ATOM     17  N   UNL     1       0.106  10.247  20.627  0.00  0.00    +0.000 N 
ATOM     18  C   UNL     1      -0.935  10.928  19.892  0.00  0.00    +0.000 C 
ATOM     19  C   UNL     1      -1.428  12.007  20.833  0.00  0.00    +0.000 C 
ATOM     20  C   UNL     1      -1.188  11.423  22.209  0.00  0.00    +0.000 C 
ATOM     21  C   UNL     1      -0.002  10.512  22.003  0.00  0.00    +0.000 C 
ATOM     22  O   UNL     1       0.670  10.095  22.933  0.00  0.00    +0.000 OA
ENDBRANCH   4  17
TORSDOF 2
ENDMDL
MODEL 4
REMARK VINA RESULT:      -7.2      1.062      1.709
REMARK  Name = 
REMARK  3 active torsions:
REMARK  status: ('A' for Active; 'I' for Inactive)
REMARK    1  A    between atoms: C_1  and  C_2
REMARK    2  A    between atoms: C_7  and  C_9
REMARK    3  A    between atoms: C_12  and  N_13
REMARK                            x       y       z     vdW  Elec       q    Type
REMARK                         _______ _______ _______ _____ _____    ______ ____
ROOT
ATOM      1  C   UNL     1       2.579   7.576  18.605  0.00  0.00    +0.000 A 
ATOM      2  C   UNL     1       2.103   7.523  19.918  0.00  0.00    +0.000 A 
ATOM      3  C   UNL     1       1.272   8.526  20.424  0.00  0.00    +0.000 A 
ATOM      4  C   UNL     1       0.877   9.611  19.635  0.00  0.00    +0.000 A 
ATOM      5  C   UNL     1       1.382   9.670  18.324  0.00  0.00    +0.000 A 
ATOM      6  C   UNL     1       2.232   8.673  17.813  0.00  0.00    +0.000 A 
ENDROOT
BRANCH   1  13
ATOM      7  C   UNL     1       7.423   5.057  13.840  0.00  0.00    +0.000 C 
ATOM      8  C   UNL     1       6.400   4.906  14.904  0.00  0.00    +0.000 A 
ATOM      9  C   UNL     1       6.048   3.731  15.539  0.00  0.00    +0.000 A 
ATOM     10  S   UNL     1       4.879   4.048  16.741  0.00  0.00    +0.000 S 
ATOM     11  C   UNL     1       4.923   5.706  16.344  0.00  0.00    +0.000 A 
ATOM     12  N   UNL     1       4.145   6.644  16.980  0.00  0.00    +0.000 N 
ATOM     13  C   UNL     1       3.447   6.450  18.150  0.00  0.00    +0.000 C 
ATOM     14  O   UNL     1       3.463   5.439  18.847  0.00  0.00    +0.000 OA
ATOM     15  N   UNL     1       5.713   6.031  15.345  0.00  0.00    +0.000 NA
ATOM     16  H   UNL     1       4.158   7.538  16.515  0.00  0.00    +0.000 HD
ENDBRANCH   1  13
BRANCH   4  17
ATOM     17  N   UNL     1      -0.016  10.603  20.132  0.00  0.00    +0.000 N 
ATOM     18  C   UNL     1       0.324  11.471  21.236  0.00  0.00    +0.000 C 
ATOM     19  C   UNL     1      -0.967  12.184  21.576  0.00  0.00    +0.000 C 
ATOM     20  C   UNL     1      -1.707  12.241  20.257  0.00  0.00    +0.000 C 
ATOM     21  C   UNL     1      -1.212  11.020  19.522  0.00  0.00    +0.000 C 
ATOM     22  O   UNL     1      -1.794  10.561  18.552  0.00  0.00    +0.000 OA
ENDBRANCH   4  17
TORSDOF 2
ENDMDL
MODEL 5
REMARK VINA RESULT:      -7.1      2.756      8.442
REMARK  Name = 
REMARK  3 active torsions:
REMARK  status: ('A' for Active; 'I' for Inactive)
REMARK    1  A    between atoms: C_1  and  C_2
REMARK    2  A    between atoms: C_7  and  C_9
REMARK    3  A    between atoms: C_12  and  N_13
REMARK                            x       y       z     vdW  Elec       q    Type
REMARK                         _______ _______ _______ _____ _____    ______ ____
ROOT
ATOM      1  C   UNL     1       2.372   7.323  19.433  0.00  0.00    +0.000 A 
ATOM      2  C   UNL     1       2.917   6.074  19.747  0.00  0.00    +0.000 A 
ATOM      3  C   UNL     1       3.802   5.436  18.874  0.00  0.00    +0.000 A 
ATOM      4  C   UNL     1       4.183   6.024  17.664  0.00  0.00    +0.000 A 
ATOM      5  C   UNL     1       3.610   7.268  17.345  0.00  0.00    +0.000 A 
ATOM      6  C   UNL     1       2.706   7.910  18.211  0.00  0.00    +0.000 A 
ENDROOT
BRANCH   1  13
ATOM      7  C   UNL     1      -1.808  12.917  21.368  0.00  0.00    +0.000 C 
ATOM      8  C   UNL     1      -1.036  11.679  21.633  0.00  0.00    +0.000 A 
ATOM      9  C   UNL     1      -0.984  10.988  22.828  0.00  0.00    +0.000 A 
ATOM     10  S   UNL     1      -0.028   9.586  22.648  0.00  0.00    +0.000 S 
ATOM     11  C   UNL     1       0.245   9.985  21.013  0.00  0.00    +0.000 A 
ATOM     12  N   UNL     1       1.019   9.215  20.177  0.00  0.00    +0.000 N 
ATOM     13  C   UNL     1       1.450   7.933  20.437  0.00  0.00    +0.000 C 
ATOM     14  O   UNL     1       1.156   7.251  21.414  0.00  0.00    +0.000 OA
ATOM     15  N   UNL     1      -0.287  11.116  20.606  0.00  0.00    +0.000 NA
ATOM     16  H   UNL     1       1.224   9.673  19.304  0.00  0.00    +0.000 HD
ENDBRANCH   1  13
BRANCH   4  17
ATOM     17  N   UNL     1       5.129   5.400  16.801  0.00  0.00    +0.000 N 
ATOM     18  C   UNL     1       4.819   4.212  16.039  0.00  0.00    +0.000 C 
ATOM     19  C   UNL     1       6.147   3.767  15.464  0.00  0.00    +0.000 C 
ATOM     20  C   UNL     1       6.926   5.056  15.314  0.00  0.00    +0.000 C 
ATOM     21  C   UNL     1       6.368   5.935  16.407  0.00  0.00    +0.000 C 
ATOM     22  O   UNL     1       6.944   6.938  16.795  0.00  0.00    +0.000 OA
ENDBRANCH   4  17
TORSDOF 2
ENDMDL
MODEL 6
REMARK VINA RESULT:      -7.1      2.501      8.582
REMARK  Name = 
REMARK  3 active torsions:
REMARK  status: ('A' for Active; 'I' for Inactive)
REMARK    1  A    between atoms: C_1  and  C_2
REMARK    2  A    between atoms: C_7  and  C_9
REMARK    3  A    between atoms: C_12  and  N_13
REMARK                            x       y       z     vdW  Elec       q    Type
REMARK                         _______ _______ _______ _____ _____    ______ ____
ROOT
ATOM      1  C   UNL     1       3.664   5.900  17.646  0.00  0.00    +0.000 A 
ATOM      2  C   UNL     1       4.321   6.810  16.813  0.00  0.00    +0.000 A 
ATOM      3  C   UNL     1       5.067   6.372  15.716  0.00  0.00    +0.000 A 
ATOM      4  C   UNL     1       5.174   5.014  15.403  0.00  0.00    +0.000 A 
ATOM      5  C   UNL     1       4.532   4.104  16.261  0.00  0.00    +0.000 A 
ATOM      6  C   UNL     1       3.792   4.535  17.378  0.00  0.00    +0.000 A 
ENDROOT
BRANCH   1  13
ATOM      7  C   UNL     1      -0.556  11.213  20.190  0.00  0.00    +0.000 C 
ATOM      8  C   UNL     1       0.343  10.042  20.336  0.00  0.00    +0.000 A 
ATOM      9  C   UNL     1       0.647   9.386  21.514  0.00  0.00    +0.000 A 
ATOM     10  S   UNL     1       1.666   8.056  21.192  0.00  0.00    +0.000 S 
ATOM     11  C   UNL     1       1.630   8.434  19.529  0.00  0.00    +0.000 A 
ATOM     12  N   UNL     1       2.312   7.703  18.585  0.00  0.00    +0.000 N 
ATOM     13  C   UNL     1       2.877   6.464  18.783  0.00  0.00    +0.000 C 
ATOM     14  O   UNL     1       2.805   5.786  19.804  0.00  0.00    +0.000 OA
ATOM     15  N   UNL     1       0.952   9.512  19.205  0.00  0.00    +0.000 NA
ATOM     16  H   UNL     1       2.332   8.154  17.684  0.00  0.00    +0.000 HD
ENDBRANCH   1  13
BRANCH   4  17
ATOM     17  N   UNL     1       5.887   4.571  14.252  0.00  0.00    +0.000 N 
ATOM     18  C   UNL     1       5.260   3.811  13.196  0.00  0.00    +0.000 C 
ATOM     19  C   UNL     1       6.405   3.358  12.315  0.00  0.00    +0.000 C 
ATOM     20  C   UNL     1       7.444   4.447  12.486  0.00  0.00    +0.000 C 
ATOM     21  C   UNL     1       7.182   4.968  13.877  0.00  0.00    +0.000 C 
ATOM     22  O   UNL     1       7.999   5.642  14.486  0.00  0.00    +0.000 OA
ENDBRANCH   4  17
TORSDOF 2
ENDMDL
MODEL 7
REMARK VINA RESULT:      -6.9      2.685      8.340
REMARK  Name = 
REMARK  3 active torsions:
REMARK  status: ('A' for Active; 'I' for Inactive)
REMARK    1  A    between atoms: C_1  and  C_2
REMARK    2  A    between atoms: C_7  and  C_9
REMARK    3  A    between atoms: C_12  and  N_13
REMARK                            x       y       z     vdW  Elec       q    Type
REMARK                         _______ _______ _______ _____ _____    ______ ____
ROOT
ATOM      1  C   UNL     1       2.649   6.976  19.415  0.00  0.00    +0.000 A 
ATOM      2  C   UNL     1       2.946   7.633  18.217  0.00  0.00    +0.000 A 
ATOM      3  C   UNL     1       3.846   7.085  17.299  0.00  0.00    +0.000 A 
ATOM      4  C   UNL     1       4.473   5.858  17.537  0.00  0.00    +0.000 A 
ATOM      5  C   UNL     1       4.189   5.217  18.756  0.00  0.00    +0.000 A 
ATOM      6  C   UNL     1       3.296   5.770  19.693  0.00  0.00    +0.000 A 
ENDROOT
BRANCH   1  13
ATOM      7  C   UNL     1      -1.306  12.829  21.029  0.00  0.00    +0.000 C 
ATOM      8  C   UNL     1      -0.664  11.528  21.342  0.00  0.00    +0.000 A 
ATOM      9  C   UNL     1      -0.805  10.808  22.513  0.00  0.00    +0.000 A 
ATOM     10  S   UNL     1       0.060   9.341  22.400  0.00  0.00    +0.000 S 
ATOM     11  C   UNL     1       0.553   9.756  20.821  0.00  0.00    +0.000 A 
ATOM     12  N   UNL     1       1.361   8.948  20.057  0.00  0.00    +0.000 N 
ATOM     13  C   UNL     1       1.663   7.632  20.323  0.00  0.00    +0.000 C 
ATOM     14  O   UNL     1       1.206   6.952  21.238  0.00  0.00    +0.000 OA
ATOM     15  N   UNL     1       0.157  10.934  20.392  0.00  0.00    +0.000 NA
ATOM     16  H   UNL     1       1.701   9.410  19.229  0.00  0.00    +0.000 HD
ENDBRANCH   1  13
BRANCH   4  17
ATOM     17  N   UNL     1       5.346   5.272  16.577  0.00  0.00    +0.000 N 
ATOM     18  C   UNL     1       4.922   4.216  15.685  0.00  0.00    +0.000 C 
ATOM     19  C   UNL     1       6.197   3.740  15.021  0.00  0.00    +0.000 C 
ATOM     20  C   UNL     1       7.078   4.971  15.006  0.00  0.00    +0.000 C 
ATOM     21  C   UNL     1       6.617   5.749  16.214  0.00  0.00    +0.000 C 
ATOM     22  O   UNL     1       7.283   6.647  16.705  0.00  0.00    +0.000 OA
ENDBRANCH   4  17
TORSDOF 2
ENDMDL
MODEL 8
REMARK VINA RESULT:      -6.9      3.068      8.825
REMARK  Name = 
REMARK  3 active torsions:
REMARK  status: ('A' for Active; 'I' for Inactive)
REMARK    1  A    between atoms: C_1  and  C_2
REMARK    2  A    between atoms: C_7  and  C_9
REMARK    3  A    between atoms: C_12  and  N_13
REMARK                            x       y       z     vdW  Elec       q    Type
REMARK                         _______ _______ _______ _____ _____    ______ ____
ROOT
ATOM      1  C   UNL     1       1.235   9.045  20.007  0.00  0.00    +0.000 A 
ATOM      2  C   UNL     1       1.525   7.864  20.696  0.00  0.00    +0.000 A 
ATOM      3  C   UNL     1       2.117   6.778  20.046  0.00  0.00    +0.000 A 
ATOM      4  C   UNL     1       2.452   6.835  18.690  0.00  0.00    +0.000 A 
ATOM      5  C   UNL     1       2.133   8.017  17.998  0.00  0.00    +0.000 A 
ATOM      6  C   UNL     1       1.522   9.109  18.641  0.00  0.00    +0.000 A 
ENDROOT
BRANCH   1  13
ATOM      7  C   UNL     1      -4.124  13.874  20.695  0.00  0.00    +0.000 C 
ATOM      8  C   UNL     1      -2.776  13.330  20.993  0.00  0.00    +0.000 A 
ATOM      9  C   UNL     1      -1.890  13.811  21.939  0.00  0.00    +0.000 A 
ATOM     10  S   UNL     1      -0.495  12.830  21.980  0.00  0.00    +0.000 S 
ATOM     11  C   UNL     1      -1.156  11.842  20.757  0.00  0.00    +0.000 A 
ATOM     12  N   UNL     1      -0.496  10.750  20.244  0.00  0.00    +0.000 N 
ATOM     13  C   UNL     1       0.619  10.156  20.791  0.00  0.00    +0.000 C 
ATOM     14  O   UNL     1       1.157  10.457  21.853  0.00  0.00    +0.000 OA
ATOM     15  N   UNL     1      -2.323  12.222  20.287  0.00  0.00    +0.000 NA
ATOM     16  H   UNL     1      -0.938  10.383  19.417  0.00  0.00    +0.000 HD
ENDBRANCH   1  13
BRANCH   4  17
ATOM     17  N   UNL     1       3.107   5.750  18.041  0.00  0.00    +0.000 N 
ATOM     18  C   UNL     1       4.547   5.649  17.959  0.00  0.00    +0.000 C 
ATOM     19  C   UNL     1       4.798   4.502  17.004  0.00  0.00    +0.000 C 
ATOM     20  C   UNL     1       3.593   3.605  17.191  0.00  0.00    +0.000 C 
ATOM     21  C   UNL     1       2.500   4.563  17.595  0.00  0.00    +0.000 C 
ATOM     22  O   UNL     1       1.317   4.263  17.545  0.00  0.00    +0.000 OA
ENDBRANCH   4  17
TORSDOF 2
ENDMDL
MODEL 9
REMARK VINA RESULT:      -6.9      2.660      3.537
REMARK  Name = 
REMARK  3 active torsions:
REMARK  status: ('A' for Active; 'I' for Inactive)
REMARK    1  A    between atoms: C_1  and  C_2
REMARK    2  A    between atoms: C_7  and  C_9
REMARK    3  A    between atoms: C_12  and  N_13
REMARK                            x       y       z     vdW  Elec       q    Type
REMARK                         _______ _______ _______ _____ _____    ______ ____
ROOT
ATOM      1  C   UNL     1       1.157   8.946  20.311  0.00  0.00    +0.000 A 
ATOM      2  C   UNL     1       0.608  10.035  19.627  0.00  0.00    +0.000 A 
ATOM      3  C   UNL     1      -0.117  11.019  20.305  0.00  0.00    +0.000 A 
ATOM      4  C   UNL     1      -0.311  10.958  21.688  0.00  0.00    +0.000 A 
ATOM      5  C   UNL     1       0.221   9.845  22.364  0.00  0.00    +0.000 A 
ATOM      6  C   UNL     1       0.939   8.843  21.686  0.00  0.00    +0.000 A 
ENDROOT
BRANCH   1  13
ATOM      7  C   UNL     1       4.206   2.388  19.865  0.00  0.00    +0.000 C 
ATOM      8  C   UNL     1       4.006   3.794  19.437  0.00  0.00    +0.000 A 
ATOM      9  C   UNL     1       4.560   4.398  18.324  0.00  0.00    +0.000 A 
ATOM     10  S   UNL     1       3.996   6.003  18.193  0.00  0.00    +0.000 S 
ATOM     11  C   UNL     1       3.062   5.788  19.603  0.00  0.00    +0.000 A 
ATOM     12  N   UNL     1       2.278   6.784  20.136  0.00  0.00    +0.000 N 
ATOM     13  C   UNL     1       1.930   7.956  19.503  0.00  0.00    +0.000 C 
ATOM     14  O   UNL     1       2.202   8.268  18.347  0.00  0.00    +0.000 OA
ATOM     15  N   UNL     1       3.181   4.619  20.192  0.00  0.00    +0.000 NA
ATOM     16  H   UNL     1       1.933   6.558  21.055  0.00  0.00    +0.000 HD
ENDBRANCH   1  13
BRANCH   4  17
ATOM     17  N   UNL     1      -1.001  11.989  22.387  0.00  0.00    +0.000 N 
ATOM     18  C   UNL     1      -2.232  11.751  23.106  0.00  0.00    +0.000 C 
ATOM     19  C   UNL     1      -2.730  13.129  23.484  0.00  0.00    +0.000 C 
ATOM     20  C   UNL     1      -1.463  13.948  23.615  0.00  0.00    +0.000 C 
ATOM     21  C   UNL     1      -0.510  13.278  22.657  0.00  0.00    +0.000 C 
ATOM     22  O   UNL     1       0.509  13.823  22.262  0.00  0.00    +0.000 OA
ENDBRANCH   4  17
TORSDOF 2
ENDMDL
