MODEL 1
REMARK VINA RESULT:      -9.0      0.000      0.000
REMARK  Name = 
REMARK  2 active torsions:
REMARK  status: ('A' for Active; 'I' for Inactive)
REMARK    1  A    between atoms: N_5  and  C_6
REMARK    2  A    between atoms: C_15  and  N_16
REMARK                            x       y       z     vdW  Elec       q    Type
REMARK                         _______ _______ _______ _____ _____    ______ ____
ROOT
ATOM      1  O   UNL     1       5.015   1.154  19.925  0.00  0.00    +0.000 OA
ATOM      2  C   UNL     1       4.387   2.194  20.099  0.00  0.00    +0.000 A 
ATOM      3  N   UNL     1       4.531   3.274  19.283  0.00  0.00    +0.000 NA
ATOM      4  C   UNL     1       3.800   4.352  19.366  0.00  0.00    +0.000 A 
ATOM      5  N   UNL     1       3.943   5.439  18.444  0.00  0.00    +0.000 N 
ATOM      6  C   UNL     1       3.099   6.604  18.644  0.00  0.00    +0.000 A 
ATOM      7  C   UNL     1       3.083   7.699  17.754  0.00  0.00    +0.000 A 
ATOM      8  C   UNL     1       2.330   8.853  18.001  0.00  0.00    +0.000 A 
ATOM      9  C   UNL     1       1.496   8.902  19.115  0.00  0.00    +0.000 A 
ATOM     10  C   UNL     1       1.416   7.805  19.979  0.00  0.00    +0.000 A 
ATOM     11  C   UNL     1       2.214   6.667  19.747  0.00  0.00    +0.000 A 
ATOM     12  C   UNL     1       2.077   5.531  20.656  0.00  0.00    +0.000 A 
ATOM     13  C   UNL     1       2.810   4.426  20.477  0.00  0.00    +0.000 A 
ATOM     14  C   UNL     1       2.658   3.283  21.394  0.00  0.00    +0.000 A 
ATOM     15  O   UNL     1       1.845   3.254  22.306  0.00  0.00    +0.000 OA
ATOM     16  N   UNL     1       3.498   2.253  21.129  0.00  0.00    +0.000 N 
ATOM     17  H   UNL     1       3.418   1.421  21.693  0.00  0.00    +0.000 HD
ENDROOT
BRANCH   5  18
ATOM     18  C   UNL     1       4.964   5.345  17.418  0.00  0.00    +0.000 A 
ATOM     19  C   UNL     1       4.733   4.658  16.208  0.00  0.00    +0.000 A 
ATOM     20  C   UNL     1       5.736   4.490  15.249  0.00  0.00    +0.000 A 
ATOM     21  C   UNL     1       6.979   5.082  15.431  0.00  0.00    +0.000 A 
ATOM     22  C   UNL     1       7.226   5.812  16.586  0.00  0.00    +0.000 A 
ATOM     23  C   UNL     1       6.248   5.900  17.584  0.00  0.00    +0.000 A 
ENDBRANCH   5  18
BRANCH   9  24
ATOM     24  N   UNL     1       0.675  10.092  19.354  0.00  0.00    +0.000 N 
ATOM     25  O   UNL     1       0.856  10.715  20.412  0.00  0.00    +0.000 OA
ATOM     26  O   UNL     1      -0.154  10.406  18.489  0.00  0.00    +0.000 OA
ENDBRANCH   9  24
TORSDOF 2
ENDMDL
MODEL 2
REMARK VINA RESULT:      -9.0      0.369      1.027
REMARK  Name = 
REMARK  2 active torsions:
REMARK  status: ('A' for Active; 'I' for Inactive)
REMARK    1  A    between atoms: N_5  and  C_6
REMARK    2  A    between atoms: C_15  and  N_16
REMARK                            x       y       z     vdW  Elec       q    Type
REMARK                         _______ _______ _______ _____ _____    ______ ____
ROOT
ATOM      1  O   UNL     1       5.006   1.108  19.924  0.00  0.00    +0.000 OA
ATOM      2  C   UNL     1       4.386   2.154  20.093  0.00  0.00    +0.000 A 
ATOM      3  N   UNL     1       4.538   3.228  19.271  0.00  0.00    +0.000 NA
ATOM      4  C   UNL     1       3.817   4.313  19.349  0.00  0.00    +0.000 A 
ATOM      5  N   UNL     1       3.968   5.394  18.422  0.00  0.00    +0.000 N 
ATOM      6  C   UNL     1       3.133   6.567  18.615  0.00  0.00    +0.000 A 
ATOM      7  C   UNL     1       3.126   7.657  17.720  0.00  0.00    +0.000 A 
ATOM      8  C   UNL     1       2.382   8.819  17.962  0.00  0.00    +0.000 A 
ATOM      9  C   UNL     1       1.549   8.880  19.076  0.00  0.00    +0.000 A 
ATOM     10  C   UNL     1       1.461   7.788  19.945  0.00  0.00    +0.000 A 
ATOM     11  C   UNL     1       2.249   6.642  19.719  0.00  0.00    +0.000 A 
ATOM     12  C   UNL     1       2.103   5.513  20.634  0.00  0.00    +0.000 A 
ATOM     13  C   UNL     1       2.827   4.401  20.460  0.00  0.00    +0.000 A 
ATOM     14  C   UNL     1       2.666   3.264  21.383  0.00  0.00    +0.000 A 
ATOM     15  O   UNL     1       1.854   3.246  22.295  0.00  0.00    +0.000 OA
ATOM     16  N   UNL     1       3.497   2.225  21.123  0.00  0.00    +0.000 N 
ATOM     17  H   UNL     1       3.412   1.397  21.691  0.00  0.00    +0.000 HD
ENDROOT
BRANCH   5  18
ATOM     18  C   UNL     1       4.987   5.286  17.395  0.00  0.00    +0.000 A 
ATOM     19  C   UNL     1       6.260   5.871  17.553  0.00  0.00    +0.000 A 
ATOM     20  C   UNL     1       7.219   5.844  16.536  0.00  0.00    +0.000 A 
ATOM     21  C   UNL     1       6.966   5.153  15.360  0.00  0.00    +0.000 A 
ATOM     22  C   UNL     1       5.743   4.518  15.189  0.00  0.00    +0.000 A 
ATOM     23  C   UNL     1       4.753   4.625  16.173  0.00  0.00    +0.000 A 
ENDBRANCH   5  18
BRANCH   9  24
ATOM     24  N   UNL     1       0.738  10.078  19.309  0.00  0.00    +0.000 N 
ATOM     25  O   UNL     1       1.301  11.181  19.227  0.00  0.00    +0.000 OA
ATOM     26  O   UNL     1      -0.461   9.921  19.577  0.00  0.00    +0.000 OA
ENDBRANCH   9  24
TORSDOF 2
ENDMDL
MODEL 3
REMARK VINA RESULT:      -8.7      2.624      6.652
REMARK  Name = 
REMARK  2 active torsions:
REMARK  status: ('A' for Active; 'I' for Inactive)
REMARK    1  A    between atoms: N_5  and  C_6
REMARK    2  A    between atoms: C_15  and  N_16
REMARK                            x       y       z     vdW  Elec       q    Type
REMARK                         _______ _______ _______ _____ _____    ______ ____
ROOT
ATOM      1  O   UNL     1       0.042   8.897  20.916  0.00  0.00    +0.000 OA
ATOM      2  C   UNL     1       0.917   8.649  20.091  0.00  0.00    +0.000 A 
ATOM      3  N   UNL     1       1.412   7.394  19.915  0.00  0.00    +0.000 NA
ATOM      4  C   UNL     1       2.257   7.069  18.974  0.00  0.00    +0.000 A 
ATOM      5  N   UNL     1       2.703   5.721  18.786  0.00  0.00    +0.000 N 
ATOM      6  C   UNL     1       3.665   5.474  17.725  0.00  0.00    +0.000 A 
ATOM      7  C   UNL     1       4.113   4.180  17.385  0.00  0.00    +0.000 A 
ATOM      8  C   UNL     1       5.103   3.961  16.420  0.00  0.00    +0.000 A 
ATOM      9  C   UNL     1       5.612   5.041  15.703  0.00  0.00    +0.000 A 
ATOM     10  C   UNL     1       5.135   6.333  15.949  0.00  0.00    +0.000 A 
ATOM     11  C   UNL     1       4.173   6.548  16.955  0.00  0.00    +0.000 A 
ATOM     12  C   UNL     1       3.680   7.908  17.158  0.00  0.00    +0.000 A 
ATOM     13  C   UNL     1       2.763   8.164  18.099  0.00  0.00    +0.000 A 
ATOM     14  C   UNL     1       2.265   9.537  18.290  0.00  0.00    +0.000 A 
ATOM     15  O   UNL     1       2.605  10.481  17.592  0.00  0.00    +0.000 OA
ATOM     16  N   UNL     1       1.381   9.663  19.310  0.00  0.00    +0.000 N 
ATOM     17  H   UNL     1       0.969  10.569  19.470  0.00  0.00    +0.000 HD
ENDROOT
BRANCH   5  18
ATOM     18  C   UNL     1       2.229   4.702  19.702  0.00  0.00    +0.000 A 
ATOM     19  C   UNL     1       2.836   4.497  20.958  0.00  0.00    +0.000 A 
ATOM     20  C   UNL     1       2.440   3.463  21.812  0.00  0.00    +0.000 A 
ATOM     21  C   UNL     1       1.363   2.656  21.475  0.00  0.00    +0.000 A 
ATOM     22  C   UNL     1       0.705   2.863  20.269  0.00  0.00    +0.000 A 
ATOM     23  C   UNL     1       1.163   3.839  19.378  0.00  0.00    +0.000 A 
ENDBRANCH   5  18
BRANCH   9  24
ATOM     24  N   UNL     1       6.619   4.810  14.663  0.00  0.00    +0.000 N 
ATOM     25  O   UNL     1       7.668   5.471  14.720  0.00  0.00    +0.000 OA
ATOM     26  O   UNL     1       6.364   3.973  13.787  0.00  0.00    +0.000 OA
ENDBRANCH   9  24
TORSDOF 2
ENDMDL
MODEL 4
REMARK VINA RESULT:      -8.7      2.642      6.600
REMARK  Name = 
REMARK  2 active torsions:
REMARK  status: ('A' for Active; 'I' for Inactive)
REMARK    1  A    between atoms: N_5  and  C_6
REMARK    2  A    between atoms: C_15  and  N_16
REMARK                            x       y       z     vdW  Elec       q    Type
REMARK                         _______ _______ _______ _____ _____    ______ ____
ROOT
ATOM      1  O   UNL     1       0.084   8.801  20.926  0.00  0.00    +0.000 OA
ATOM      2  C   UNL     1       0.956   8.566  20.094  0.00  0.00    +0.000 A 
ATOM      3  N   UNL     1       1.460   7.316  19.906  0.00  0.00    +0.000 NA
ATOM      4  C   UNL     1       2.302   7.005  18.958  0.00  0.00    +0.000 A 
ATOM      5  N   UNL     1       2.758   5.662  18.758  0.00  0.00    +0.000 N 
ATOM      6  C   UNL     1       3.715   5.430  17.689  0.00  0.00    +0.000 A 
ATOM      7  C   UNL     1       4.171   4.142  17.337  0.00  0.00    +0.000 A 
ATOM      8  C   UNL     1       5.157   3.938  16.365  0.00  0.00    +0.000 A 
ATOM      9  C   UNL     1       5.652   5.026  15.651  0.00  0.00    +0.000 A 
ATOM     10  C   UNL     1       5.166   6.312  15.909  0.00  0.00    +0.000 A 
ATOM     11  C   UNL     1       4.208   6.513  16.923  0.00  0.00    +0.000 A 
ATOM     12  C   UNL     1       3.705   7.867  17.138  0.00  0.00    +0.000 A 
ATOM     13  C   UNL     1       2.793   8.109  18.086  0.00  0.00    +0.000 A 
ATOM     14  C   UNL     1       2.285   9.477  18.290  0.00  0.00    +0.000 A 
ATOM     15  O   UNL     1       2.613  10.428  17.596  0.00  0.00    +0.000 OA
ATOM     16  N   UNL     1       1.407   9.589  19.316  0.00  0.00    +0.000 N 
ATOM     17  H   UNL     1       0.988  10.490  19.485  0.00  0.00    +0.000 HD
ENDROOT
BRANCH   5  18
ATOM     18  C   UNL     1       2.298   4.632  19.670  0.00  0.00    +0.000 A 
ATOM     19  C   UNL     1       1.203   3.802  19.356  0.00  0.00    +0.000 A 
ATOM     20  C   UNL     1       0.699   2.865  20.263  0.00  0.00    +0.000 A 
ATOM     21  C   UNL     1       1.333   2.666  21.481  0.00  0.00    +0.000 A 
ATOM     22  C   UNL     1       2.449   3.428  21.804  0.00  0.00    +0.000 A 
ATOM     23  C   UNL     1       2.892   4.428  20.931  0.00  0.00    +0.000 A 
ENDBRANCH   5  18
BRANCH   9  24
ATOM     24  N   UNL     1       6.655   4.811  14.604  0.00  0.00    +0.000 N 
ATOM     25  O   UNL     1       6.405   3.964  13.733  0.00  0.00    +0.000 OA
ATOM     26  O   UNL     1       7.693   5.484  14.651  0.00  0.00    +0.000 OA
ENDBRANCH   9  24
TORSDOF 2
ENDMDL
MODEL 5
REMARK VINA RESULT:      -8.0      3.534      6.066
REMARK  Name = 
REMARK  2 active torsions:
REMARK  status: ('A' for Active; 'I' for Inactive)
REMARK    1  A    between atoms: N_5  and  C_6
REMARK    2  A    between atoms: C_15  and  N_16
REMARK                            x       y       z     vdW  Elec       q    Type
REMARK                         _______ _______ _______ _____ _____    ______ ____
ROOT
ATOM      1  O   UNL     1       8.818   5.817  13.059  0.00  0.00    +0.000 OA
ATOM      2  C   UNL     1       7.850   5.305  13.615  0.00  0.00    +0.000 A 
ATOM      3  N   UNL     1       7.473   5.648  14.877  0.00  0.00    +0.000 NA
ATOM      4  C   UNL     1       6.388   5.213  15.457  0.00  0.00    +0.000 A 
ATOM      5  N   UNL     1       5.997   5.651  16.764  0.00  0.00    +0.000 N 
ATOM      6  C   UNL     1       4.785   5.083  17.328  0.00  0.00    +0.000 A 
ATOM      7  C   UNL     1       4.250   5.497  18.566  0.00  0.00    +0.000 A 
ATOM      8  C   UNL     1       3.130   4.884  19.140  0.00  0.00    +0.000 A 
ATOM      9  C   UNL     1       2.459   3.887  18.437  0.00  0.00    +0.000 A 
ATOM     10  C   UNL     1       2.905   3.503  17.168  0.00  0.00    +0.000 A 
ATOM     11  C   UNL     1       4.061   4.093  16.620  0.00  0.00    +0.000 A 
ATOM     12  C   UNL     1       4.475   3.686  15.279  0.00  0.00    +0.000 A 
ATOM     13  C   UNL     1       5.564   4.219  14.713  0.00  0.00    +0.000 A 
ATOM     14  C   UNL     1       5.967   3.808  13.358  0.00  0.00    +0.000 A 
ATOM     15  O   UNL     1       5.327   3.025  12.672  0.00  0.00    +0.000 OA
ATOM     16  N   UNL     1       7.116   4.386  12.928  0.00  0.00    +0.000 N 
ATOM     17  H   UNL     1       7.428   4.180  11.992  0.00  0.00    +0.000 HD
ENDROOT
BRANCH   5  18
ATOM     18  C   UNL     1       6.865   6.573  17.472  0.00  0.00    +0.000 A 
ATOM     19  C   UNL     1       6.950   7.932  17.110  0.00  0.00    +0.000 A 
ATOM     20  C   UNL     1       7.845   8.810  17.731  0.00  0.00    +0.000 A 
ATOM     21  C   UNL     1       8.621   8.373  18.796  0.00  0.00    +0.000 A 
ATOM     22  C   UNL     1       8.524   7.053  19.216  0.00  0.00    +0.000 A 
ATOM     23  C   UNL     1       7.695   6.157  18.532  0.00  0.00    +0.000 A 
ENDBRANCH   5  18
BRANCH   9  24
ATOM     24  N   UNL     1       1.262   3.271  19.017  0.00  0.00    +0.000 N 
ATOM     25  O   UNL     1       0.753   2.317  18.410  0.00  0.00    +0.000 OA
ATOM     26  O   UNL     1       0.826   3.742  20.077  0.00  0.00    +0.000 OA
ENDBRANCH   9  24
TORSDOF 2
ENDMDL
MODEL 6
REMARK VINA RESULT:      -7.9      3.525      6.103
REMARK  Name = 
REMARK  2 active torsions:
REMARK  status: ('A' for Active; 'I' for Inactive)
REMARK    1  A    between atoms: N_5  and  C_6
REMARK    2  A    between atoms: C_15  and  N_16
REMARK                            x       y       z     vdW  Elec       q    Type
REMARK                         _______ _______ _______ _____ _____    ______ ____
ROOT
ATOM      1  O   UNL     1       8.778   5.840  12.986  0.00  0.00    +0.000 OA
ATOM      2  C   UNL     1       7.831   5.311  13.563  0.00  0.00    +0.000 A 
ATOM      3  N   UNL     1       7.486   5.637  14.838  0.00  0.00    +0.000 NA
ATOM      4  C   UNL     1       6.423   5.183  15.444  0.00  0.00    +0.000 A 
ATOM      5  N   UNL     1       6.064   5.603  16.766  0.00  0.00    +0.000 N 
ATOM      6  C   UNL     1       4.874   5.016  17.357  0.00  0.00    +0.000 A 
ATOM      7  C   UNL     1       4.370   5.411  18.614  0.00  0.00    +0.000 A 
ATOM      8  C   UNL     1       3.273   4.779  19.212  0.00  0.00    +0.000 A 
ATOM      9  C   UNL     1       2.593   3.782  18.517  0.00  0.00    +0.000 A 
ATOM     10  C   UNL     1       3.008   3.417  17.232  0.00  0.00    +0.000 A 
ATOM     11  C   UNL     1       4.142   4.025  16.659  0.00  0.00    +0.000 A 
ATOM     12  C   UNL     1       4.522   3.636  15.303  0.00  0.00    +0.000 A 
ATOM     13  C   UNL     1       5.589   4.188  14.712  0.00  0.00    +0.000 A 
ATOM     14  C   UNL     1       5.959   3.796  13.342  0.00  0.00    +0.000 A 
ATOM     15  O   UNL     1       5.308   3.013  12.665  0.00  0.00    +0.000 OA
ATOM     16  N   UNL     1       7.088   4.391  12.887  0.00  0.00    +0.000 N 
ATOM     17  H   UNL     1       7.377   4.199  11.940  0.00  0.00    +0.000 HD
ENDROOT
BRANCH   5  18
ATOM     18  C   UNL     1       6.941   6.527  17.459  0.00  0.00    +0.000 A 
ATOM     19  C   UNL     1       7.781   6.102  18.508  0.00  0.00    +0.000 A 
ATOM     20  C   UNL     1       8.568   6.998  19.238  0.00  0.00    +0.000 A 
ATOM     21  C   UNL     1       8.606   8.339  18.881  0.00  0.00    +0.000 A 
ATOM     22  C   UNL     1       7.833   8.786  17.818  0.00  0.00    +0.000 A 
ATOM     23  C   UNL     1       6.978   7.901  17.150  0.00  0.00    +0.000 A 
ENDBRANCH   5  18
BRANCH   9  24
ATOM     24  N   UNL     1       1.420   3.147  19.124  0.00  0.00    +0.000 N 
ATOM     25  O   UNL     1       0.951   3.663  20.150  0.00  0.00    +0.000 OA
ATOM     26  O   UNL     1       0.966   2.131  18.579  0.00  0.00    +0.000 OA
ENDBRANCH   9  24
TORSDOF 2
ENDMDL
MODEL 7
REMARK VINA RESULT:      -7.9      2.821      5.700
REMARK  Name = 
REMARK  2 active torsions:
REMARK  status: ('A' for Active; 'I' for Inactive)
REMARK    1  A    between atoms: N_5  and  C_6
REMARK    2  A    between atoms: C_15  and  N_16
REMARK                            x       y       z     vdW  Elec       q    Type
REMARK                         _______ _______ _______ _____ _____    ______ ____
ROOT
ATOM      1  O   UNL     1       0.916   3.233  21.405  0.00  0.00    +0.000 OA
ATOM      2  C   UNL     1       1.677   3.184  20.443  0.00  0.00    +0.000 A 
ATOM      3  N   UNL     1       2.027   4.294  19.738  0.00  0.00    +0.000 NA
ATOM      4  C   UNL     1       2.918   4.301  18.784  0.00  0.00    +0.000 A 
ATOM      5  N   UNL     1       3.302   5.506  18.111  0.00  0.00    +0.000 N 
ATOM      6  C   UNL     1       4.284   5.397  17.047  0.00  0.00    +0.000 A 
ATOM      7  C   UNL     1       4.807   6.519  16.370  0.00  0.00    +0.000 A 
ATOM      8  C   UNL     1       5.688   6.397  15.288  0.00  0.00    +0.000 A 
ATOM      9  C   UNL     1       6.139   5.135  14.910  0.00  0.00    +0.000 A 
ATOM     10  C   UNL     1       5.712   4.001  15.608  0.00  0.00    +0.000 A 
ATOM     11  C   UNL     1       4.789   4.130  16.665  0.00  0.00    +0.000 A 
ATOM     12  C   UNL     1       4.393   2.923  17.387  0.00  0.00    +0.000 A 
ATOM     13  C   UNL     1       3.522   2.994  18.400  0.00  0.00    +0.000 A 
ATOM     14  C   UNL     1       3.136   1.772  19.127  0.00  0.00    +0.000 A 
ATOM     15  O   UNL     1       3.610   0.670  18.895  0.00  0.00    +0.000 OA
ATOM     16  N   UNL     1       2.207   1.979  20.093  0.00  0.00    +0.000 N 
ATOM     17  H   UNL     1       1.928   1.193  20.658  0.00  0.00    +0.000 HD
ENDROOT
BRANCH   5  18
ATOM     18  C   UNL     1       2.642   6.743  18.480  0.00  0.00    +0.000 A 
ATOM     19  C   UNL     1       2.284   7.706  17.514  0.00  0.00    +0.000 A 
ATOM     20  C   UNL     1       1.724   8.937  17.867  0.00  0.00    +0.000 A 
ATOM     21  C   UNL     1       1.421   9.208  19.195  0.00  0.00    +0.000 A 
ATOM     22  C   UNL     1       1.709   8.262  20.169  0.00  0.00    +0.000 A 
ATOM     23  C   UNL     1       2.354   7.069  19.820  0.00  0.00    +0.000 A 
ENDBRANCH   5  18
BRANCH   9  24
ATOM     24  N   UNL     1       7.093   5.008  13.805  0.00  0.00    +0.000 N 
ATOM     25  O   UNL     1       6.807   4.227  12.884  0.00  0.00    +0.000 OA
ATOM     26  O   UNL     1       8.129   5.684  13.856  0.00  0.00    +0.000 OA
ENDBRANCH   9  24
TORSDOF 2
ENDMDL
MODEL 8
REMARK VINA RESULT:      -7.9      2.817      5.709
REMARK  Name = 
REMARK  2 active torsions:
REMARK  status: ('A' for Active; 'I' for Inactive)
REMARK    1  A    between atoms: N_5  and  C_6
REMARK    2  A    between atoms: C_15  and  N_16
REMARK                            x       y       z     vdW  Elec       q    Type
REMARK                         _______ _______ _______ _____ _____    ______ ____
ROOT
ATOM      1  O   UNL     1       1.050   3.295  21.470  0.00  0.00    +0.000 OA
ATOM      2  C   UNL     1       1.793   3.239  20.494  0.00  0.00    +0.000 A 
ATOM      3  N   UNL     1       2.126   4.343  19.772  0.00  0.00    +0.000 NA
ATOM      4  C   UNL     1       3.000   4.344  18.802  0.00  0.00    +0.000 A 
ATOM      5  N   UNL     1       3.367   5.543  18.111  0.00  0.00    +0.000 N 
ATOM      6  C   UNL     1       4.330   5.428  17.029  0.00  0.00    +0.000 A 
ATOM      7  C   UNL     1       4.836   6.545  16.332  0.00  0.00    +0.000 A 
ATOM      8  C   UNL     1       5.697   6.416  15.236  0.00  0.00    +0.000 A 
ATOM      9  C   UNL     1       6.146   5.152  14.862  0.00  0.00    +0.000 A 
ATOM     10  C   UNL     1       5.736   4.023  15.579  0.00  0.00    +0.000 A 
ATOM     11  C   UNL     1       4.832   4.159  16.651  0.00  0.00    +0.000 A 
ATOM     12  C   UNL     1       4.453   2.958  17.391  0.00  0.00    +0.000 A 
ATOM     13  C   UNL     1       3.601   3.035  18.420  0.00  0.00    +0.000 A 
ATOM     14  C   UNL     1       3.233   1.819  19.166  0.00  0.00    +0.000 A 
ATOM     15  O   UNL     1       3.707   0.717  18.935  0.00  0.00    +0.000 OA
ATOM     16  N   UNL     1       2.321   2.033  20.147  0.00  0.00    +0.000 N 
ATOM     17  H   UNL     1       2.055   1.250  20.724  0.00  0.00    +0.000 HD
ENDROOT
BRANCH   5  18
ATOM     18  C   UNL     1       2.709   6.782  18.480  0.00  0.00    +0.000 A 
ATOM     19  C   UNL     1       2.358   7.063  19.816  0.00  0.00    +0.000 A 
ATOM     20  C   UNL     1       1.649   8.215  20.170  0.00  0.00    +0.000 A 
ATOM     21  C   UNL     1       1.346   9.168  19.207  0.00  0.00    +0.000 A 
ATOM     22  C   UNL     1       1.724   8.952  17.888  0.00  0.00    +0.000 A 
ATOM     23  C   UNL     1       2.352   7.755  17.525  0.00  0.00    +0.000 A 
ENDBRANCH   5  18
BRANCH   9  24
ATOM     24  N   UNL     1       7.079   5.017  13.741  0.00  0.00    +0.000 N 
ATOM     25  O   UNL     1       8.124   5.686  13.776  0.00  0.00    +0.000 OA
ATOM     26  O   UNL     1       6.771   4.246  12.821  0.00  0.00    +0.000 OA
ENDBRANCH   9  24
TORSDOF 2
ENDMDL
MODEL 9
REMARK VINA RESULT:      -7.5      2.239      4.671
REMARK  Name = 
REMARK  2 active torsions:
REMARK  status: ('A' for Active; 'I' for Inactive)
REMARK    1  A    between atoms: N_5  and  C_6
REMARK    2  A    between atoms: C_15  and  N_16
REMARK                            x       y       z     vdW  Elec       q    Type
REMARK                         _______ _______ _______ _____ _____    ______ ____
ROOT
ATOM      1  O   UNL     1       5.294   2.931  16.685  0.00  0.00    +0.000 OA
ATOM      2  C   UNL     1       4.816   4.056  16.812  0.00  0.00    +0.000 A 
ATOM      3  N   UNL     1       3.919   4.356  17.791  0.00  0.00    +0.000 NA
ATOM      4  C   UNL     1       3.477   5.560  18.030  0.00  0.00    +0.000 A 
ATOM      5  N   UNL     1       2.582   5.840  19.113  0.00  0.00    +0.000 N 
ATOM      6  C   UNL     1       2.131   7.212  19.273  0.00  0.00    +0.000 A 
ATOM      7  C   UNL     1       1.320   7.629  20.350  0.00  0.00    +0.000 A 
ATOM      8  C   UNL     1       0.820   8.934  20.448  0.00  0.00    +0.000 A 
ATOM      9  C   UNL     1       1.197   9.885  19.504  0.00  0.00    +0.000 A 
ATOM     10  C   UNL     1       2.068   9.535  18.466  0.00  0.00    +0.000 A 
ATOM     11  C   UNL     1       2.527   8.209  18.349  0.00  0.00    +0.000 A 
ATOM     12  C   UNL     1       3.459   7.894  17.269  0.00  0.00    +0.000 A 
ATOM     13  C   UNL     1       3.927   6.649  17.118  0.00  0.00    +0.000 A 
ATOM     14  C   UNL     1       4.873   6.344  16.031  0.00  0.00    +0.000 A 
ATOM     15  O   UNL     1       5.314   7.187  15.264  0.00  0.00    +0.000 OA
ATOM     16  N   UNL     1       5.224   5.037  15.960  0.00  0.00    +0.000 N 
ATOM     17  H   UNL     1       5.901   4.765  15.264  0.00  0.00    +0.000 HD
ENDROOT
BRANCH   5  18
ATOM     18  C   UNL     1       2.126   4.736  19.935  0.00  0.00    +0.000 A 
ATOM     19  C   UNL     1       2.702   4.464  21.193  0.00  0.00    +0.000 A 
ATOM     20  C   UNL     1       2.327   3.354  21.955  0.00  0.00    +0.000 A 
ATOM     21  C   UNL     1       1.299   2.528  21.522  0.00  0.00    +0.000 A 
ATOM     22  C   UNL     1       0.670   2.796  20.313  0.00  0.00    +0.000 A 
ATOM     23  C   UNL     1       1.112   3.855  19.512  0.00  0.00    +0.000 A 
ENDBRANCH   5  18
BRANCH   9  24
ATOM     24  N   UNL     1       0.709  11.261  19.627  0.00  0.00    +0.000 N 
ATOM     25  O   UNL     1       1.057  11.909  20.626  0.00  0.00    +0.000 OA
ATOM     26  O   UNL     1      -0.026  11.696  18.729  0.00  0.00    +0.000 OA
ENDBRANCH   9  24
TORSDOF 2
ENDMDL
