MODEL 1
REMARK VINA RESULT:      -7.8      0.000      0.000
REMARK  Name = 
REMARK  8 active torsions:
REMARK  status: ('A' for Active; 'I' for Inactive)
REMARK    1  A    between atoms: C_1  and  O_2
REMARK    2  A    between atoms: O_2  and  C_3
REMARK    3  A    between atoms: C_3  and  C_4
REMARK    4  A    between atoms: C_4  and  C_5
REMARK    5  A    between atoms: C_4  and  O_6
REMARK    6  A    between atoms: O_6  and  C_7
REMARK    7  A    between atoms: C_13  and  C_14
REMARK    8  A    between atoms: C_16  and  N_17
REMARK                            x       y       z     vdW  Elec       q    Type
REMARK                         _______ _______ _______ _____ _____    ______ ____
ROOT
ATOM      1  C   UNL     1      -1.483  11.493  18.724  0.00  0.00    +0.000 A 
ATOM      2  C   UNL     1      -1.726  12.271  19.857  0.00  0.00    +0.000 A 
ATOM      3  C   UNL     1      -1.168  11.949  21.096  0.00  0.00    +0.000 A 
ATOM      4  C   UNL     1      -0.318  10.838  21.144  0.00  0.00    +0.000 A 
ATOM      5  N   UNL     1       0.350  10.271  22.184  0.00  0.00    +0.000 N 
ATOM      6  N   UNL     1       1.120   9.230  21.842  0.00  0.00    +0.000 NA
ATOM      7  C   UNL     1       0.953   9.105  20.508  0.00  0.00    +0.000 A 
ATOM      8  C   UNL     1       0.012  10.079  20.028  0.00  0.00    +0.000 A 
ATOM      9  C   UNL     1      -0.580  10.418  18.793  0.00  0.00    +0.000 A 
ATOM     10  H   UNL     1       0.331  10.552  23.155  0.00  0.00    +0.000 HD
ENDROOT
BRANCH   7  11
ATOM     11  C   UNL     1       1.707   8.089  19.753  0.00  0.00    +0.000 A 
ATOM     12  C   UNL     1       1.837   6.811  20.268  0.00  0.00    +0.000 A 
ATOM     13  C   UNL     1       2.590   5.891  19.568  0.00  0.00    +0.000 A 
ATOM     14  N   UNL     1       3.189   6.246  18.421  0.00  0.00    +0.000 NA
ATOM     15  C   UNL     1       2.993   7.502  17.986  0.00  0.00    +0.000 A 
ATOM     16  N   UNL     1       2.273   8.453  18.590  0.00  0.00    +0.000 NA
BRANCH  13  17
ATOM     17  N   UNL     1       2.757   4.606  20.071  0.00  0.00    +0.000 N 
ATOM     18  C   UNL     1       2.605   3.445  19.185  0.00  0.00    +0.000 C 
ATOM     19  C   UNL     1       1.683   2.482  19.932  0.00  0.00    +0.000 C 
ATOM     20  F   UNL     1       0.386   2.739  19.603  0.00  0.00    +0.000 F 
ATOM     21  C   UNL     1       1.901   2.808  21.391  0.00  0.00    +0.000 C 
ATOM     22  F   UNL     1       2.980   2.121  21.858  0.00  0.00    +0.000 F 
ATOM     23  C   UNL     1       2.201   4.305  21.400  0.00  0.00    +0.000 C 
ENDBRANCH  13  17
ENDBRANCH   7  11
BRANCH   1  24
ATOM     24  O   UNL     1      -2.031  11.720  17.490  0.00  0.00    +0.000 OA
BRANCH  24  25
ATOM     25  C   UNL     1      -2.763  10.635  16.887  0.00  0.00    +0.000 C 
ATOM     26  C   UNL     1      -4.081  10.498  17.638  0.00  0.00    +0.000 C 
BRANCH  25  27
ATOM     27  C   UNL     1      -3.026  10.965  15.409  0.00  0.00    +0.000 C 
BRANCH  27  29
ATOM     28  C   UNL     1      -3.666   9.888  13.411  0.00  0.00    +0.000 C 
ATOM     29  O   UNL     1      -3.834   9.940  14.821  0.00  0.00    +0.000 OA
ENDBRANCH  27  29
ENDBRANCH  25  27
ENDBRANCH  24  25
ENDBRANCH   1  24
TORSDOF 6
ENDMDL
MODEL 2
REMARK VINA RESULT:      -7.7      5.300      8.049
REMARK  Name = 
REMARK  8 active torsions:
REMARK  status: ('A' for Active; 'I' for Inactive)
REMARK    1  A    between atoms: C_1  and  O_2
REMARK    2  A    between atoms: O_2  and  C_3
REMARK    3  A    between atoms: C_3  and  C_4
REMARK    4  A    between atoms: C_4  and  C_5
REMARK    5  A    between atoms: C_4  and  O_6
REMARK    6  A    between atoms: O_6  and  C_7
REMARK    7  A    between atoms: C_13  and  C_14
REMARK    8  A    between atoms: C_16  and  N_17
REMARK                            x       y       z     vdW  Elec       q    Type
REMARK                         _______ _______ _______ _____ _____    ______ ____
ROOT
ATOM      1  C   UNL     1       5.493   3.995  13.666  0.00  0.00    +0.000 A 
ATOM      2  C   UNL     1       6.855   4.110  13.386  0.00  0.00    +0.000 A 
ATOM      3  C   UNL     1       7.692   4.918  14.158  0.00  0.00    +0.000 A 
ATOM      4  C   UNL     1       7.116   5.575  15.251  0.00  0.00    +0.000 A 
ATOM      5  N   UNL     1       7.653   6.429  16.162  0.00  0.00    +0.000 N 
ATOM      6  N   UNL     1       6.798   6.830  17.113  0.00  0.00    +0.000 NA
ATOM      7  C   UNL     1       5.638   6.206  16.814  0.00  0.00    +0.000 A 
ATOM      8  C   UNL     1       5.781   5.433  15.612  0.00  0.00    +0.000 A 
ATOM      9  C   UNL     1       4.955   4.622  14.805  0.00  0.00    +0.000 A 
ATOM     10  H   UNL     1       8.602   6.774  16.199  0.00  0.00    +0.000 HD
ENDROOT
BRANCH   7  11
ATOM     11  C   UNL     1       4.463   6.354  17.691  0.00  0.00    +0.000 A 
ATOM     12  C   UNL     1       4.123   5.329  18.556  0.00  0.00    +0.000 A 
ATOM     13  C   UNL     1       2.990   5.468  19.331  0.00  0.00    +0.000 A 
ATOM     14  N   UNL     1       2.237   6.574  19.228  0.00  0.00    +0.000 NA
ATOM     15  C   UNL     1       2.652   7.526  18.375  0.00  0.00    +0.000 A 
ATOM     16  N   UNL     1       3.739   7.482  17.597  0.00  0.00    +0.000 NA
BRANCH  13  17
ATOM     17  N   UNL     1       2.611   4.447  20.194  0.00  0.00    +0.000 N 
ATOM     18  C   UNL     1       3.207   3.112  20.061  0.00  0.00    +0.000 C 
ATOM     19  C   UNL     1       2.030   2.138  20.081  0.00  0.00    +0.000 C 
ATOM     20  F   UNL     1       1.587   1.925  18.810  0.00  0.00    +0.000 F 
ATOM     21  C   UNL     1       0.959   2.858  20.867  0.00  0.00    +0.000 C 
ATOM     22  F   UNL     1       1.147   2.643  22.199  0.00  0.00    +0.000 F 
ATOM     23  C   UNL     1       1.186   4.333  20.546  0.00  0.00    +0.000 C 
ENDBRANCH  13  17
ENDBRANCH   7  11
BRANCH   1  24
ATOM     24  O   UNL     1       4.603   3.260  12.928  0.00  0.00    +0.000 OA
BRANCH  24  25
ATOM     25  C   UNL     1       4.866   3.136  11.517  0.00  0.00    +0.000 C 
ATOM     26  C   UNL     1       5.506   1.772  11.289  0.00  0.00    +0.000 C 
BRANCH  25  27
ATOM     27  C   UNL     1       3.540   3.234  10.747  0.00  0.00    +0.000 C 
BRANCH  27  29
ATOM     28  C   UNL     1       2.329   4.548   9.208  0.00  0.00    +0.000 C 
ATOM     29  O   UNL     1       3.501   4.458  10.005  0.00  0.00    +0.000 OA
ENDBRANCH  27  29
ENDBRANCH  25  27
ENDBRANCH  24  25
ENDBRANCH   1  24
TORSDOF 6
ENDMDL
MODEL 3
REMARK VINA RESULT:      -7.7      4.917      7.493
REMARK  Name = 
REMARK  8 active torsions:
REMARK  status: ('A' for Active; 'I' for Inactive)
REMARK    1  A    between atoms: C_1  and  O_2
REMARK    2  A    between atoms: O_2  and  C_3
REMARK    3  A    between atoms: C_3  and  C_4
REMARK    4  A    between atoms: C_4  and  C_5
REMARK    5  A    between atoms: C_4  and  O_6
REMARK    6  A    between atoms: O_6  and  C_7
REMARK    7  A    between atoms: C_13  and  C_14
REMARK    8  A    between atoms: C_16  and  N_17
REMARK                            x       y       z     vdW  Elec       q    Type
REMARK                         _______ _______ _______ _____ _____    ______ ____
ROOT
ATOM      1  C   UNL     1       2.131   6.575  20.123  0.00  0.00    +0.000 A 
ATOM      2  C   UNL     1       1.256   5.668  20.723  0.00  0.00    +0.000 A 
ATOM      3  C   UNL     1       1.320   4.301  20.445  0.00  0.00    +0.000 A 
ATOM      4  C   UNL     1       2.327   3.873  19.573  0.00  0.00    +0.000 A 
ATOM      5  N   UNL     1       2.630   2.634  19.102  0.00  0.00    +0.000 N 
ATOM      6  N   UNL     1       3.711   2.595  18.310  0.00  0.00    +0.000 NA
ATOM      7  C   UNL     1       4.143   3.874  18.259  0.00  0.00    +0.000 A 
ATOM      8  C   UNL     1       3.267   4.728  19.011  0.00  0.00    +0.000 A 
ATOM      9  C   UNL     1       3.169   6.107  19.297  0.00  0.00    +0.000 A 
ATOM     10  H   UNL     1       2.145   1.768  19.289  0.00  0.00    +0.000 HD
ENDROOT
BRANCH   7  11
ATOM     11  C   UNL     1       5.371   4.218  17.522  0.00  0.00    +0.000 A 
ATOM     12  C   UNL     1       5.320   4.395  16.151  0.00  0.00    +0.000 A 
ATOM     13  C   UNL     1       6.491   4.666  15.475  0.00  0.00    +0.000 A 
ATOM     14  N   UNL     1       7.651   4.741  16.145  0.00  0.00    +0.000 NA
ATOM     15  C   UNL     1       7.606   4.573  17.478  0.00  0.00    +0.000 A 
ATOM     16  N   UNL     1       6.519   4.319  18.214  0.00  0.00    +0.000 NA
BRANCH  13  17
ATOM     17  N   UNL     1       6.474   4.829  14.095  0.00  0.00    +0.000 N 
ATOM     18  C   UNL     1       5.465   4.135  13.286  0.00  0.00    +0.000 C 
ATOM     19  C   UNL     1       6.240   3.481  12.142  0.00  0.00    +0.000 C 
ATOM     20  F   UNL     1       6.625   2.226  12.505  0.00  0.00    +0.000 F 
ATOM     21  C   UNL     1       7.467   4.349  11.975  0.00  0.00    +0.000 C 
ATOM     22  F   UNL     1       7.175   5.402  11.163  0.00  0.00    +0.000 F 
ATOM     23  C   UNL     1       7.763   4.853  13.386  0.00  0.00    +0.000 C 
ENDBRANCH  13  17
ENDBRANCH   7  11
BRANCH   1  24
ATOM     24  O   UNL     1       2.099   7.932  20.311  0.00  0.00    +0.000 OA
BRANCH  24  25
ATOM     25  C   UNL     1       0.927   8.479  20.946  0.00  0.00    +0.000 C 
ATOM     26  C   UNL     1       1.354   9.024  22.303  0.00  0.00    +0.000 C 
BRANCH  25  27
ATOM     27  C   UNL     1       0.365   9.612  20.072  0.00  0.00    +0.000 C 
BRANCH  27  29
ATOM     28  C   UNL     1       0.737  11.940  20.081  0.00  0.00    +0.000 C 
ATOM     29  O   UNL     1       0.294  10.821  20.835  0.00  0.00    +0.000 OA
ENDBRANCH  27  29
ENDBRANCH  25  27
ENDBRANCH  24  25
ENDBRANCH   1  24
TORSDOF 6
ENDMDL
MODEL 4
REMARK VINA RESULT:      -7.4      4.895      8.504
REMARK  Name = 
REMARK  8 active torsions:
REMARK  status: ('A' for Active; 'I' for Inactive)
REMARK    1  A    between atoms: C_1  and  O_2
REMARK    2  A    between atoms: O_2  and  C_3
REMARK    3  A    between atoms: C_3  and  C_4
REMARK    4  A    between atoms: C_4  and  C_5
REMARK    5  A    between atoms: C_4  and  O_6
REMARK    6  A    between atoms: O_6  and  C_7
REMARK    7  A    between atoms: C_13  and  C_14
REMARK    8  A    between atoms: C_16  and  N_17
REMARK                            x       y       z     vdW  Elec       q    Type
REMARK                         _______ _______ _______ _____ _____    ______ ____
ROOT
ATOM      1  C   UNL     1       2.880   6.379  19.223  0.00  0.00    +0.000 A 
ATOM      2  C   UNL     1       3.373   6.739  17.968  0.00  0.00    +0.000 A 
ATOM      3  C   UNL     1       3.004   7.938  17.356  0.00  0.00    +0.000 A 
ATOM      4  C   UNL     1       2.153   8.785  18.074  0.00  0.00    +0.000 A 
ATOM      5  N   UNL     1       1.611   9.990  17.749  0.00  0.00    +0.000 N 
ATOM      6  N   UNL     1       0.870  10.541  18.719  0.00  0.00    +0.000 NA
ATOM      7  C   UNL     1       0.927   9.656  19.738  0.00  0.00    +0.000 A 
ATOM      8  C   UNL     1       1.696   8.504  19.356  0.00  0.00    +0.000 A 
ATOM      9  C   UNL     1       2.072   7.277  19.943  0.00  0.00    +0.000 A 
ATOM     10  H   UNL     1       1.714  10.497  16.881  0.00  0.00    +0.000 HD
ENDROOT
BRANCH   7  11
ATOM     11  C   UNL     1       0.275   9.955  21.024  0.00  0.00    +0.000 A 
ATOM     12  C   UNL     1      -0.511  11.087  21.145  0.00  0.00    +0.000 A 
ATOM     13  C   UNL     1      -1.071  11.375  22.373  0.00  0.00    +0.000 A 
ATOM     14  N   UNL     1      -0.839  10.571  23.422  0.00  0.00    +0.000 NA
ATOM     15  C   UNL     1      -0.079   9.483  23.209  0.00  0.00    +0.000 A 
ATOM     16  N   UNL     1       0.493   9.122  22.055  0.00  0.00    +0.000 NA
BRANCH  13  17
ATOM     17  N   UNL     1      -1.848  12.516  22.531  0.00  0.00    +0.000 N 
ATOM     18  C   UNL     1      -3.107  12.450  23.283  0.00  0.00    +0.000 C 
ATOM     19  C   UNL     1      -4.144  13.145  22.401  0.00  0.00    +0.000 C 
ATOM     20  F   UNL     1      -4.736  12.232  21.580  0.00  0.00    +0.000 F 
ATOM     21  C   UNL     1      -3.339  14.115  21.567  0.00  0.00    +0.000 C 
ATOM     22  F   UNL     1      -3.163  15.275  22.258  0.00  0.00    +0.000 F 
ATOM     23  C   UNL     1      -1.993  13.419  21.378  0.00  0.00    +0.000 C 
ENDBRANCH  13  17
ENDBRANCH   7  11
BRANCH   1  24
ATOM     24  O   UNL     1       3.160   5.200  19.863  0.00  0.00    +0.000 OA
BRANCH  24  25
ATOM     25  C   UNL     1       3.135   3.999  19.067  0.00  0.00    +0.000 C 
ATOM     26  C   UNL     1       4.368   3.182  19.433  0.00  0.00    +0.000 C 
BRANCH  25  27
ATOM     27  C   UNL     1       1.858   3.207  19.392  0.00  0.00    +0.000 C 
BRANCH  27  29
ATOM     28  C   UNL     1       1.511   2.663  21.660  0.00  0.00    +0.000 C 
ATOM     29  O   UNL     1       1.326   3.642  20.648  0.00  0.00    +0.000 OA
ENDBRANCH  27  29
ENDBRANCH  25  27
ENDBRANCH  24  25
ENDBRANCH   1  24
TORSDOF 6
ENDMDL
MODEL 5
REMARK VINA RESULT:      -7.4      1.067      1.123
REMARK  Name = 
REMARK  8 active torsions:
REMARK  status: ('A' for Active; 'I' for Inactive)
REMARK    1  A    between atoms: C_1  and  O_2
REMARK    2  A    between atoms: O_2  and  C_3
REMARK    3  A    between atoms: C_3  and  C_4
REMARK    4  A    between atoms: C_4  and  C_5
REMARK    5  A    between atoms: C_4  and  O_6
REMARK    6  A    between atoms: O_6  and  C_7
REMARK    7  A    between atoms: C_13  and  C_14
REMARK    8  A    between atoms: C_16  and  N_17
REMARK                            x       y       z     vdW  Elec       q    Type
REMARK                         _______ _______ _______ _____ _____    ______ ____
ROOT
ATOM      1  C   UNL     1      -1.563  11.567  19.767  0.00  0.00    +0.000 A 
ATOM      2  C   UNL     1      -1.724  12.035  21.072  0.00  0.00    +0.000 A 
ATOM      3  C   UNL     1      -1.068  11.435  22.148  0.00  0.00    +0.000 A 
ATOM      4  C   UNL     1      -0.206  10.372  21.857  0.00  0.00    +0.000 A 
ATOM      5  N   UNL     1       0.548   9.586  22.673  0.00  0.00    +0.000 N 
ATOM      6  N   UNL     1       1.300   8.684  22.028  0.00  0.00    +0.000 NA
ATOM      7  C   UNL     1       1.030   8.886  20.721  0.00  0.00    +0.000 A 
ATOM      8  C   UNL     1       0.044   9.920  20.567  0.00  0.00    +0.000 A 
ATOM      9  C   UNL     1      -0.646  10.534  19.501  0.00  0.00    +0.000 A 
ATOM     10  H   UNL     1       0.602   9.619  23.681  0.00  0.00    +0.000 HD
ENDROOT
BRANCH   7  11
ATOM     11  C   UNL     1       1.733   8.110  19.685  0.00  0.00    +0.000 A 
ATOM     12  C   UNL     1       1.864   6.739  19.827  0.00  0.00    +0.000 A 
ATOM     13  C   UNL     1       2.570   6.040  18.871  0.00  0.00    +0.000 A 
ATOM     14  N   UNL     1       3.124   6.690  17.836  0.00  0.00    +0.000 NA
ATOM     15  C   UNL     1       2.931   8.018  17.767  0.00  0.00    +0.000 A 
ATOM     16  N   UNL     1       2.254   8.773  18.639  0.00  0.00    +0.000 NA
BRANCH  13  17
ATOM     17  N   UNL     1       2.736   4.666  18.998  0.00  0.00    +0.000 N 
ATOM     18  C   UNL     1       1.577   3.772  18.882  0.00  0.00    +0.000 C 
ATOM     19  C   UNL     1       1.668   2.832  20.084  0.00  0.00    +0.000 C 
ATOM     20  F   UNL     1       0.988   3.365  21.138  0.00  0.00    +0.000 F 
ATOM     21  C   UNL     1       3.142   2.786  20.415  0.00  0.00    +0.000 C 
ATOM     22  F   UNL     1       3.755   1.845  19.645  0.00  0.00    +0.000 F 
ATOM     23  C   UNL     1       3.654   4.174  20.037  0.00  0.00    +0.000 C 
ENDBRANCH  13  17
ENDBRANCH   7  11
BRANCH   1  24
ATOM     24  O   UNL     1      -2.208  12.074  18.670  0.00  0.00    +0.000 OA
BRANCH  24  25
ATOM     25  C   UNL     1      -2.961  11.147  17.865  0.00  0.00    +0.000 C 
ATOM     26  C   UNL     1      -4.417  11.596  17.890  0.00  0.00    +0.000 C 
BRANCH  25  27
ATOM     27  C   UNL     1      -2.422  11.177  16.426  0.00  0.00    +0.000 C 
BRANCH  27  29
ATOM     28  C   UNL     1      -3.372  10.109  14.551  0.00  0.00    +0.000 C 
ATOM     29  O   UNL     1      -3.514  11.156  15.500  0.00  0.00    +0.000 OA
ENDBRANCH  27  29
ENDBRANCH  25  27
ENDBRANCH  24  25
ENDBRANCH   1  24
TORSDOF 6
ENDMDL
MODEL 6
REMARK VINA RESULT:      -7.4      4.395      8.220
REMARK  Name = 
REMARK  8 active torsions:
REMARK  status: ('A' for Active; 'I' for Inactive)
REMARK    1  A    between atoms: C_1  and  O_2
REMARK    2  A    between atoms: O_2  and  C_3
REMARK    3  A    between atoms: C_3  and  C_4
REMARK    4  A    between atoms: C_4  and  C_5
REMARK    5  A    between atoms: C_4  and  O_6
REMARK    6  A    between atoms: O_6  and  C_7
REMARK    7  A    between atoms: C_13  and  C_14
REMARK    8  A    between atoms: C_16  and  N_17
REMARK                            x       y       z     vdW  Elec       q    Type
REMARK                         _______ _______ _______ _____ _____    ______ ____
ROOT
ATOM      1  C   UNL     1       5.151   3.932  19.192  0.00  0.00    +0.000 A 
ATOM      2  C   UNL     1       4.627   2.762  19.742  0.00  0.00    +0.000 A 
ATOM      3  C   UNL     1       3.378   2.745  20.366  0.00  0.00    +0.000 A 
ATOM      4  C   UNL     1       2.654   3.943  20.377  0.00  0.00    +0.000 A 
ATOM      5  N   UNL     1       1.441   4.246  20.911  0.00  0.00    +0.000 N 
ATOM      6  N   UNL     1       1.036   5.503  20.681  0.00  0.00    +0.000 NA
ATOM      7  C   UNL     1       2.033   6.056  19.957  0.00  0.00    +0.000 A 
ATOM      8  C   UNL     1       3.102   5.114  19.777  0.00  0.00    +0.000 A 
ATOM      9  C   UNL     1       4.375   5.105  19.168  0.00  0.00    +0.000 A 
ATOM     10  H   UNL     1       0.831   3.638  21.439  0.00  0.00    +0.000 HD
ENDROOT
BRANCH   7  11
ATOM     11  C   UNL     1       1.913   7.434  19.452  0.00  0.00    +0.000 A 
ATOM     12  C   UNL     1       1.326   8.404  20.246  0.00  0.00    +0.000 A 
ATOM     13  C   UNL     1       1.178   9.677  19.734  0.00  0.00    +0.000 A 
ATOM     14  N   UNL     1       1.588   9.950  18.486  0.00  0.00    +0.000 NA
ATOM     15  C   UNL     1       2.163   8.953  17.793  0.00  0.00    +0.000 A 
ATOM     16  N   UNL     1       2.357   7.698  18.212  0.00  0.00    +0.000 NA
BRANCH  13  17
ATOM     17  N   UNL     1       0.574  10.667  20.500  0.00  0.00    +0.000 N 
ATOM     18  C   UNL     1       0.816  10.727  21.947  0.00  0.00    +0.000 C 
ATOM     19  C   UNL     1      -0.567  10.864  22.584  0.00  0.00    +0.000 C 
ATOM     20  F   UNL     1      -1.075   9.628  22.851  0.00  0.00    +0.000 F 
ATOM     21  C   UNL     1      -1.408  11.528  21.518  0.00  0.00    +0.000 C 
ATOM     22  F   UNL     1      -1.252  12.879  21.588  0.00  0.00    +0.000 F 
ATOM     23  C   UNL     1      -0.826  11.011  20.205  0.00  0.00    +0.000 C 
ENDBRANCH  13  17
ENDBRANCH   7  11
BRANCH   1  24
ATOM     24  O   UNL     1       6.386   4.035  18.608  0.00  0.00    +0.000 OA
BRANCH  24  25
ATOM     25  C   UNL     1       6.691   5.270  17.930  0.00  0.00    +0.000 C 
ATOM     26  C   UNL     1       7.814   5.951  18.703  0.00  0.00    +0.000 C 
BRANCH  25  27
ATOM     27  C   UNL     1       7.148   4.957  16.496  0.00  0.00    +0.000 C 
BRANCH  27  29
ATOM     28  C   UNL     1       5.291   6.175  15.703  0.00  0.00    +0.000 C 
ATOM     29  O   UNL     1       6.696   5.986  15.610  0.00  0.00    +0.000 OA
ENDBRANCH  27  29
ENDBRANCH  25  27
ENDBRANCH  24  25
ENDBRANCH   1  24
TORSDOF 6
ENDMDL
MODEL 7
REMARK VINA RESULT:      -7.4      4.739      8.532
REMARK  Name = 
REMARK  8 active torsions:
REMARK  status: ('A' for Active; 'I' for Inactive)
REMARK    1  A    between atoms: C_1  and  O_2
REMARK    2  A    between atoms: O_2  and  C_3
REMARK    3  A    between atoms: C_3  and  C_4
REMARK    4  A    between atoms: C_4  and  C_5
REMARK    5  A    between atoms: C_4  and  O_6
REMARK    6  A    between atoms: O_6  and  C_7
REMARK    7  A    between atoms: C_13  and  C_14
REMARK    8  A    between atoms: C_16  and  N_17
REMARK                            x       y       z     vdW  Elec       q    Type
REMARK                         _______ _______ _______ _____ _____    ______ ____
ROOT
ATOM      1  C   UNL     1       4.198   4.611  17.138  0.00  0.00    +0.000 A 
ATOM      2  C   UNL     1       4.141   3.449  17.908  0.00  0.00    +0.000 A 
ATOM      3  C   UNL     1       3.582   3.449  19.187  0.00  0.00    +0.000 A 
ATOM      4  C   UNL     1       3.041   4.654  19.648  0.00  0.00    +0.000 A 
ATOM      5  N   UNL     1       2.454   4.973  20.832  0.00  0.00    +0.000 N 
ATOM      6  N   UNL     1       2.003   6.233  20.902  0.00  0.00    +0.000 NA
ATOM      7  C   UNL     1       2.307   6.772  19.702  0.00  0.00    +0.000 A 
ATOM      8  C   UNL     1       3.007   5.818  18.888  0.00  0.00    +0.000 A 
ATOM      9  C   UNL     1       3.594   5.792  17.605  0.00  0.00    +0.000 A 
ATOM     10  H   UNL     1       2.320   4.374  21.635  0.00  0.00    +0.000 HD
ENDROOT
BRANCH   7  11
ATOM     11  C   UNL     1       1.900   8.150  19.378  0.00  0.00    +0.000 A 
ATOM     12  C   UNL     1       1.411   8.972  20.378  0.00  0.00    +0.000 A 
ATOM     13  C   UNL     1       0.988  10.242  20.042  0.00  0.00    +0.000 A 
ATOM     14  N   UNL     1       1.043  10.652  18.766  0.00  0.00    +0.000 NA
ATOM     15  C   UNL     1       1.549   9.795  17.863  0.00  0.00    +0.000 A 
ATOM     16  N   UNL     1       1.991   8.555  18.100  0.00  0.00    +0.000 NA
BRANCH  13  17
ATOM     17  N   UNL     1       0.473  11.083  21.021  0.00  0.00    +0.000 N 
ATOM     18  C   UNL     1      -0.763  10.720  21.726  0.00  0.00    +0.000 C 
ATOM     19  C   UNL     1      -1.639  11.972  21.680  0.00  0.00    +0.000 C 
ATOM     20  F   UNL     1      -2.420  11.946  20.564  0.00  0.00    +0.000 F 
ATOM     21  C   UNL     1      -0.656  13.115  21.573  0.00  0.00    +0.000 C 
ATOM     22  F   UNL     1      -0.230  13.470  22.817  0.00  0.00    +0.000 F 
ATOM     23  C   UNL     1       0.510  12.533  20.777  0.00  0.00    +0.000 C 
ENDBRANCH  13  17
ENDBRANCH   7  11
BRANCH   1  24
ATOM     24  O   UNL     1       4.771   4.698  15.897  0.00  0.00    +0.000 OA
BRANCH  24  25
ATOM     25  C   UNL     1       6.052   4.062  15.719  0.00  0.00    +0.000 C 
ATOM     26  C   UNL     1       6.207   3.752  14.236  0.00  0.00    +0.000 C 
BRANCH  25  27
ATOM     27  C   UNL     1       7.159   5.024  16.179  0.00  0.00    +0.000 C 
BRANCH  27  29
ATOM     28  C   UNL     1       7.572   5.207  18.493  0.00  0.00    +0.000 C 
ATOM     29  O   UNL     1       7.843   4.471  17.308  0.00  0.00    +0.000 OA
ENDBRANCH  27  29
ENDBRANCH  25  27
ENDBRANCH  24  25
ENDBRANCH   1  24
TORSDOF 6
ENDMDL
MODEL 8
REMARK VINA RESULT:      -7.4      4.875      8.787
REMARK  Name = 
REMARK  8 active torsions:
REMARK  status: ('A' for Active; 'I' for Inactive)
REMARK    1  A    between atoms: C_1  and  O_2
REMARK    2  A    between atoms: O_2  and  C_3
REMARK    3  A    between atoms: C_3  and  C_4
REMARK    4  A    between atoms: C_4  and  C_5
REMARK    5  A    between atoms: C_4  and  O_6
REMARK    6  A    between atoms: O_6  and  C_7
REMARK    7  A    between atoms: C_13  and  C_14
REMARK    8  A    between atoms: C_16  and  N_17
REMARK                            x       y       z     vdW  Elec       q    Type
REMARK                         _______ _______ _______ _____ _____    ______ ____
ROOT
ATOM      1  C   UNL     1       6.737   5.934  16.448  0.00  0.00    +0.000 A 
ATOM      2  C   UNL     1       6.827   4.958  15.455  0.00  0.00    +0.000 A 
ATOM      3  C   UNL     1       5.880   3.938  15.347  0.00  0.00    +0.000 A 
ATOM      4  C   UNL     1       4.812   3.961  16.251  0.00  0.00    +0.000 A 
ATOM      5  N   UNL     1       3.760   3.113  16.410  0.00  0.00    +0.000 N 
ATOM      6  N   UNL     1       2.893   3.484  17.362  0.00  0.00    +0.000 NA
ATOM      7  C   UNL     1       3.397   4.635  17.855  0.00  0.00    +0.000 A 
ATOM      8  C   UNL     1       4.640   4.954  17.208  0.00  0.00    +0.000 A 
ATOM      9  C   UNL     1       5.622   5.963  17.304  0.00  0.00    +0.000 A 
ATOM     10  H   UNL     1       3.569   2.265  15.895  0.00  0.00    +0.000 HD
ENDROOT
BRANCH   7  11
ATOM     11  C   UNL     1       2.669   5.387  18.891  0.00  0.00    +0.000 A 
ATOM     12  C   UNL     1       2.506   6.755  18.757  0.00  0.00    +0.000 A 
ATOM     13  C   UNL     1       1.865   7.445  19.765  0.00  0.00    +0.000 A 
ATOM     14  N   UNL     1       1.425   6.793  20.852  0.00  0.00    +0.000 NA
ATOM     15  C   UNL     1       1.610   5.463  20.890  0.00  0.00    +0.000 A 
ATOM     16  N   UNL     1       2.208   4.713  19.958  0.00  0.00    +0.000 NA
BRANCH  13  17
ATOM     17  N   UNL     1       1.705   8.822  19.668  0.00  0.00    +0.000 N 
ATOM     18  C   UNL     1       0.830   9.529  20.613  0.00  0.00    +0.000 C 
ATOM     19  C   UNL     1      -0.058  10.425  19.751  0.00  0.00    +0.000 C 
ATOM     20  F   UNL     1      -1.192   9.752  19.404  0.00  0.00    +0.000 F 
ATOM     21  C   UNL     1       0.763  10.688  18.510  0.00  0.00    +0.000 C 
ATOM     22  F   UNL     1       1.598  11.741  18.728  0.00  0.00    +0.000 F 
ATOM     23  C   UNL     1       1.582   9.412  18.326  0.00  0.00    +0.000 C 
ENDBRANCH  13  17
ENDBRANCH   7  11
BRANCH   1  24
ATOM     24  O   UNL     1       7.652   6.935  16.643  0.00  0.00    +0.000 OA
BRANCH  24  25
ATOM     25  C   UNL     1       7.582   7.654  17.890  0.00  0.00    +0.000 C 
ATOM     26  C   UNL     1       8.330   6.833  18.934  0.00  0.00    +0.000 C 
BRANCH  25  27
ATOM     27  C   UNL     1       8.250   9.027  17.717  0.00  0.00    +0.000 C 
BRANCH  27  29
ATOM     28  C   UNL     1       9.272  10.736  18.980  0.00  0.00    +0.000 C 
ATOM     29  O   UNL     1       9.018   9.342  18.884  0.00  0.00    +0.000 OA
ENDBRANCH  27  29
ENDBRANCH  25  27
ENDBRANCH  24  25
ENDBRANCH   1  24
TORSDOF 6
ENDMDL
MODEL 9
REMARK VINA RESULT:      -7.3      4.935      8.430
REMARK  Name = 
REMARK  8 active torsions:
REMARK  status: ('A' for Active; 'I' for Inactive)
REMARK    1  A    between atoms: C_1  and  O_2
REMARK    2  A    between atoms: O_2  and  C_3
REMARK    3  A    between atoms: C_3  and  C_4
REMARK    4  A    between atoms: C_4  and  C_5
REMARK    5  A    between atoms: C_4  and  O_6
REMARK    6  A    between atoms: O_6  and  C_7
REMARK    7  A    between atoms: C_13  and  C_14
REMARK    8  A    between atoms: C_16  and  N_17
REMARK                            x       y       z     vdW  Elec       q    Type
REMARK                         _______ _______ _______ _____ _____    ______ ____
ROOT
ATOM      1  C   UNL     1       2.850   6.273  19.489  0.00  0.00    +0.000 A 
ATOM      2  C   UNL     1       3.383   6.540  18.227  0.00  0.00    +0.000 A 
ATOM      3  C   UNL     1       3.055   7.702  17.528  0.00  0.00    +0.000 A 
ATOM      4  C   UNL     1       2.202   8.611  18.165  0.00  0.00    +0.000 A 
ATOM      5  N   UNL     1       1.693   9.801  17.745  0.00  0.00    +0.000 N 
ATOM      6  N   UNL     1       0.938  10.429  18.656  0.00  0.00    +0.000 NA
ATOM      7  C   UNL     1       0.952   9.613  19.732  0.00  0.00    +0.000 A 
ATOM      8  C   UNL     1       1.706   8.425  19.449  0.00  0.00    +0.000 A 
ATOM      9  C   UNL     1       2.042   7.232  20.126  0.00  0.00    +0.000 A 
ATOM     10  H   UNL     1       1.829  10.247  16.849  0.00  0.00    +0.000 HD
ENDROOT
BRANCH   7  11
ATOM     11  C   UNL     1       0.272  10.009  20.978  0.00  0.00    +0.000 A 
ATOM     12  C   UNL     1      -0.451  11.189  21.017  0.00  0.00    +0.000 A 
ATOM     13  C   UNL     1      -1.037  11.565  22.208  0.00  0.00    +0.000 A 
ATOM     14  N   UNL     1      -0.889  10.800  23.300  0.00  0.00    +0.000 NA
ATOM     15  C   UNL     1      -0.186   9.663  23.167  0.00  0.00    +0.000 A 
ATOM     16  N   UNL     1       0.404   9.215  22.054  0.00  0.00    +0.000 NA
BRANCH  13  17
ATOM     17  N   UNL     1      -1.752  12.754  22.283  0.00  0.00    +0.000 N 
ATOM     18  C   UNL     1      -1.694  13.570  23.503  0.00  0.00    +0.000 C 
ATOM     19  C   UNL     1      -3.148  13.902  23.838  0.00  0.00    +0.000 C 
ATOM     20  F   UNL     1      -3.661  12.943  24.659  0.00  0.00    +0.000 F 
ATOM     21  C   UNL     1      -3.862  13.852  22.507  0.00  0.00    +0.000 C 
ATOM     22  F   UNL     1      -3.743  15.054  21.878  0.00  0.00    +0.000 F 
ATOM     23  C   UNL     1      -3.111  12.782  21.719  0.00  0.00    +0.000 C 
ENDBRANCH  13  17
ENDBRANCH   7  11
BRANCH   1  24
ATOM     24  O   UNL     1       3.089   5.135  20.214  0.00  0.00    +0.000 OA
BRANCH  24  25
ATOM     25  C   UNL     1       2.831   3.876  19.562  0.00  0.00    +0.000 C 
ATOM     26  C   UNL     1       3.130   2.771  20.568  0.00  0.00    +0.000 C 
BRANCH  25  27
ATOM     27  C   UNL     1       1.355   3.823  19.139  0.00  0.00    +0.000 C 
BRANCH  27  29
ATOM     28  C   UNL     1       2.471   3.206  17.155  0.00  0.00    +0.000 C 
ATOM     29  O   UNL     1       1.264   3.706  17.715  0.00  0.00    +0.000 OA
ENDBRANCH  27  29
ENDBRANCH  25  27
ENDBRANCH  24  25
ENDBRANCH   1  24
TORSDOF 6
ENDMDL
