MODEL 1
REMARK VINA RESULT:      -5.7      0.000      0.000
REMARK  Name = 
REMARK  7 active torsions:
REMARK  status: ('A' for Active; 'I' for Inactive)
REMARK    1  A    between atoms: C_1  and  C_2
REMARK    2  A    between atoms: C_2  and  C_3
REMARK    3  A    between atoms: C_3  and  C_4
REMARK    4  A    between atoms: C_6  and  C_7
REMARK    5  A    between atoms: C_7  and  O_9
REMARK    6  A    between atoms: C_11  and  C_12
REMARK    7  A    between atoms: C_12  and  C_13
REMARK                            x       y       z     vdW  Elec       q    Type
REMARK                         _______ _______ _______ _____ _____    ______ ____
ROOT
ATOM      1  C   UNL     1       3.502   5.176  17.896  0.00  0.00    +0.000 A 
ATOM      2  S   UNL     1       4.921   6.107  17.638  0.00  0.00    +0.000 S 
ATOM      3  C   UNL     1       5.724   4.839  16.839  0.00  0.00    +0.000 A 
ATOM      4  C   UNL     1       4.913   3.721  16.758  0.00  0.00    +0.000 A 
ATOM      5  C   UNL     1       3.621   3.893  17.370  0.00  0.00    +0.000 A 
ENDROOT
BRANCH   3   6
ATOM      6  C   UNL     1       7.081   4.975  16.341  0.00  0.00    +0.000 C 
ATOM      7  O   UNL     1       7.438   5.749  15.464  0.00  0.00    +0.000 OA
BRANCH   6   8
ATOM      8  O   UNL     1       7.959   4.132  16.950  0.00  0.00    +0.000 OA
ATOM      9  H   UNL     1       8.536   4.614  17.573  0.00  0.00    +0.000 HD
ENDBRANCH   6   8
ENDBRANCH   3   6
BRANCH   5  10
ATOM     10  C   UNL     1       2.621   2.765  17.445  0.00  0.00    +0.000 C 
ATOM     11  C   UNL     1       2.883   1.732  18.528  0.00  0.00    +0.000 C 
ENDBRANCH   5  10
BRANCH   1  12
ATOM     12  C   UNL     1       2.360   5.849  18.614  0.00  0.00    +0.000 C 
BRANCH  12  14
ATOM     13  C   UNL     1       1.269   4.548  20.466  0.00  0.00    +0.000 C 
ATOM     14  C   UNL     1       2.347   5.561  20.113  0.00  0.00    +0.000 C 
ENDBRANCH  12  14
ENDBRANCH   1  12
TORSDOF 5
ENDMDL
MODEL 2
REMARK VINA RESULT:      -5.7      1.483      2.782
REMARK  Name = 
REMARK  7 active torsions:
REMARK  status: ('A' for Active; 'I' for Inactive)
REMARK    1  A    between atoms: C_1  and  C_2
REMARK    2  A    between atoms: C_2  and  C_3
REMARK    3  A    between atoms: C_3  and  C_4
REMARK    4  A    between atoms: C_6  and  C_7
REMARK    5  A    between atoms: C_7  and  O_9
REMARK    6  A    between atoms: C_11  and  C_12
REMARK    7  A    between atoms: C_12  and  C_13
REMARK                            x       y       z     vdW  Elec       q    Type
REMARK                         _______ _______ _______ _____ _____    ______ ____
ROOT
ATOM      1  C   UNL     1       3.097   4.747  17.696  0.00  0.00    +0.000 A 
ATOM      2  S   UNL     1       4.365   3.772  17.075  0.00  0.00    +0.000 S 
ATOM      3  C   UNL     1       5.549   4.960  17.359  0.00  0.00    +0.000 A 
ATOM      4  C   UNL     1       4.983   6.085  17.933  0.00  0.00    +0.000 A 
ATOM      5  C   UNL     1       3.561   5.985  18.132  0.00  0.00    +0.000 A 
ENDROOT
BRANCH   3   6
ATOM      6  C   UNL     1       6.945   4.760  17.014  0.00  0.00    +0.000 C 
ATOM      7  O   UNL     1       7.456   5.046  15.941  0.00  0.00    +0.000 OA
BRANCH   6   8
ATOM      8  O   UNL     1       7.667   4.197  18.021  0.00  0.00    +0.000 OA
ATOM      9  H   UNL     1       7.789   3.240  17.876  0.00  0.00    +0.000 HD
ENDBRANCH   6   8
ENDBRANCH   3   6
BRANCH   5  10
ATOM     10  C   UNL     1       2.753   7.135  18.681  0.00  0.00    +0.000 C 
ATOM     11  C   UNL     1       2.476   8.264  17.704  0.00  0.00    +0.000 C 
ENDBRANCH   5  10
BRANCH   1  12
ATOM     12  C   UNL     1       1.711   4.153  17.697  0.00  0.00    +0.000 C 
BRANCH  12  14
ATOM     13  C   UNL     1       0.919   3.396  19.958  0.00  0.00    +0.000 C 
ATOM     14  C   UNL     1       1.571   2.970  18.652  0.00  0.00    +0.000 C 
ENDBRANCH  12  14
ENDBRANCH   1  12
TORSDOF 5
ENDMDL
MODEL 3
REMARK VINA RESULT:      -5.6      1.290      1.600
REMARK  Name = 
REMARK  7 active torsions:
REMARK  status: ('A' for Active; 'I' for Inactive)
REMARK    1  A    between atoms: C_1  and  C_2
REMARK    2  A    between atoms: C_2  and  C_3
REMARK    3  A    between atoms: C_3  and  C_4
REMARK    4  A    between atoms: C_6  and  C_7
REMARK    5  A    between atoms: C_7  and  O_9
REMARK    6  A    between atoms: C_11  and  C_12
REMARK    7  A    between atoms: C_12  and  C_13
REMARK                            x       y       z     vdW  Elec       q    Type
REMARK                         _______ _______ _______ _____ _____    ______ ____
ROOT
ATOM      1  C   UNL     1       3.947   4.483  19.116  0.00  0.00    +0.000 A 
ATOM      2  S   UNL     1       5.556   5.070  19.232  0.00  0.00    +0.000 S 
ATOM      3  C   UNL     1       5.921   4.668  17.620  0.00  0.00    +0.000 A 
ATOM      4  C   UNL     1       4.823   4.104  16.996  0.00  0.00    +0.000 A 
ATOM      5  C   UNL     1       3.668   3.982  17.848  0.00  0.00    +0.000 A 
ENDROOT
BRANCH   3   6
ATOM      6  C   UNL     1       7.232   4.904  17.042  0.00  0.00    +0.000 C 
ATOM      7  O   UNL     1       7.485   5.730  16.177  0.00  0.00    +0.000 OA
BRANCH   6   8
ATOM      8  O   UNL     1       8.196   4.093  17.559  0.00  0.00    +0.000 OA
ATOM      9  H   UNL     1       8.668   3.612  16.854  0.00  0.00    +0.000 HD
ENDBRANCH   6   8
ENDBRANCH   3   6
BRANCH   5  10
ATOM     10  C   UNL     1       2.394   3.328  17.370  0.00  0.00    +0.000 C 
ATOM     11  C   UNL     1       1.144   4.187  17.464  0.00  0.00    +0.000 C 
ENDBRANCH   5  10
BRANCH   1  12
ATOM     12  C   UNL     1       3.084   4.597  20.347  0.00  0.00    +0.000 C 
BRANCH  12  14
ATOM     13  C   UNL     1       1.238   3.017  20.987  0.00  0.00    +0.000 C 
ATOM     14  C   UNL     1       2.742   3.242  20.962  0.00  0.00    +0.000 C 
ENDBRANCH  12  14
ENDBRANCH   1  12
TORSDOF 5
ENDMDL
MODEL 4
REMARK VINA RESULT:      -5.4      2.126      3.241
REMARK  Name = 
REMARK  7 active torsions:
REMARK  status: ('A' for Active; 'I' for Inactive)
REMARK    1  A    between atoms: C_1  and  C_2
REMARK    2  A    between atoms: C_2  and  C_3
REMARK    3  A    between atoms: C_3  and  C_4
REMARK    4  A    between atoms: C_6  and  C_7
REMARK    5  A    between atoms: C_7  and  O_9
REMARK    6  A    between atoms: C_11  and  C_12
REMARK    7  A    between atoms: C_12  and  C_13
REMARK                            x       y       z     vdW  Elec       q    Type
REMARK                         _______ _______ _______ _____ _____    ______ ____
ROOT
ATOM      1  C   UNL     1       4.747   4.133  17.390  0.00  0.00    +0.000 A 
ATOM      2  S   UNL     1       5.384   4.561  18.926  0.00  0.00    +0.000 S 
ATOM      3  C   UNL     1       6.688   5.421  18.253  0.00  0.00    +0.000 A 
ATOM      4  C   UNL     1       6.630   5.394  16.871  0.00  0.00    +0.000 A 
ATOM      5  C   UNL     1       5.515   4.647  16.349  0.00  0.00    +0.000 A 
ENDROOT
BRANCH   3   6
ATOM      6  C   UNL     1       7.694   6.068  19.076  0.00  0.00    +0.000 C 
ATOM      7  O   UNL     1       8.340   7.055  18.758  0.00  0.00    +0.000 OA
BRANCH   6   8
ATOM      8  O   UNL     1       7.873   5.455  20.279  0.00  0.00    +0.000 OA
ATOM      9  H   UNL     1       7.296   5.845  20.963  0.00  0.00    +0.000 HD
ENDBRANCH   6   8
ENDBRANCH   3   6
BRANCH   5  10
ATOM     10  C   UNL     1       5.320   4.443  14.867  0.00  0.00    +0.000 C 
ATOM     11  C   UNL     1       6.595   4.291  14.055  0.00  0.00    +0.000 C 
ENDBRANCH   5  10
BRANCH   1  12
ATOM     12  C   UNL     1       3.487   3.305  17.376  0.00  0.00    +0.000 C 
BRANCH  12  14
ATOM     13  C   UNL     1       1.223   3.304  18.465  0.00  0.00    +0.000 C 
ATOM     14  C   UNL     1       2.234   4.122  17.677  0.00  0.00    +0.000 C 
ENDBRANCH  12  14
ENDBRANCH   1  12
TORSDOF 5
ENDMDL
MODEL 5
REMARK VINA RESULT:      -5.4      2.435      4.284
REMARK  Name = 
REMARK  7 active torsions:
REMARK  status: ('A' for Active; 'I' for Inactive)
REMARK    1  A    between atoms: C_1  and  C_2
REMARK    2  A    between atoms: C_2  and  C_3
REMARK    3  A    between atoms: C_3  and  C_4
REMARK    4  A    between atoms: C_6  and  C_7
REMARK    5  A    between atoms: C_7  and  O_9
REMARK    6  A    between atoms: C_11  and  C_12
REMARK    7  A    between atoms: C_12  and  C_13
REMARK                            x       y       z     vdW  Elec       q    Type
REMARK                         _______ _______ _______ _____ _____    ______ ____
ROOT
ATOM      1  C   UNL     1       5.470   4.653  16.304  0.00  0.00    +0.000 A 
ATOM      2  S   UNL     1       7.032   5.235  16.713  0.00  0.00    +0.000 S 
ATOM      3  C   UNL     1       6.677   5.307  18.375  0.00  0.00    +0.000 A 
ATOM      4  C   UNL     1       5.384   4.878  18.617  0.00  0.00    +0.000 A 
ATOM      5  C   UNL     1       4.664   4.499  17.429  0.00  0.00    +0.000 A 
ENDROOT
BRANCH   3   6
ATOM      6  C   UNL     1       7.644   5.772  19.353  0.00  0.00    +0.000 C 
ATOM      7  O   UNL     1       7.850   5.259  20.443  0.00  0.00    +0.000 OA
BRANCH   6   8
ATOM      8  O   UNL     1       8.326   6.877  18.943  0.00  0.00    +0.000 OA
ATOM      9  H   UNL     1       8.770   7.316  19.693  0.00  0.00    +0.000 HD
ENDBRANCH   6   8
ENDBRANCH   3   6
BRANCH   5  10
ATOM     10  C   UNL     1       3.218   4.071  17.479  0.00  0.00    +0.000 C 
ATOM     11  C   UNL     1       2.984   2.587  17.705  0.00  0.00    +0.000 C 
ENDBRANCH   5  10
BRANCH   1  12
ATOM     12  C   UNL     1       5.197   4.384  14.847  0.00  0.00    +0.000 C 
BRANCH  12  14
ATOM     13  C   UNL     1       6.115   3.503  12.680  0.00  0.00    +0.000 C 
ATOM     14  C   UNL     1       6.459   4.055  14.054  0.00  0.00    +0.000 C 
ENDBRANCH  12  14
ENDBRANCH   1  12
TORSDOF 5
ENDMDL
MODEL 6
REMARK VINA RESULT:      -5.4      1.040      1.391
REMARK  Name = 
REMARK  7 active torsions:
REMARK  status: ('A' for Active; 'I' for Inactive)
REMARK    1  A    between atoms: C_1  and  C_2
REMARK    2  A    between atoms: C_2  and  C_3
REMARK    3  A    between atoms: C_3  and  C_4
REMARK    4  A    between atoms: C_6  and  C_7
REMARK    5  A    between atoms: C_7  and  O_9
REMARK    6  A    between atoms: C_11  and  C_12
REMARK    7  A    between atoms: C_12  and  C_13
REMARK                            x       y       z     vdW  Elec       q    Type
REMARK                         _______ _______ _______ _____ _____    ______ ____
ROOT
ATOM      1  C   UNL     1       3.732   4.964  18.898  0.00  0.00    +0.000 A 
ATOM      2  S   UNL     1       5.341   5.500  19.167  0.00  0.00    +0.000 S 
ATOM      3  C   UNL     1       5.951   4.648  17.827  0.00  0.00    +0.000 A 
ATOM      4  C   UNL     1       4.936   3.973  17.174  0.00  0.00    +0.000 A 
ATOM      5  C   UNL     1       3.641   4.138  17.782  0.00  0.00    +0.000 A 
ENDROOT
BRANCH   3   6
ATOM      6  C   UNL     1       7.360   4.664  17.477  0.00  0.00    +0.000 C 
ATOM      7  O   UNL     1       8.275   4.323  18.212  0.00  0.00    +0.000 OA
BRANCH   6   8
ATOM      8  O   UNL     1       7.590   5.115  16.213  0.00  0.00    +0.000 OA
ATOM      9  H   UNL     1       7.850   6.056  16.216  0.00  0.00    +0.000 HD
ENDBRANCH   6   8
ENDBRANCH   3   6
BRANCH   5  10
ATOM     10  C   UNL     1       2.420   3.424  17.256  0.00  0.00    +0.000 C 
ATOM     11  C   UNL     1       2.236   1.998  17.746  0.00  0.00    +0.000 C 
ENDBRANCH   5  10
BRANCH   1  12
ATOM     12  C   UNL     1       2.677   5.451  19.858  0.00  0.00    +0.000 C 
BRANCH  12  14
ATOM     13  C   UNL     1       1.126   3.694  20.764  0.00  0.00    +0.000 C 
ATOM     14  C   UNL     1       2.411   4.472  20.999  0.00  0.00    +0.000 C 
ENDBRANCH  12  14
ENDBRANCH   1  12
TORSDOF 5
ENDMDL
MODEL 7
REMARK VINA RESULT:      -5.4      2.116      3.532
REMARK  Name = 
REMARK  7 active torsions:
REMARK  status: ('A' for Active; 'I' for Inactive)
REMARK    1  A    between atoms: C_1  and  C_2
REMARK    2  A    between atoms: C_2  and  C_3
REMARK    3  A    between atoms: C_3  and  C_4
REMARK    4  A    between atoms: C_6  and  C_7
REMARK    5  A    between atoms: C_7  and  O_9
REMARK    6  A    between atoms: C_11  and  C_12
REMARK    7  A    between atoms: C_12  and  C_13
REMARK                            x       y       z     vdW  Elec       q    Type
REMARK                         _______ _______ _______ _____ _____    ______ ____
ROOT
ATOM      1  C   UNL     1       4.944   3.980  17.212  0.00  0.00    +0.000 A 
ATOM      2  S   UNL     1       5.350   4.487  18.801  0.00  0.00    +0.000 S 
ATOM      3  C   UNL     1       6.848   5.132  18.318  0.00  0.00    +0.000 A 
ATOM      4  C   UNL     1       7.030   4.974  16.955  0.00  0.00    +0.000 A 
ATOM      5  C   UNL     1       5.940   4.303  16.295  0.00  0.00    +0.000 A 
ENDROOT
BRANCH   3   6
ATOM      6  C   UNL     1       7.766   5.745  19.260  0.00  0.00    +0.000 C 
ATOM      7  O   UNL     1       8.063   5.291  20.356  0.00  0.00    +0.000 OA
BRANCH   6   8
ATOM      8  O   UNL     1       8.288   6.918  18.808  0.00  0.00    +0.000 OA
ATOM      9  H   UNL     1       7.604   7.613  18.760  0.00  0.00    +0.000 HD
ENDBRANCH   6   8
ENDBRANCH   3   6
BRANCH   5  10
ATOM     10  C   UNL     1       5.984   3.975  14.823  0.00  0.00    +0.000 C 
ATOM     11  C   UNL     1       6.978   4.782  14.004  0.00  0.00    +0.000 C 
ENDBRANCH   5  10
BRANCH   1  12
ATOM     12  C   UNL     1       3.614   3.295  17.029  0.00  0.00    +0.000 C 
BRANCH  12  14
ATOM     13  C   UNL     1       1.463   4.399  17.713  0.00  0.00    +0.000 C 
ATOM     14  C   UNL     1       2.644   3.560  18.177  0.00  0.00    +0.000 C 
ENDBRANCH  12  14
ENDBRANCH   1  12
TORSDOF 5
ENDMDL
MODEL 8
REMARK VINA RESULT:      -5.3      1.629      1.896
REMARK  Name = 
REMARK  7 active torsions:
REMARK  status: ('A' for Active; 'I' for Inactive)
REMARK    1  A    between atoms: C_1  and  C_2
REMARK    2  A    between atoms: C_2  and  C_3
REMARK    3  A    between atoms: C_3  and  C_4
REMARK    4  A    between atoms: C_6  and  C_7
REMARK    5  A    between atoms: C_7  and  O_9
REMARK    6  A    between atoms: C_11  and  C_12
REMARK    7  A    between atoms: C_12  and  C_13
REMARK                            x       y       z     vdW  Elec       q    Type
REMARK                         _______ _______ _______ _____ _____    ______ ____
ROOT
ATOM      1  C   UNL     1       2.690   4.872  18.691  0.00  0.00    +0.000 A 
ATOM      2  S   UNL     1       3.509   6.362  18.454  0.00  0.00    +0.000 S 
ATOM      3  C   UNL     1       4.432   5.760  17.158  0.00  0.00    +0.000 A 
ATOM      4  C   UNL     1       4.108   4.440  16.900  0.00  0.00    +0.000 A 
ATOM      5  C   UNL     1       3.104   3.903  17.782  0.00  0.00    +0.000 A 
ENDROOT
BRANCH   3   6
ATOM      6  C   UNL     1       5.414   6.574  16.465  0.00  0.00    +0.000 C 
ATOM      7  O   UNL     1       6.347   7.159  16.994  0.00  0.00    +0.000 OA
BRANCH   6   8
ATOM      8  O   UNL     1       5.198   6.639  15.122  0.00  0.00    +0.000 OA
ATOM      9  H   UNL     1       4.249   6.741  14.921  0.00  0.00    +0.000 HD
ENDBRANCH   6   8
ENDBRANCH   3   6
BRANCH   5  10
ATOM     10  C   UNL     1       2.668   2.460  17.704  0.00  0.00    +0.000 C 
ATOM     11  C   UNL     1       3.531   1.475  18.474  0.00  0.00    +0.000 C 
ENDBRANCH   5  10
BRANCH   1  12
ATOM     12  C   UNL     1       1.667   4.819  19.796  0.00  0.00    +0.000 C 
BRANCH  12  14
ATOM     13  C   UNL     1       1.423   2.828  21.310  0.00  0.00    +0.000 C 
ATOM     14  C   UNL     1       2.181   4.122  21.053  0.00  0.00    +0.000 C 
ENDBRANCH  12  14
ENDBRANCH   1  12
TORSDOF 5
ENDMDL
MODEL 9
REMARK VINA RESULT:      -5.3      0.949      1.138
REMARK  Name = 
REMARK  7 active torsions:
REMARK  status: ('A' for Active; 'I' for Inactive)
REMARK    1  A    between atoms: C_1  and  C_2
REMARK    2  A    between atoms: C_2  and  C_3
REMARK    3  A    between atoms: C_3  and  C_4
REMARK    4  A    between atoms: C_6  and  C_7
REMARK    5  A    between atoms: C_7  and  O_9
REMARK    6  A    between atoms: C_11  and  C_12
REMARK    7  A    between atoms: C_12  and  C_13
REMARK                            x       y       z     vdW  Elec       q    Type
REMARK                         _______ _______ _______ _____ _____    ______ ____
ROOT
ATOM      1  C   UNL     1       3.906   5.067  18.642  0.00  0.00    +0.000 A 
ATOM      2  S   UNL     1       5.527   5.626  18.560  0.00  0.00    +0.000 S 
ATOM      3  C   UNL     1       5.855   4.763  17.132  0.00  0.00    +0.000 A 
ATOM      4  C   UNL     1       4.735   4.065  16.715  0.00  0.00    +0.000 A 
ATOM      5  C   UNL     1       3.595   4.223  17.580  0.00  0.00    +0.000 A 
ENDROOT
BRANCH   3   6
ATOM      6  C   UNL     1       7.158   4.791  16.493  0.00  0.00    +0.000 C 
ATOM      7  O   UNL     1       7.417   5.356  15.440  0.00  0.00    +0.000 OA
BRANCH   6   8
ATOM      8  O   UNL     1       8.106   4.104  17.187  0.00  0.00    +0.000 OA
ATOM      9  H   UNL     1       8.087   4.335  18.135  0.00  0.00    +0.000 HD
ENDBRANCH   6   8
ENDBRANCH   3   6
BRANCH   5  10
ATOM     10  C   UNL     1       2.302   3.486  17.332  0.00  0.00    +0.000 C 
ATOM     11  C   UNL     1       2.129   2.191  18.108  0.00  0.00    +0.000 C 
ENDBRANCH   5  10
BRANCH   1  12
ATOM     12  C   UNL     1       3.069   5.554  19.797  0.00  0.00    +0.000 C 
BRANCH  12  14
ATOM     13  C   UNL     1       1.627   7.384  20.738  0.00  0.00    +0.000 C 
ATOM     14  C   UNL     1       2.388   6.891  19.517  0.00  0.00    +0.000 C 
ENDBRANCH  12  14
ENDBRANCH   1  12
TORSDOF 5
ENDMDL
