MODEL 1
REMARK VINA RESULT:      -8.2      0.000      0.000
REMARK  Name = 
REMARK  5 active torsions:
REMARK  status: ('A' for Active; 'I' for Inactive)
REMARK    1  A    between atoms: S_2  and  N_4
REMARK    2  A    between atoms: S_2  and  C_18
REMARK    3  A    between atoms: N_4  and  C_5
REMARK    4  A    between atoms: C_5  and  C_6
REMARK    5  A    between atoms: C_8  and  C_9
REMARK                            x       y       z     vdW  Elec       q    Type
REMARK                         _______ _______ _______ _____ _____    ______ ____
ROOT
ATOM      1  C   UNL     1       7.195   5.660  18.044  0.00  0.00    +0.000 C 
ENDROOT
BRANCH   1   2
ATOM      2  C   UNL     1       7.641   7.070  18.015  0.00  0.00    +0.000 A 
ATOM      3  C   UNL     1       8.536   7.773  18.780  0.00  0.00    +0.000 A 
ATOM      4  C   UNL     1       8.458   9.108  18.308  0.00  0.00    +0.000 A 
ATOM      5  N   UNL     1       7.577   9.191  17.297  0.00  0.00    +0.000 NA
ATOM      6  O   UNL     1       7.061   7.919  17.126  0.00  0.00    +0.000 OA
BRANCH   4   7
ATOM      7  C   UNL     1       9.207  10.263  18.799  0.00  0.00    +0.000 A 
ATOM      8  C   UNL     1       9.308  10.517  20.175  0.00  0.00    +0.000 A 
ATOM      9  C   UNL     1       9.961  11.663  20.637  0.00  0.00    +0.000 A 
ATOM     10  C   UNL     1      10.526  12.556  19.728  0.00  0.00    +0.000 A 
ATOM     11 CL   UNL     1      11.300  13.983  20.296  0.00  0.00    +0.000 Cl
ATOM     12  C   UNL     1      10.460  12.303  18.360  0.00  0.00    +0.000 A 
ATOM     13  C   UNL     1       9.805  11.160  17.898  0.00  0.00    +0.000 A 
ENDBRANCH   4   7
ENDBRANCH   1   2
BRANCH   1  14
ATOM     14  N   UNL     1       7.403   5.017  16.749  0.00  0.00    +0.000 NA
ATOM     15  H   UNL     1       8.210   5.335  16.214  0.00  0.00    +0.000 HD
BRANCH  14  17
ATOM     16  O   UNL     1       5.822   5.994  15.037  0.00  0.00    +0.000 OA
ATOM     17  S   UNL     1       6.024   4.792  15.815  0.00  0.00    +0.000 S 
ATOM     18  O   UNL     1       6.115   3.484  15.208  0.00  0.00    +0.000 OA
BRANCH  17  19
ATOM     19  C   UNL     1       4.731   4.741  17.037  0.00  0.00    +0.000 A 
ATOM     20  C   UNL     1       4.010   5.908  17.329  0.00  0.00    +0.000 A 
ATOM     21  C   UNL     1       2.986   5.861  18.280  0.00  0.00    +0.000 A 
ATOM     22  C   UNL     1       2.685   4.656  18.917  0.00  0.00    +0.000 A 
ATOM     23 CL   UNL     1       1.414   4.597  20.076  0.00  0.00    +0.000 Cl
ATOM     24  C   UNL     1       3.401   3.496  18.620  0.00  0.00    +0.000 A 
ATOM     25  C   UNL     1       4.430   3.537  17.676  0.00  0.00    +0.000 A 
ENDBRANCH  17  19
ENDBRANCH  14  17
ENDBRANCH   1  14
TORSDOF 5
ENDMDL
MODEL 2
REMARK VINA RESULT:      -8.2      0.333      1.041
REMARK  Name = 
REMARK  5 active torsions:
REMARK  status: ('A' for Active; 'I' for Inactive)
REMARK    1  A    between atoms: S_2  and  N_4
REMARK    2  A    between atoms: S_2  and  C_18
REMARK    3  A    between atoms: N_4  and  C_5
REMARK    4  A    between atoms: C_5  and  C_6
REMARK    5  A    between atoms: C_8  and  C_9
REMARK                            x       y       z     vdW  Elec       q    Type
REMARK                         _______ _______ _______ _____ _____    ______ ____
ROOT
ATOM      1  C   UNL     1       7.299   5.693  18.137  0.00  0.00    +0.000 C 
ENDROOT
BRANCH   1   2
ATOM      2  C   UNL     1       7.722   7.110  18.082  0.00  0.00    +0.000 A 
ATOM      3  C   UNL     1       8.589   7.845  18.849  0.00  0.00    +0.000 A 
ATOM      4  C   UNL     1       8.498   9.168  18.343  0.00  0.00    +0.000 A 
ATOM      5  N   UNL     1       7.638   9.211  17.312  0.00  0.00    +0.000 NA
ATOM      6  O   UNL     1       7.147   7.926  17.161  0.00  0.00    +0.000 OA
BRANCH   4   7
ATOM      7  C   UNL     1       9.217  10.347  18.822  0.00  0.00    +0.000 A 
ATOM      8  C   UNL     1       9.389  10.570  20.196  0.00  0.00    +0.000 A 
ATOM      9  C   UNL     1      10.011  11.736  20.650  0.00  0.00    +0.000 A 
ATOM     10  C   UNL     1      10.474  12.680  19.735  0.00  0.00    +0.000 A 
ATOM     11 CL   UNL     1      11.208  14.130  20.297  0.00  0.00    +0.000 Cl
ATOM     12  C   UNL     1      10.337  12.460  18.367  0.00  0.00    +0.000 A 
ATOM     13  C   UNL     1       9.713  11.296  17.912  0.00  0.00    +0.000 A 
ENDBRANCH   4   7
ENDBRANCH   1   2
BRANCH   1  14
ATOM     14  N   UNL     1       7.432   5.055  16.829  0.00  0.00    +0.000 NA
ATOM     15  H   UNL     1       8.202   5.382  16.246  0.00  0.00    +0.000 HD
BRANCH  14  17
ATOM     16  O   UNL     1       5.819   5.957  15.106  0.00  0.00    +0.000 OA
ATOM     17  S   UNL     1       6.000   4.820  15.982  0.00  0.00    +0.000 S 
ATOM     18  O   UNL     1       5.998   3.460  15.494  0.00  0.00    +0.000 OA
BRANCH  17  19
ATOM     19  C   UNL     1       4.767   4.946  17.259  0.00  0.00    +0.000 A 
ATOM     20  C   UNL     1       4.538   3.855  18.109  0.00  0.00    +0.000 A 
ATOM     21  C   UNL     1       3.579   3.963  19.120  0.00  0.00    +0.000 A 
ATOM     22  C   UNL     1       2.869   5.154  19.279  0.00  0.00    +0.000 A 
ATOM     23 CL   UNL     1       1.699   5.290  20.534  0.00  0.00    +0.000 Cl
ATOM     24  C   UNL     1       3.103   6.240  18.435  0.00  0.00    +0.000 A 
ATOM     25  C   UNL     1       4.056   6.137  17.419  0.00  0.00    +0.000 A 
ENDBRANCH  17  19
ENDBRANCH  14  17
ENDBRANCH   1  14
TORSDOF 5
ENDMDL
MODEL 3
REMARK VINA RESULT:      -8.1      0.333      1.434
REMARK  Name = 
REMARK  5 active torsions:
REMARK  status: ('A' for Active; 'I' for Inactive)
REMARK    1  A    between atoms: S_2  and  N_4
REMARK    2  A    between atoms: S_2  and  C_18
REMARK    3  A    between atoms: N_4  and  C_5
REMARK    4  A    between atoms: C_5  and  C_6
REMARK    5  A    between atoms: C_8  and  C_9
REMARK                            x       y       z     vdW  Elec       q    Type
REMARK                         _______ _______ _______ _____ _____    ______ ____
ROOT
ATOM      1  C   UNL     1       7.262   5.721  18.124  0.00  0.00    +0.000 C 
ENDROOT
BRANCH   1   2
ATOM      2  C   UNL     1       7.677   7.139  18.052  0.00  0.00    +0.000 A 
ATOM      3  C   UNL     1       8.595   7.870  18.761  0.00  0.00    +0.000 A 
ATOM      4  C   UNL     1       8.466   9.197  18.275  0.00  0.00    +0.000 A 
ATOM      5  N   UNL     1       7.533   9.247  17.310  0.00  0.00    +0.000 NA
ATOM      6  O   UNL     1       7.034   7.963  17.183  0.00  0.00    +0.000 OA
BRANCH   4   7
ATOM      7  C   UNL     1       9.215  10.373  18.711  0.00  0.00    +0.000 A 
ATOM      8  C   UNL     1       9.792  11.241  17.773  0.00  0.00    +0.000 A 
ATOM      9  C   UNL     1      10.570  12.323  18.195  0.00  0.00    +0.000 A 
ATOM     10  C   UNL     1      10.768  12.549  19.556  0.00  0.00    +0.000 A 
ATOM     11 CL   UNL     1      11.754  13.860  20.072  0.00  0.00    +0.000 Cl
ATOM     12  C   UNL     1      10.178  11.714  20.501  0.00  0.00    +0.000 A 
ATOM     13  C   UNL     1       9.402  10.631  20.079  0.00  0.00    +0.000 A 
ENDBRANCH   4   7
ENDBRANCH   1   2
BRANCH   1  14
ATOM     14  N   UNL     1       7.413   5.064  16.828  0.00  0.00    +0.000 NA
ATOM     15  H   UNL     1       8.177   5.398  16.241  0.00  0.00    +0.000 HD
BRANCH  14  17
ATOM     16  O   UNL     1       5.783   5.898  15.087  0.00  0.00    +0.000 OA
ATOM     17  S   UNL     1       5.990   4.780  15.981  0.00  0.00    +0.000 S 
ATOM     18  O   UNL     1       6.022   3.413  15.516  0.00  0.00    +0.000 OA
BRANCH  17  19
ATOM     19  C   UNL     1       4.750   4.898  17.254  0.00  0.00    +0.000 A 
ATOM     20  C   UNL     1       4.518   3.801  18.095  0.00  0.00    +0.000 A 
ATOM     21  C   UNL     1       3.553   3.902  19.102  0.00  0.00    +0.000 A 
ATOM     22  C   UNL     1       2.842   5.091  19.266  0.00  0.00    +0.000 A 
ATOM     23 CL   UNL     1       1.666   5.219  20.515  0.00  0.00    +0.000 Cl
ATOM     24  C   UNL     1       3.080   6.183  18.430  0.00  0.00    +0.000 A 
ATOM     25  C   UNL     1       4.038   6.088  17.418  0.00  0.00    +0.000 A 
ENDBRANCH  17  19
ENDBRANCH  14  17
ENDBRANCH   1  14
TORSDOF 5
ENDMDL
MODEL 4
REMARK VINA RESULT:      -8.0      1.249      1.487
REMARK  Name = 
REMARK  5 active torsions:
REMARK  status: ('A' for Active; 'I' for Inactive)
REMARK    1  A    between atoms: S_2  and  N_4
REMARK    2  A    between atoms: S_2  and  C_18
REMARK    3  A    between atoms: N_4  and  C_5
REMARK    4  A    between atoms: C_5  and  C_6
REMARK    5  A    between atoms: C_8  and  C_9
REMARK                            x       y       z     vdW  Elec       q    Type
REMARK                         _______ _______ _______ _____ _____    ______ ____
ROOT
ATOM      1  C   UNL     1       6.166   6.974  16.783  0.00  0.00    +0.000 C 
ENDROOT
BRANCH   1   2
ATOM      2  C   UNL     1       7.153   7.736  17.580  0.00  0.00    +0.000 A 
ATOM      3  C   UNL     1       7.537   9.052  17.561  0.00  0.00    +0.000 A 
ATOM      4  C   UNL     1       8.587   9.144  18.512  0.00  0.00    +0.000 A 
ATOM      5  N   UNL     1       8.800   7.947  19.083  0.00  0.00    +0.000 NA
ATOM      6  O   UNL     1       7.911   7.069  18.489  0.00  0.00    +0.000 OA
BRANCH   4   7
ATOM      7  C   UNL     1       9.352  10.337  18.868  0.00  0.00    +0.000 A 
ATOM      8  C   UNL     1       9.529  10.697  20.212  0.00  0.00    +0.000 A 
ATOM      9  C   UNL     1      10.198  11.878  20.546  0.00  0.00    +0.000 A 
ATOM     10  C   UNL     1      10.702  12.700  19.540  0.00  0.00    +0.000 A 
ATOM     11 CL   UNL     1      11.494  14.170  19.951  0.00  0.00    +0.000 Cl
ATOM     12  C   UNL     1      10.561  12.342  18.202  0.00  0.00    +0.000 A 
ATOM     13  C   UNL     1       9.890  11.163  17.868  0.00  0.00    +0.000 A 
ENDBRANCH   4   7
ENDBRANCH   1   2
BRANCH   1  14
ATOM     14  N   UNL     1       6.832   6.104  15.817  0.00  0.00    +0.000 NA
ATOM     15  H   UNL     1       6.646   6.300  14.834  0.00  0.00    +0.000 HD
BRANCH  14  17
ATOM     16  O   UNL     1       6.548   3.741  14.967  0.00  0.00    +0.000 OA
ATOM     17  S   UNL     1       6.831   4.465  16.187  0.00  0.00    +0.000 S 
ATOM     18  O   UNL     1       8.000   4.197  16.992  0.00  0.00    +0.000 OA
BRANCH  17  19
ATOM     19  C   UNL     1       5.398   4.303  17.231  0.00  0.00    +0.000 A 
ATOM     20  C   UNL     1       5.546   4.367  18.623  0.00  0.00    +0.000 A 
ATOM     21  C   UNL     1       4.417   4.253  19.439  0.00  0.00    +0.000 A 
ATOM     22  C   UNL     1       3.157   4.088  18.861  0.00  0.00    +0.000 A 
ATOM     23 CL   UNL     1       1.766   3.963  19.866  0.00  0.00    +0.000 Cl
ATOM     24  C   UNL     1       3.013   4.029  17.475  0.00  0.00    +0.000 A 
ATOM     25  C   UNL     1       4.137   4.136  16.653  0.00  0.00    +0.000 A 
ENDBRANCH  17  19
ENDBRANCH  14  17
ENDBRANCH   1  14
TORSDOF 5
ENDMDL
MODEL 5
REMARK VINA RESULT:      -8.0      1.145      1.808
REMARK  Name = 
REMARK  5 active torsions:
REMARK  status: ('A' for Active; 'I' for Inactive)
REMARK    1  A    between atoms: S_2  and  N_4
REMARK    2  A    between atoms: S_2  and  C_18
REMARK    3  A    between atoms: N_4  and  C_5
REMARK    4  A    between atoms: C_5  and  C_6
REMARK    5  A    between atoms: C_8  and  C_9
REMARK                            x       y       z     vdW  Elec       q    Type
REMARK                         _______ _______ _______ _____ _____    ______ ____
ROOT
ATOM      1  C   UNL     1       7.512   6.011  18.237  0.00  0.00    +0.000 C 
ENDROOT
BRANCH   1   2
ATOM      2  C   UNL     1       7.889   7.438  18.129  0.00  0.00    +0.000 A 
ATOM      3  C   UNL     1       8.704   8.238  18.887  0.00  0.00    +0.000 A 
ATOM      4  C   UNL     1       8.587   9.532  18.316  0.00  0.00    +0.000 A 
ATOM      5  N   UNL     1       7.762   9.496  17.257  0.00  0.00    +0.000 NA
ATOM      6  O   UNL     1       7.319   8.190  17.152  0.00  0.00    +0.000 OA
BRANCH   4   7
ATOM      7  C   UNL     1       9.250  10.756  18.761  0.00  0.00    +0.000 A 
ATOM      8  C   UNL     1       9.339  11.869  17.912  0.00  0.00    +0.000 A 
ATOM      9  C   UNL     1      10.039  13.010  18.314  0.00  0.00    +0.000 A 
ATOM     10  C   UNL     1      10.643  13.050  19.569  0.00  0.00    +0.000 A 
ATOM     11 CL   UNL     1      11.532  14.442  20.048  0.00  0.00    +0.000 Cl
ATOM     12  C   UNL     1      10.539  11.965  20.435  0.00  0.00    +0.000 A 
ATOM     13  C   UNL     1       9.842  10.823  20.033  0.00  0.00    +0.000 A 
ENDBRANCH   4   7
ENDBRANCH   1   2
BRANCH   1  14
ATOM     14  N   UNL     1       6.062   5.846  18.167  0.00  0.00    +0.000 NA
ATOM     15  H   UNL     1       5.607   5.506  19.014  0.00  0.00    +0.000 HD
BRANCH  14  17
ATOM     16  O   UNL     1       5.031   6.208  15.888  0.00  0.00    +0.000 OA
ATOM     17  S   UNL     1       5.473   5.141  16.759  0.00  0.00    +0.000 S 
ATOM     18  O   UNL     1       6.428   4.143  16.337  0.00  0.00    +0.000 OA
BRANCH  17  19
ATOM     19  C   UNL     1       4.013   4.297  17.329  0.00  0.00    +0.000 A 
ATOM     20  C   UNL     1       3.995   2.896  17.366  0.00  0.00    +0.000 A 
ATOM     21  C   UNL     1       2.851   2.237  17.826  0.00  0.00    +0.000 A 
ATOM     22  C   UNL     1       1.747   2.978  18.252  0.00  0.00    +0.000 A 
ATOM     23 CL   UNL     1       0.346   2.165  18.833  0.00  0.00    +0.000 Cl
ATOM     24  C   UNL     1       1.771   4.372  18.218  0.00  0.00    +0.000 A 
ATOM     25  C   UNL     1       2.908   5.037  17.754  0.00  0.00    +0.000 A 
ENDBRANCH  17  19
ENDBRANCH  14  17
ENDBRANCH   1  14
TORSDOF 5
ENDMDL
MODEL 6
REMARK VINA RESULT:      -8.0      2.010      2.646
REMARK  Name = 
REMARK  5 active torsions:
REMARK  status: ('A' for Active; 'I' for Inactive)
REMARK    1  A    between atoms: S_2  and  N_4
REMARK    2  A    between atoms: S_2  and  C_18
REMARK    3  A    between atoms: N_4  and  C_5
REMARK    4  A    between atoms: C_5  and  C_6
REMARK    5  A    between atoms: C_8  and  C_9
REMARK                            x       y       z     vdW  Elec       q    Type
REMARK                         _______ _______ _______ _____ _____    ______ ____
ROOT
ATOM      1  C   UNL     1       7.170   5.458  18.119  0.00  0.00    +0.000 C 
ENDROOT
BRANCH   1   2
ATOM      2  C   UNL     1       7.586   6.875  18.033  0.00  0.00    +0.000 A 
ATOM      3  C   UNL     1       8.446   7.632  18.786  0.00  0.00    +0.000 A 
ATOM      4  C   UNL     1       8.351   8.942  18.250  0.00  0.00    +0.000 A 
ATOM      5  N   UNL     1       7.493   8.958  17.216  0.00  0.00    +0.000 NA
ATOM      6  O   UNL     1       7.009   7.668  17.092  0.00  0.00    +0.000 OA
BRANCH   4   7
ATOM      7  C   UNL     1       9.062  10.136  18.704  0.00  0.00    +0.000 A 
ATOM      8  C   UNL     1       9.617  11.032  17.779  0.00  0.00    +0.000 A 
ATOM      9  C   UNL     1      10.360  12.131  18.218  0.00  0.00    +0.000 A 
ATOM     10  C   UNL     1      10.543  12.347  19.583  0.00  0.00    +0.000 A 
ATOM     11 CL   UNL     1      11.486  13.681  20.120  0.00  0.00    +0.000 Cl
ATOM     12  C   UNL     1       9.974  11.483  20.515  0.00  0.00    +0.000 A 
ATOM     13  C   UNL     1       9.234  10.382  20.076  0.00  0.00    +0.000 A 
ENDBRANCH   4   7
ENDBRANCH   1   2
BRANCH   1  14
ATOM     14  N   UNL     1       6.101   5.283  19.100  0.00  0.00    +0.000 NA
ATOM     15  H   UNL     1       6.370   4.856  19.986  0.00  0.00    +0.000 HD
BRANCH  14  17
ATOM     16  O   UNL     1       4.811   4.485  17.079  0.00  0.00    +0.000 OA
ATOM     17  S   UNL     1       4.640   4.714  18.496  0.00  0.00    +0.000 S 
ATOM     18  O   UNL     1       4.165   3.687  19.394  0.00  0.00    +0.000 OA
BRANCH  17  19
ATOM     19  C   UNL     1       3.572   6.129  18.668  0.00  0.00    +0.000 A 
ATOM     20  C   UNL     1       2.769   6.253  19.810  0.00  0.00    +0.000 A 
ATOM     21  C   UNL     1       1.942   7.372  19.947  0.00  0.00    +0.000 A 
ATOM     22  C   UNL     1       1.932   8.354  18.956  0.00  0.00    +0.000 A 
ATOM     23 CL   UNL     1       0.925   9.738  19.134  0.00  0.00    +0.000 Cl
ATOM     24  C   UNL     1       2.737   8.229  17.823  0.00  0.00    +0.000 A 
ATOM     25  C   UNL     1       3.561   7.111  17.676  0.00  0.00    +0.000 A 
ENDBRANCH  17  19
ENDBRANCH  14  17
ENDBRANCH   1  14
TORSDOF 5
ENDMDL
MODEL 7
REMARK VINA RESULT:      -7.9      3.507      5.214
REMARK  Name = 
REMARK  5 active torsions:
REMARK  status: ('A' for Active; 'I' for Inactive)
REMARK    1  A    between atoms: S_2  and  N_4
REMARK    2  A    between atoms: S_2  and  C_18
REMARK    3  A    between atoms: N_4  and  C_5
REMARK    4  A    between atoms: C_5  and  C_6
REMARK    5  A    between atoms: C_8  and  C_9
REMARK                            x       y       z     vdW  Elec       q    Type
REMARK                         _______ _______ _______ _____ _____    ______ ____
ROOT
ATOM      1  C   UNL     1       3.499   1.799  18.573  0.00  0.00    +0.000 C 
ENDROOT
BRANCH   1   2
ATOM      2  C   UNL     1       4.343   2.901  18.062  0.00  0.00    +0.000 A 
ATOM      3  C   UNL     1       5.094   3.860  18.693  0.00  0.00    +0.000 A 
ATOM      4  C   UNL     1       5.601   4.678  17.651  0.00  0.00    +0.000 A 
ATOM      5  N   UNL     1       5.190   4.215  16.458  0.00  0.00    +0.000 NA
ATOM      6  O   UNL     1       4.396   3.114  16.721  0.00  0.00    +0.000 OA
BRANCH   4   7
ATOM      7  C   UNL     1       6.456   5.855  17.789  0.00  0.00    +0.000 A 
ATOM      8  C   UNL     1       7.553   5.842  18.663  0.00  0.00    +0.000 A 
ATOM      9  C   UNL     1       8.323   6.994  18.848  0.00  0.00    +0.000 A 
ATOM     10  C   UNL     1       8.008   8.160  18.154  0.00  0.00    +0.000 A 
ATOM     11 CL   UNL     1       8.935   9.586  18.409  0.00  0.00    +0.000 Cl
ATOM     12  C   UNL     1       6.940   8.181  17.261  0.00  0.00    +0.000 A 
ATOM     13  C   UNL     1       6.168   7.031  17.078  0.00  0.00    +0.000 A 
ENDBRANCH   4   7
ENDBRANCH   1   2
BRANCH   1  14
ATOM     14  N   UNL     1       2.935   2.133  19.879  0.00  0.00    +0.000 NA
ATOM     15  H   UNL     1       3.053   1.434  20.612  0.00  0.00    +0.000 HD
BRANCH  14  17
ATOM     16  O   UNL     1       0.659   2.215  18.785  0.00  0.00    +0.000 OA
ATOM     17  S   UNL     1       1.407   2.832  19.858  0.00  0.00    +0.000 S 
ATOM     18  O   UNL     1       0.922   2.866  21.219  0.00  0.00    +0.000 OA
BRANCH  17  19
ATOM     19  C   UNL     1       1.751   4.505  19.356  0.00  0.00    +0.000 A 
ATOM     20  C   UNL     1       2.080   5.463  20.325  0.00  0.00    +0.000 A 
ATOM     21  C   UNL     1       2.364   6.772  19.926  0.00  0.00    +0.000 A 
ATOM     22  C   UNL     1       2.327   7.109  18.572  0.00  0.00    +0.000 A 
ATOM     23 CL   UNL     1       2.690   8.717  18.081  0.00  0.00    +0.000 Cl
ATOM     24  C   UNL     1       2.003   6.151  17.610  0.00  0.00    +0.000 A 
ATOM     25  C   UNL     1       1.713   4.842  18.002  0.00  0.00    +0.000 A 
ENDBRANCH  17  19
ENDBRANCH  14  17
ENDBRANCH   1  14
TORSDOF 5
ENDMDL
MODEL 8
REMARK VINA RESULT:      -7.8      2.062      2.730
REMARK  Name = 
REMARK  5 active torsions:
REMARK  status: ('A' for Active; 'I' for Inactive)
REMARK    1  A    between atoms: S_2  and  N_4
REMARK    2  A    between atoms: S_2  and  C_18
REMARK    3  A    between atoms: N_4  and  C_5
REMARK    4  A    between atoms: C_5  and  C_6
REMARK    5  A    between atoms: C_8  and  C_9
REMARK                            x       y       z     vdW  Elec       q    Type
REMARK                         _______ _______ _______ _____ _____    ______ ____
ROOT
ATOM      1  C   UNL     1       7.061   7.702  17.552  0.00  0.00    +0.000 C 
ENDROOT
BRANCH   1   2
ATOM      2  C   UNL     1       7.905   8.848  17.954  0.00  0.00    +0.000 A 
ATOM      3  C   UNL     1       8.068  10.104  17.428  0.00  0.00    +0.000 A 
ATOM      4  C   UNL     1       9.083  10.706  18.216  0.00  0.00    +0.000 A 
ATOM      5  N   UNL     1       9.486   9.858  19.177  0.00  0.00    +0.000 NA
ATOM      6  O   UNL     1       8.757   8.695  19.001  0.00  0.00    +0.000 OA
BRANCH   4   7
ATOM      7  C   UNL     1       9.640  12.048  18.063  0.00  0.00    +0.000 A 
ATOM      8  C   UNL     1      10.875  12.241  17.427  0.00  0.00    +0.000 A 
ATOM      9  C   UNL     1      11.439  13.517  17.350  0.00  0.00    +0.000 A 
ATOM     10  C   UNL     1      10.768  14.609  17.897  0.00  0.00    +0.000 A 
ATOM     11 CL   UNL     1      11.479  16.173  17.831  0.00  0.00    +0.000 Cl
ATOM     12  C   UNL     1       9.527  14.439  18.505  0.00  0.00    +0.000 A 
ATOM     13  C   UNL     1       8.964  13.163  18.586  0.00  0.00    +0.000 A 
ENDBRANCH   4   7
ENDBRANCH   1   2
BRANCH   1  14
ATOM     14  N   UNL     1       7.877   6.522  17.275  0.00  0.00    +0.000 NA
ATOM     15  H   UNL     1       7.991   6.275  16.292  0.00  0.00    +0.000 HD
BRANCH  14  17
ATOM     16  O   UNL     1       8.265   4.056  17.672  0.00  0.00    +0.000 OA
ATOM     17  S   UNL     1       7.610   5.197  18.273  0.00  0.00    +0.000 S 
ATOM     18  O   UNL     1       7.872   5.612  19.632  0.00  0.00    +0.000 OA
BRANCH  17  19
ATOM     19  C   UNL     1       5.856   4.934  18.109  0.00  0.00    +0.000 A 
ATOM     20  C   UNL     1       5.353   4.339  16.945  0.00  0.00    +0.000 A 
ATOM     21  C   UNL     1       3.977   4.122  16.825  0.00  0.00    +0.000 A 
ATOM     22  C   UNL     1       3.123   4.488  17.867  0.00  0.00    +0.000 A 
ATOM     23 CL   UNL     1       1.432   4.206  17.724  0.00  0.00    +0.000 Cl
ATOM     24  C   UNL     1       3.629   5.076  19.027  0.00  0.00    +0.000 A 
ATOM     25  C   UNL     1       5.002   5.302  19.151  0.00  0.00    +0.000 A 
ENDBRANCH  17  19
ENDBRANCH  14  17
ENDBRANCH   1  14
TORSDOF 5
ENDMDL
MODEL 9
REMARK VINA RESULT:      -7.8      1.417      1.650
REMARK  Name = 
REMARK  5 active torsions:
REMARK  status: ('A' for Active; 'I' for Inactive)
REMARK    1  A    between atoms: S_2  and  N_4
REMARK    2  A    between atoms: S_2  and  C_18
REMARK    3  A    between atoms: N_4  and  C_5
REMARK    4  A    between atoms: C_5  and  C_6
REMARK    5  A    between atoms: C_8  and  C_9
REMARK                            x       y       z     vdW  Elec       q    Type
REMARK                         _______ _______ _______ _____ _____    ______ ____
ROOT
ATOM      1  C   UNL     1       6.341   7.005  17.078  0.00  0.00    +0.000 C 
ENDROOT
BRANCH   1   2
ATOM      2  C   UNL     1       7.293   7.952  17.698  0.00  0.00    +0.000 A 
ATOM      3  C   UNL     1       7.536   9.286  17.492  0.00  0.00    +0.000 A 
ATOM      4  C   UNL     1       8.631   9.597  18.339  0.00  0.00    +0.000 A 
ATOM      5  N   UNL     1       9.006   8.507  19.029  0.00  0.00    +0.000 NA
ATOM      6  O   UNL     1       8.176   7.480  18.617  0.00  0.00    +0.000 OA
BRANCH   4   7
ATOM      7  C   UNL     1       9.290  10.893  18.490  0.00  0.00    +0.000 A 
ATOM      8  C   UNL     1      10.377  11.044  19.362  0.00  0.00    +0.000 A 
ATOM      9  C   UNL     1      10.956  12.301  19.559  0.00  0.00    +0.000 A 
ATOM     10  C   UNL     1      10.458  13.411  18.879  0.00  0.00    +0.000 A 
ATOM     11 CL   UNL     1      11.149  14.963  19.149  0.00  0.00    +0.000 Cl
ATOM     12  C   UNL     1       9.398  13.272  17.987  0.00  0.00    +0.000 A 
ATOM     13  C   UNL     1       8.817  12.017  17.792  0.00  0.00    +0.000 A 
ENDBRANCH   4   7
ENDBRANCH   1   2
BRANCH   1  14
ATOM     14  N   UNL     1       7.003   6.180  16.070  0.00  0.00    +0.000 NA
ATOM     15  H   UNL     1       6.812   6.420  15.097  0.00  0.00    +0.000 HD
BRANCH  14  17
ATOM     16  O   UNL     1       6.825   3.854  15.097  0.00  0.00    +0.000 OA
ATOM     17  S   UNL     1       7.005   4.526  16.365  0.00  0.00    +0.000 S 
ATOM     18  O   UNL     1       8.117   4.239  17.242  0.00  0.00    +0.000 OA
BRANCH  17  19
ATOM     19  C   UNL     1       5.502   4.294  17.292  0.00  0.00    +0.000 A 
ATOM     20  C   UNL     1       4.290   4.119  16.610  0.00  0.00    +0.000 A 
ATOM     21  C   UNL     1       3.115   3.923  17.341  0.00  0.00    +0.000 A 
ATOM     22  C   UNL     1       3.161   3.895  18.736  0.00  0.00    +0.000 A 
ATOM     23 CL   UNL     1       1.715   3.640  19.633  0.00  0.00    +0.000 Cl
ATOM     24  C   UNL     1       4.370   4.065  19.410  0.00  0.00    +0.000 A 
ATOM     25  C   UNL     1       5.548   4.267  18.687  0.00  0.00    +0.000 A 
ENDBRANCH  17  19
ENDBRANCH  14  17
ENDBRANCH   1  14
TORSDOF 5
ENDMDL
