MODEL 1
REMARK VINA RESULT:      -7.6      0.000      0.000
REMARK  Name = 
REMARK  8 active torsions:
REMARK  status: ('A' for Active; 'I' for Inactive)
REMARK    1  A    between atoms: C_1  and  C_2
REMARK    2  A    between atoms: C_2  and  C_3
REMARK    3  A    between atoms: C_2  and  C_4
REMARK    4  A    between atoms: C_4  and  C_5
REMARK    5  A    between atoms: C_7  and  C_8
REMARK    6  A    between atoms: N_10  and  C_11
REMARK    7  A    between atoms: C_11  and  C_12
REMARK    8  A    between atoms: C_11  and  C_13
REMARK                            x       y       z     vdW  Elec       q    Type
REMARK                         _______ _______ _______ _____ _____    ______ ____
ROOT
ATOM      1  C   UNL     1       3.976   5.783  17.119  0.00  0.00    +0.000 C 
ATOM      2  N   UNL     1       3.676   7.064  17.778  0.00  0.00    +0.000 NA
ATOM      3  C   UNL     1       2.294   7.293  18.241  0.00  0.00    +0.000 C 
ATOM      4  C   UNL     1       2.068   6.765  19.659  0.00  0.00    +0.000 C 
ATOM      5  C   UNL     1       2.079   5.282  19.786  0.00  0.00    +0.000 A 
ATOM      6  C   UNL     1       1.385   4.557  20.738  0.00  0.00    +0.000 A 
ATOM      7  N   UNL     1       1.687   3.238  20.572  0.00  0.00    +0.000 N 
ATOM      8  C   UNL     1       2.561   3.081  19.522  0.00  0.00    +0.000 A 
ATOM      9  C   UNL     1       3.113   1.901  19.018  0.00  0.00    +0.000 A 
ATOM     10  C   UNL     1       3.939   2.013  17.909  0.00  0.00    +0.000 A 
ATOM     11  C   UNL     1       4.199   3.262  17.345  0.00  0.00    +0.000 A 
ATOM     12  C   UNL     1       3.689   4.482  17.873  0.00  0.00    +0.000 A 
ATOM     13  C   UNL     1       2.827   4.350  18.994  0.00  0.00    +0.000 A 
ATOM     14  H   UNL     1       3.885   7.797  17.095  0.00  0.00    +0.000 HD
ATOM     15  H   UNL     1       1.318   2.482  21.135  0.00  0.00    +0.000 HD
ENDROOT
BRANCH   3  16
ATOM     16  C   UNL     1       2.079   8.836  18.308  0.00  0.00    +0.000 C 
ATOM     17  O   UNL     1       2.599   9.610  17.512  0.00  0.00    +0.000 OA
ATOM     18  N   UNL     1       1.239   9.249  19.332  0.00  0.00    +0.000 N 
ATOM     19  H   UNL     1       0.741   8.511  19.825  0.00  0.00    +0.000 HD
BRANCH  18  20
ATOM     20  C   UNL     1       0.893  10.640  19.581  0.00  0.00    +0.000 C 
ATOM     21  C   UNL     1      -0.382  11.031  18.840  0.00  0.00    +0.000 C 
ATOM     22  C   UNL     1       0.735  10.883  21.078  0.00  0.00    +0.000 C 
ENDBRANCH  18  20
ENDBRANCH   3  16
BRANCH   1  23
ATOM     23  C   UNL     1       5.463   5.925  16.649  0.00  0.00    +0.000 C 
BRANCH  23  25
ATOM     24  C   UNL     1       7.451   4.866  17.763  0.00  0.00    +0.000 C 
ATOM     25  C   UNL     1       6.553   6.109  17.741  0.00  0.00    +0.000 C 
ATOM     26  C   UNL     1       7.450   7.337  17.548  0.00  0.00    +0.000 C 
ENDBRANCH  23  25
ENDBRANCH   1  23
TORSDOF 4
ENDMDL
MODEL 2
REMARK VINA RESULT:      -7.2      2.474      7.885
REMARK  Name = 
REMARK  8 active torsions:
REMARK  status: ('A' for Active; 'I' for Inactive)
REMARK    1  A    between atoms: C_1  and  C_2
REMARK    2  A    between atoms: C_2  and  C_3
REMARK    3  A    between atoms: C_2  and  C_4
REMARK    4  A    between atoms: C_4  and  C_5
REMARK    5  A    between atoms: C_7  and  C_8
REMARK    6  A    between atoms: N_10  and  C_11
REMARK    7  A    between atoms: C_11  and  C_12
REMARK    8  A    between atoms: C_11  and  C_13
REMARK                            x       y       z     vdW  Elec       q    Type
REMARK                         _______ _______ _______ _____ _____    ______ ____
ROOT
ATOM      1  C   UNL     1      -0.535  11.202  18.795  0.00  0.00    +0.000 C 
ATOM      2  N   UNL     1       0.084   9.912  18.453  0.00  0.00    +0.000 NA
ATOM      3  C   UNL     1       1.236   9.465  19.259  0.00  0.00    +0.000 C 
ATOM      4  C   UNL     1       0.800   8.677  20.496  0.00  0.00    +0.000 C 
ATOM      5  C   UNL     1       0.119   9.482  21.547  0.00  0.00    +0.000 A 
ATOM      6  C   UNL     1       0.133   9.202  22.901  0.00  0.00    +0.000 A 
ATOM      7  N   UNL     1      -0.645  10.126  23.535  0.00  0.00    +0.000 N 
ATOM      8  C   UNL     1      -1.162  11.014  22.622  0.00  0.00    +0.000 A 
ATOM      9  C   UNL     1      -1.998  12.109  22.851  0.00  0.00    +0.000 A 
ATOM     10  C   UNL     1      -2.343  12.882  21.752  0.00  0.00    +0.000 A 
ATOM     11  C   UNL     1      -1.871  12.554  20.482  0.00  0.00    +0.000 A 
ATOM     12  C   UNL     1      -1.061  11.413  20.216  0.00  0.00    +0.000 A 
ATOM     13  C   UNL     1      -0.697  10.645  21.355  0.00  0.00    +0.000 A 
ATOM     14  H   UNL     1       0.413   9.995  17.487  0.00  0.00    +0.000 HD
ATOM     15  H   UNL     1      -0.812  10.158  24.532  0.00  0.00    +0.000 HD
ENDROOT
BRANCH   3  16
ATOM     16  C   UNL     1       2.062   8.480  18.379  0.00  0.00    +0.000 C 
ATOM     17  O   UNL     1       2.454   8.769  17.254  0.00  0.00    +0.000 OA
ATOM     18  N   UNL     1       2.326   7.260  18.985  0.00  0.00    +0.000 N 
ATOM     19  H   UNL     1       2.091   7.194  19.974  0.00  0.00    +0.000 HD
BRANCH  18  20
ATOM     20  C   UNL     1       3.082   6.191  18.352  0.00  0.00    +0.000 C 
ATOM     21  C   UNL     1       4.159   5.650  19.288  0.00  0.00    +0.000 C 
ATOM     22  C   UNL     1       2.145   5.070  17.916  0.00  0.00    +0.000 C 
ENDBRANCH  18  20
ENDBRANCH   3  16
BRANCH   1  23
ATOM     23  C   UNL     1      -1.616  11.423  17.683  0.00  0.00    +0.000 C 
BRANCH  23  25
ATOM     24  C   UNL     1      -3.376   9.632  17.785  0.00  0.00    +0.000 C 
ATOM     25  C   UNL     1      -2.190  10.167  16.972  0.00  0.00    +0.000 C 
ATOM     26  C   UNL     1      -2.671  10.408  15.537  0.00  0.00    +0.000 C 
ENDBRANCH  23  25
ENDBRANCH   1  23
TORSDOF 4
ENDMDL
MODEL 3
REMARK VINA RESULT:      -7.0      2.275      5.845
REMARK  Name = 
REMARK  8 active torsions:
REMARK  status: ('A' for Active; 'I' for Inactive)
REMARK    1  A    between atoms: C_1  and  C_2
REMARK    2  A    between atoms: C_2  and  C_3
REMARK    3  A    between atoms: C_2  and  C_4
REMARK    4  A    between atoms: C_4  and  C_5
REMARK    5  A    between atoms: C_7  and  C_8
REMARK    6  A    between atoms: N_10  and  C_11
REMARK    7  A    between atoms: C_11  and  C_12
REMARK    8  A    between atoms: C_11  and  C_13
REMARK                            x       y       z     vdW  Elec       q    Type
REMARK                         _______ _______ _______ _____ _____    ______ ____
ROOT
ATOM      1  C   UNL     1       2.927   6.077  18.455  0.00  0.00    +0.000 C 
ATOM      2  N   UNL     1       3.486   5.950  17.100  0.00  0.00    +0.000 NA
ATOM      3  C   UNL     1       4.642   5.052  16.912  0.00  0.00    +0.000 C 
ATOM      4  C   UNL     1       4.211   3.611  16.629  0.00  0.00    +0.000 C 
ATOM      5  C   UNL     1       3.591   2.904  17.783  0.00  0.00    +0.000 A 
ATOM      6  C   UNL     1       3.631   1.537  17.996  0.00  0.00    +0.000 A 
ATOM      7  N   UNL     1       2.908   1.261  19.118  0.00  0.00    +0.000 N 
ATOM      8  C   UNL     1       2.400   2.421  19.652  0.00  0.00    +0.000 A 
ATOM      9  C   UNL     1       1.614   2.582  20.795  0.00  0.00    +0.000 A 
ATOM     10  C   UNL     1       1.269   3.878  21.148  0.00  0.00    +0.000 A 
ATOM     11  C   UNL     1       1.692   4.958  20.373  0.00  0.00    +0.000 A 
ATOM     12  C   UNL     1       2.450   4.814  19.176  0.00  0.00    +0.000 A 
ATOM     13  C   UNL     1       2.815   3.483  18.840  0.00  0.00    +0.000 A 
ATOM     14  H   UNL     1       3.791   6.887  16.823  0.00  0.00    +0.000 HD
ATOM     15  H   UNL     1       2.770   0.336  19.507  0.00  0.00    +0.000 HD
ENDROOT
BRANCH   3  16
ATOM     16  C   UNL     1       5.405   5.540  15.643  0.00  0.00    +0.000 C 
ATOM     17  O   UNL     1       5.714   6.713  15.469  0.00  0.00    +0.000 OA
ATOM     18  N   UNL     1       5.713   4.530  14.743  0.00  0.00    +0.000 N 
ATOM     19  H   UNL     1       5.550   3.579  15.067  0.00  0.00    +0.000 HD
BRANCH  18  20
ATOM     20  C   UNL     1       6.424   4.752  13.493  0.00  0.00    +0.000 C 
ATOM     21  C   UNL     1       7.899   5.052  13.745  0.00  0.00    +0.000 C 
ATOM     22  C   UNL     1       6.275   3.540  12.580  0.00  0.00    +0.000 C 
ENDBRANCH  18  20
ENDBRANCH   3  16
BRANCH   1  23
ATOM     23  C   UNL     1       1.825   7.181  18.321  0.00  0.00    +0.000 C 
BRANCH  23  25
ATOM     24  C   UNL     1       1.678   9.682  18.119  0.00  0.00    +0.000 C 
ATOM     25  C   UNL     1       2.058   8.529  19.057  0.00  0.00    +0.000 C 
ATOM     26  C   UNL     1       1.262   8.694  20.356  0.00  0.00    +0.000 C 
ENDBRANCH  23  25
ENDBRANCH   1  23
TORSDOF 4
ENDMDL
MODEL 4
REMARK VINA RESULT:      -6.9      0.836      1.257
REMARK  Name = 
REMARK  8 active torsions:
REMARK  status: ('A' for Active; 'I' for Inactive)
REMARK    1  A    between atoms: C_1  and  C_2
REMARK    2  A    between atoms: C_2  and  C_3
REMARK    3  A    between atoms: C_2  and  C_4
REMARK    4  A    between atoms: C_4  and  C_5
REMARK    5  A    between atoms: C_7  and  C_8
REMARK    6  A    between atoms: N_10  and  C_11
REMARK    7  A    between atoms: C_11  and  C_12
REMARK    8  A    between atoms: C_11  and  C_13
REMARK                            x       y       z     vdW  Elec       q    Type
REMARK                         _______ _______ _______ _____ _____    ______ ____
ROOT
ATOM      1  C   UNL     1       4.021   5.496  17.249  0.00  0.00    +0.000 C 
ATOM      2  N   UNL     1       3.712   6.794  17.867  0.00  0.00    +0.000 NA
ATOM      3  C   UNL     1       2.305   7.075  18.214  0.00  0.00    +0.000 C 
ATOM      4  C   UNL     1       1.948   6.573  19.615  0.00  0.00    +0.000 C 
ATOM      5  C   UNL     1       1.900   5.093  19.759  0.00  0.00    +0.000 A 
ATOM      6  C   UNL     1       1.108   4.404  20.660  0.00  0.00    +0.000 A 
ATOM      7  N   UNL     1       1.379   3.073  20.533  0.00  0.00    +0.000 N 
ATOM      8  C   UNL     1       2.328   2.874  19.559  0.00  0.00    +0.000 A 
ATOM      9  C   UNL     1       2.880   1.670  19.114  0.00  0.00    +0.000 A 
ATOM     10  C   UNL     1       3.795   1.740  18.075  0.00  0.00    +0.000 A 
ATOM     11  C   UNL     1       4.141   2.972  17.520  0.00  0.00    +0.000 A 
ATOM     12  C   UNL     1       3.632   4.215  17.991  0.00  0.00    +0.000 A 
ATOM     13  C   UNL     1       2.678   4.126  19.041  0.00  0.00    +0.000 A 
ATOM     14  H   UNL     1       4.000   7.511  17.195  0.00  0.00    +0.000 HD
ATOM     15  H   UNL     1       0.941   2.337  21.073  0.00  0.00    +0.000 HD
ENDROOT
BRANCH   3  16
ATOM     16  C   UNL     1       2.137   8.624  18.246  0.00  0.00    +0.000 C 
ATOM     17  O   UNL     1       2.684   9.365  17.436  0.00  0.00    +0.000 OA
ATOM     18  N   UNL     1       1.307   9.085  19.258  0.00  0.00    +0.000 N 
ATOM     19  H   UNL     1       0.785   8.373  19.765  0.00  0.00    +0.000 HD
BRANCH  18  20
ATOM     20  C   UNL     1       1.003  10.491  19.475  0.00  0.00    +0.000 C 
ATOM     21  C   UNL     1      -0.250  10.908  18.710  0.00  0.00    +0.000 C 
ATOM     22  C   UNL     1       0.834  10.769  20.964  0.00  0.00    +0.000 C 
ENDBRANCH  18  20
ENDBRANCH   3  16
BRANCH   1  23
ATOM     23  C   UNL     1       5.545   5.583  16.899  0.00  0.00    +0.000 C 
BRANCH  23  25
ATOM     24  C   UNL     1       7.402   4.956  15.327  0.00  0.00    +0.000 C 
ATOM     25  C   UNL     1       5.954   5.454  15.406  0.00  0.00    +0.000 C 
ATOM     26  C   UNL     1       5.080   4.500  14.584  0.00  0.00    +0.000 C 
ENDBRANCH  23  25
ENDBRANCH   1  23
TORSDOF 4
ENDMDL
MODEL 5
REMARK VINA RESULT:      -6.9      1.168      1.364
REMARK  Name = 
REMARK  8 active torsions:
REMARK  status: ('A' for Active; 'I' for Inactive)
REMARK    1  A    between atoms: C_1  and  C_2
REMARK    2  A    between atoms: C_2  and  C_3
REMARK    3  A    between atoms: C_2  and  C_4
REMARK    4  A    between atoms: C_4  and  C_5
REMARK    5  A    between atoms: C_7  and  C_8
REMARK    6  A    between atoms: N_10  and  C_11
REMARK    7  A    between atoms: C_11  and  C_12
REMARK    8  A    between atoms: C_11  and  C_13
REMARK                            x       y       z     vdW  Elec       q    Type
REMARK                         _______ _______ _______ _____ _____    ______ ____
ROOT
ATOM      1  C   UNL     1       3.382   5.818  17.635  0.00  0.00    +0.000 C 
ATOM      2  N   UNL     1       3.176   6.899  18.611  0.00  0.00    +0.000 NA
ATOM      3  C   UNL     1       1.919   6.900  19.384  0.00  0.00    +0.000 C 
ATOM      4  C   UNL     1       2.029   6.067  20.663  0.00  0.00    +0.000 C 
ATOM      5  C   UNL     1       2.133   4.598  20.448  0.00  0.00    +0.000 A 
ATOM      6  C   UNL     1       1.695   3.629  21.333  0.00  0.00    +0.000 A 
ATOM      7  N   UNL     1       2.012   2.407  20.817  0.00  0.00    +0.000 N 
ATOM      8  C   UNL     1       2.642   2.555  19.605  0.00  0.00    +0.000 A 
ATOM      9  C   UNL     1       3.124   1.562  18.747  0.00  0.00    +0.000 A 
ATOM     10  C   UNL     1       3.683   1.979  17.549  0.00  0.00    +0.000 A 
ATOM     11  C   UNL     1       3.760   3.337  17.239  0.00  0.00    +0.000 A 
ATOM     12  C   UNL     1       3.323   4.368  18.119  0.00  0.00    +0.000 A 
ATOM     13  C   UNL     1       2.732   3.925  19.333  0.00  0.00    +0.000 A 
ATOM     14  H   UNL     1       3.200   7.776  18.083  0.00  0.00    +0.000 HD
ATOM     15  H   UNL     1       1.807   1.520  21.258  0.00  0.00    +0.000 HD
ENDROOT
BRANCH   3  16
ATOM     16  C   UNL     1       1.656   8.368  19.837  0.00  0.00    +0.000 C 
ATOM     17  O   UNL     1       1.609   8.697  21.017  0.00  0.00    +0.000 OA
ATOM     18  N   UNL     1       1.496   9.266  18.791  0.00  0.00    +0.000 N 
ATOM     19  H   UNL     1       1.714   8.911  17.862  0.00  0.00    +0.000 HD
BRANCH  18  20
ATOM     20  C   UNL     1       1.245  10.686  18.978  0.00  0.00    +0.000 C 
ATOM     21  C   UNL     1       2.190  11.529  18.126  0.00  0.00    +0.000 C 
ATOM     22  C   UNL     1      -0.206  11.014  18.644  0.00  0.00    +0.000 C 
ENDBRANCH  18  20
ENDBRANCH   3  16
BRANCH   1  23
ATOM     23  C   UNL     1       4.724   6.190  16.918  0.00  0.00    +0.000 C 
BRANCH  23  25
ATOM     24  C   UNL     1       6.841   4.983  17.531  0.00  0.00    +0.000 C 
ATOM     25  C   UNL     1       6.014   6.250  17.782  0.00  0.00    +0.000 C 
ATOM     26  C   UNL     1       6.911   7.463  17.509  0.00  0.00    +0.000 C 
ENDBRANCH  23  25
ENDBRANCH   1  23
TORSDOF 4
ENDMDL
MODEL 6
REMARK VINA RESULT:      -6.5      2.475      5.903
REMARK  Name = 
REMARK  8 active torsions:
REMARK  status: ('A' for Active; 'I' for Inactive)
REMARK    1  A    between atoms: C_1  and  C_2
REMARK    2  A    between atoms: C_2  and  C_3
REMARK    3  A    between atoms: C_2  and  C_4
REMARK    4  A    between atoms: C_4  and  C_5
REMARK    5  A    between atoms: C_7  and  C_8
REMARK    6  A    between atoms: N_10  and  C_11
REMARK    7  A    between atoms: C_11  and  C_12
REMARK    8  A    between atoms: C_11  and  C_13
REMARK                            x       y       z     vdW  Elec       q    Type
REMARK                         _______ _______ _______ _____ _____    ______ ____
ROOT
ATOM      1  C   UNL     1       3.393   6.000  18.124  0.00  0.00    +0.000 C 
ATOM      2  N   UNL     1       4.182   5.673  16.926  0.00  0.00    +0.000 NA
ATOM      3  C   UNL     1       5.220   4.630  17.048  0.00  0.00    +0.000 C 
ATOM      4  C   UNL     1       4.660   3.229  16.791  0.00  0.00    +0.000 C 
ATOM      5  C   UNL     1       3.737   2.719  17.842  0.00  0.00    +0.000 A 
ATOM      6  C   UNL     1       3.549   1.386  18.160  0.00  0.00    +0.000 A 
ATOM      7  N   UNL     1       2.591   1.311  19.127  0.00  0.00    +0.000 N 
ATOM      8  C   UNL     1       2.152   2.571  19.457  0.00  0.00    +0.000 A 
ATOM      9  C   UNL     1       1.188   2.939  20.399  0.00  0.00    +0.000 A 
ATOM     10  C   UNL     1       0.960   4.295  20.575  0.00  0.00    +0.000 A 
ATOM     11  C   UNL     1       1.669   5.233  19.826  0.00  0.00    +0.000 A 
ATOM     12  C   UNL     1       2.618   4.882  18.824  0.00  0.00    +0.000 A 
ATOM     13  C   UNL     1       2.857   3.490  18.671  0.00  0.00    +0.000 A 
ATOM     14  H   UNL     1       4.660   6.535  16.648  0.00  0.00    +0.000 HD
ATOM     15  H   UNL     1       2.255   0.454  19.547  0.00  0.00    +0.000 HD
ENDROOT
BRANCH   3  16
ATOM     16  C   UNL     1       6.273   4.894  15.930  0.00  0.00    +0.000 C 
ATOM     17  O   UNL     1       7.146   5.749  16.033  0.00  0.00    +0.000 OA
ATOM     18  N   UNL     1       6.144   4.069  14.821  0.00  0.00    +0.000 N 
ATOM     19  H   UNL     1       5.490   3.295  14.915  0.00  0.00    +0.000 HD
BRANCH  18  20
ATOM     20  C   UNL     1       7.018   4.135  13.661  0.00  0.00    +0.000 C 
ATOM     21  C   UNL     1       6.340   3.547  12.427  0.00  0.00    +0.000 C 
ATOM     22  C   UNL     1       7.441   5.576  13.400  0.00  0.00    +0.000 C 
ENDBRANCH  18  20
ENDBRANCH   3  16
BRANCH   1  23
ATOM     23  C   UNL     1       2.499   7.208  17.684  0.00  0.00    +0.000 C 
BRANCH  23  25
ATOM     24  C   UNL     1       1.914   9.650  17.780  0.00  0.00    +0.000 C 
ATOM     25  C   UNL     1       2.517   8.483  18.572  0.00  0.00    +0.000 C 
ATOM     26  C   UNL     1       1.744   8.355  19.889  0.00  0.00    +0.000 C 
ENDBRANCH  23  25
ENDBRANCH   1  23
TORSDOF 4
ENDMDL
MODEL 7
REMARK VINA RESULT:      -6.5      5.638      8.793
REMARK  Name = 
REMARK  8 active torsions:
REMARK  status: ('A' for Active; 'I' for Inactive)
REMARK    1  A    between atoms: C_1  and  C_2
REMARK    2  A    between atoms: C_2  and  C_3
REMARK    3  A    between atoms: C_2  and  C_4
REMARK    4  A    between atoms: C_4  and  C_5
REMARK    5  A    between atoms: C_7  and  C_8
REMARK    6  A    between atoms: N_10  and  C_11
REMARK    7  A    between atoms: C_11  and  C_12
REMARK    8  A    between atoms: C_11  and  C_13
REMARK                            x       y       z     vdW  Elec       q    Type
REMARK                         _______ _______ _______ _____ _____    ______ ____
ROOT
ATOM      1  C   UNL     1      -1.362  11.267  19.022  0.00  0.00    +0.000 C 
ATOM      2  N   UNL     1      -1.885  11.716  20.322  0.00  0.00    +0.000 NA
ATOM      3  C   UNL     1      -2.729  12.926  20.345  0.00  0.00    +0.000 C 
ATOM      4  C   UNL     1      -4.206  12.602  20.112  0.00  0.00    +0.000 C 
ATOM      5  C   UNL     1      -4.540  12.151  18.733  0.00  0.00    +0.000 A 
ATOM      6  C   UNL     1      -5.760  12.331  18.108  0.00  0.00    +0.000 A 
ATOM      7  N   UNL     1      -5.702  11.735  16.882  0.00  0.00    +0.000 N 
ATOM      8  C   UNL     1      -4.463  11.174  16.688  0.00  0.00    +0.000 A 
ATOM      9  C   UNL     1      -3.988  10.479  15.573  0.00  0.00    +0.000 A 
ATOM     10  C   UNL     1      -2.669  10.051  15.609  0.00  0.00    +0.000 A 
ATOM     11  C   UNL     1      -1.873  10.308  16.726  0.00  0.00    +0.000 A 
ATOM     12  C   UNL     1      -2.351  10.969  17.893  0.00  0.00    +0.000 A 
ATOM     13  C   UNL     1      -3.696  11.421  17.832  0.00  0.00    +0.000 A 
ATOM     14  H   UNL     1      -1.071  11.911  20.911  0.00  0.00    +0.000 HD
ATOM     15  H   UNL     1      -6.459  11.714  16.210  0.00  0.00    +0.000 HD
ENDROOT
BRANCH   3  16
ATOM     16  C   UNL     1      -2.632  13.530  21.779  0.00  0.00    +0.000 C 
ATOM     17  O   UNL     1      -1.738  14.298  22.114  0.00  0.00    +0.000 OA
ATOM     18  N   UNL     1      -3.653  13.133  22.632  0.00  0.00    +0.000 N 
ATOM     19  H   UNL     1      -4.423  12.626  22.200  0.00  0.00    +0.000 HD
BRANCH  18  20
ATOM     20  C   UNL     1      -3.767  13.574  24.013  0.00  0.00    +0.000 C 
ATOM     21  C   UNL     1      -4.541  14.885  24.111  0.00  0.00    +0.000 C 
ATOM     22  C   UNL     1      -4.439  12.496  24.856  0.00  0.00    +0.000 C 
ENDBRANCH  18  20
ENDBRANCH   3  16
BRANCH   1  23
ATOM     23  C   UNL     1      -0.423  10.064  19.374  0.00  0.00    +0.000 C 
BRANCH  23  25
ATOM     24  C   UNL     1       1.478   9.283  17.928  0.00  0.00    +0.000 C 
ATOM     25  C   UNL     1       1.094  10.220  19.081  0.00  0.00    +0.000 C 
ATOM     26  C   UNL     1       1.530  11.640  18.702  0.00  0.00    +0.000 C 
ENDBRANCH  23  25
ENDBRANCH   1  23
TORSDOF 4
ENDMDL
MODEL 8
REMARK VINA RESULT:      -6.4      1.249      1.552
REMARK  Name = 
REMARK  8 active torsions:
REMARK  status: ('A' for Active; 'I' for Inactive)
REMARK    1  A    between atoms: C_1  and  C_2
REMARK    2  A    between atoms: C_2  and  C_3
REMARK    3  A    between atoms: C_2  and  C_4
REMARK    4  A    between atoms: C_4  and  C_5
REMARK    5  A    between atoms: C_7  and  C_8
REMARK    6  A    between atoms: N_10  and  C_11
REMARK    7  A    between atoms: C_11  and  C_12
REMARK    8  A    between atoms: C_11  and  C_13
REMARK                            x       y       z     vdW  Elec       q    Type
REMARK                         _______ _______ _______ _____ _____    ______ ____
ROOT
ATOM      1  C   UNL     1       3.635   5.662  17.809  0.00  0.00    +0.000 C 
ATOM      2  N   UNL     1       3.317   6.758  18.738  0.00  0.00    +0.000 NA
ATOM      3  C   UNL     1       1.954   6.811  19.301  0.00  0.00    +0.000 C 
ATOM      4  C   UNL     1       1.828   5.984  20.582  0.00  0.00    +0.000 C 
ATOM      5  C   UNL     1       1.909   4.510  20.389  0.00  0.00    +0.000 A 
ATOM      6  C   UNL     1       1.299   3.565  21.194  0.00  0.00    +0.000 A 
ATOM      7  N   UNL     1       1.648   2.328  20.737  0.00  0.00    +0.000 N 
ATOM      8  C   UNL     1       2.468   2.443  19.641  0.00  0.00    +0.000 A 
ATOM      9  C   UNL     1       3.042   1.427  18.872  0.00  0.00    +0.000 A 
ATOM     10  C   UNL     1       3.800   1.814  17.777  0.00  0.00    +0.000 A 
ATOM     11  C   UNL     1       3.976   3.166  17.481  0.00  0.00    +0.000 A 
ATOM     12  C   UNL     1       3.445   4.219  18.280  0.00  0.00    +0.000 A 
ATOM     13  C   UNL     1       2.652   3.807  19.384  0.00  0.00    +0.000 A 
ATOM     14  H   UNL     1       3.458   7.629  18.219  0.00  0.00    +0.000 HD
ATOM     15  H   UNL     1       1.343   1.452  21.142  0.00  0.00    +0.000 HD
ENDROOT
BRANCH   3  16
ATOM     16  C   UNL     1       1.678   8.291  19.704  0.00  0.00    +0.000 C 
ATOM     17  O   UNL     1       1.948   9.237  18.972  0.00  0.00    +0.000 OA
ATOM     18  N   UNL     1       1.088   8.439  20.952  0.00  0.00    +0.000 N 
ATOM     19  H   UNL     1       0.764   7.583  21.396  0.00  0.00    +0.000 HD
BRANCH  18  20
ATOM     20  C   UNL     1       0.738   9.727  21.531  0.00  0.00    +0.000 C 
ATOM     21  C   UNL     1      -0.397  10.389  20.755  0.00  0.00    +0.000 C 
ATOM     22  C   UNL     1       0.352   9.558  22.996  0.00  0.00    +0.000 C 
ENDBRANCH  18  20
ENDBRANCH   3  16
BRANCH   1  23
ATOM     23  C   UNL     1       5.086   5.979  17.314  0.00  0.00    +0.000 C 
BRANCH  23  25
ATOM     24  C   UNL     1       5.672   5.360  14.950  0.00  0.00    +0.000 C 
ATOM     25  C   UNL     1       5.791   4.925  16.416  0.00  0.00    +0.000 C 
ATOM     26  C   UNL     1       7.276   4.711  16.727  0.00  0.00    +0.000 C 
ENDBRANCH  23  25
ENDBRANCH   1  23
TORSDOF 4
ENDMDL
MODEL 9
REMARK VINA RESULT:      -6.4      2.327      6.495
REMARK  Name = 
REMARK  8 active torsions:
REMARK  status: ('A' for Active; 'I' for Inactive)
REMARK    1  A    between atoms: C_1  and  C_2
REMARK    2  A    between atoms: C_2  and  C_3
REMARK    3  A    between atoms: C_2  and  C_4
REMARK    4  A    between atoms: C_4  and  C_5
REMARK    5  A    between atoms: C_7  and  C_8
REMARK    6  A    between atoms: N_10  and  C_11
REMARK    7  A    between atoms: C_11  and  C_12
REMARK    8  A    between atoms: C_11  and  C_13
REMARK                            x       y       z     vdW  Elec       q    Type
REMARK                         _______ _______ _______ _____ _____    ______ ____
ROOT
ATOM      1  C   UNL     1       2.125   5.359  20.071  0.00  0.00    +0.000 C 
ATOM      2  N   UNL     1       3.250   4.990  19.198  0.00  0.00    +0.000 NA
ATOM      3  C   UNL     1       3.158   5.343  17.768  0.00  0.00    +0.000 C 
ATOM      4  C   UNL     1       3.691   6.750  17.488  0.00  0.00    +0.000 C 
ATOM      5  C   UNL     1       2.853   7.857  18.023  0.00  0.00    +0.000 A 
ATOM      6  C   UNL     1       2.765   9.126  17.480  0.00  0.00    +0.000 A 
ATOM      7  N   UNL     1       1.947   9.873  18.275  0.00  0.00    +0.000 N 
ATOM      8  C   UNL     1       1.490   9.117  19.327  0.00  0.00    +0.000 A 
ATOM      9  C   UNL     1       0.631   9.494  20.363  0.00  0.00    +0.000 A 
ATOM     10  C   UNL     1       0.283   8.517  21.283  0.00  0.00    +0.000 A 
ATOM     11  C   UNL     1       0.788   7.222  21.165  0.00  0.00    +0.000 A 
ATOM     12  C   UNL     1       1.704   6.828  20.148  0.00  0.00    +0.000 A 
ATOM     13  C   UNL     1       2.034   7.833  19.200  0.00  0.00    +0.000 A 
ATOM     14  H   UNL     1       3.333   3.971  19.246  0.00  0.00    +0.000 HD
ATOM     15  H   UNL     1       1.707  10.843  18.113  0.00  0.00    +0.000 HD
ENDROOT
BRANCH   3  16
ATOM     16  C   UNL     1       4.082   4.359  16.988  0.00  0.00    +0.000 C 
ATOM     17  O   UNL     1       3.973   3.141  17.075  0.00  0.00    +0.000 OA
ATOM     18  N   UNL     1       5.023   4.983  16.181  0.00  0.00    +0.000 N 
ATOM     19  H   UNL     1       4.914   5.988  16.065  0.00  0.00    +0.000 HD
BRANCH  18  20
ATOM     20  C   UNL     1       5.986   4.265  15.361  0.00  0.00    +0.000 C 
ATOM     21  C   UNL     1       5.498   4.139  13.921  0.00  0.00    +0.000 C 
ATOM     22  C   UNL     1       7.340   4.964  15.405  0.00  0.00    +0.000 C 
ENDBRANCH  18  20
ENDBRANCH   3  16
BRANCH   1  23
ATOM     23  C   UNL     1       2.487   4.732  21.460  0.00  0.00    +0.000 C 
BRANCH  23  25
ATOM     24  C   UNL     1       0.882   2.904  20.828  0.00  0.00    +0.000 C 
ATOM     25  C   UNL     1       2.086   3.253  21.712  0.00  0.00    +0.000 C 
ATOM     26  C   UNL     1       3.194   2.232  21.426  0.00  0.00    +0.000 C 
ENDBRANCH  23  25
ENDBRANCH   1  23
TORSDOF 4
ENDMDL
