MODEL 1
REMARK VINA RESULT:      -7.7      0.000      0.000
REMARK  Name = 
REMARK  11 active torsions:
REMARK  status: ('A' for Active; 'I' for Inactive)
REMARK    1  A    between atoms: C_1  and  O_2
REMARK    2  A    between atoms: O_2  and  C_3
REMARK    3  A    between atoms: C_6  and  C_7
REMARK    4  A    between atoms: C_7  and  N_8
REMARK    5  A    between atoms: N_8  and  C_9
REMARK    6  A    between atoms: N_12  and  C_13
REMARK    7  A    between atoms: C_13  and  C_14
REMARK    8  A    between atoms: C_14  and  O_15
REMARK    9  A    between atoms: N_25  and  C_26
REMARK   10  A    between atoms: C_26  and  C_27
REMARK   11  A    between atoms: C_26  and  C_28
REMARK                            x       y       z     vdW  Elec       q    Type
REMARK                         _______ _______ _______ _____ _____    ______ ____
ROOT
ATOM      1  C   UNL     1       6.985   5.563  16.045  0.00  0.00    +0.000 A 
ATOM      2  N   UNL     1       6.129   4.899  16.868  0.00  0.00    +0.000 NA
ATOM      3  C   UNL     1       5.399   3.862  16.409  0.00  0.00    +0.000 A 
ATOM      4  N   UNL     1       4.552   3.186  17.269  0.00  0.00    +0.000 N 
ATOM      5  N   UNL     1       5.406   3.392  15.149  0.00  0.00    +0.000 NA
ATOM      6  C   UNL     1       6.260   4.055  14.353  0.00  0.00    +0.000 A 
ATOM      7  C   UNL     1       7.062   5.123  14.709  0.00  0.00    +0.000 A 
ATOM      8  N   UNL     1       7.823   5.554  13.646  0.00  0.00    +0.000 NA
ATOM      9  C   UNL     1       7.488   4.757  12.654  0.00  0.00    +0.000 A 
ATOM     10  N   UNL     1       6.553   3.824  13.033  0.00  0.00    +0.000 N 
ATOM     11  H   UNL     1       3.952   2.590  16.709  0.00  0.00    +0.000 HD
ENDROOT
BRANCH   4  12
ATOM     12  C   UNL     1       3.879   3.883  18.377  0.00  0.00    +0.000 C 
ATOM     13  C   UNL     1       3.434   5.270  17.858  0.00  0.00    +0.000 C 
ATOM     14  C   UNL     1       2.190   5.648  18.654  0.00  0.00    +0.000 C 
ATOM     15  C   UNL     1       1.603   4.349  19.182  0.00  0.00    +0.000 C 
ATOM     16  C   UNL     1       2.540   3.227  18.749  0.00  0.00    +0.000 C 
BRANCH  12  17
ATOM     17  C   UNL     1       4.810   4.025  19.608  0.00  0.00    +0.000 C 
BRANCH  17  18
ATOM     18  O   UNL     1       5.366   5.339  19.693  0.00  0.00    +0.000 OA
ATOM     19  H   UNL     1       4.692   5.945  19.336  0.00  0.00    +0.000 HD
ENDBRANCH  17  18
ENDBRANCH  12  17
ENDBRANCH   4  12
BRANCH  10  20
ATOM     20  C   UNL     1       6.048   2.767  12.167  0.00  0.00    +0.000 C 
ATOM     21  C   UNL     1       4.745   3.157  11.468  0.00  0.00    +0.000 C 
ATOM     22  C   UNL     1       7.085   2.269  11.162  0.00  0.00    +0.000 C 
ENDBRANCH  10  20
BRANCH   1  23
ATOM     23  N   UNL     1       7.748   6.643  16.505  0.00  0.00    +0.000 N 
ATOM     24  H   UNL     1       8.735   6.478  16.310  0.00  0.00    +0.000 HD
BRANCH  23  25
ATOM     25  C   UNL     1       7.463   7.085  17.857  0.00  0.00    +0.000 C 
BRANCH  25  29
ATOM     26  C   UNL     1       9.019  11.075  18.566  0.00  0.00    +0.000 A 
ATOM     27  C   UNL     1       8.106  10.845  17.536  0.00  0.00    +0.000 A 
ATOM     28  C   UNL     1       7.605   9.558  17.306  0.00  0.00    +0.000 A 
ATOM     29  C   UNL     1       8.028   8.475  18.086  0.00  0.00    +0.000 A 
ATOM     30  C   UNL     1       8.960   8.713  19.107  0.00  0.00    +0.000 A 
ATOM     31  C   UNL     1       9.453  10.003  19.346  0.00  0.00    +0.000 A 
BRANCH  26  33
ATOM     32  C   UNL     1       8.722  13.337  17.939  0.00  0.00    +0.000 C 
ATOM     33  O   UNL     1       9.447  12.371  18.693  0.00  0.00    +0.000 OA
ENDBRANCH  26  33
ENDBRANCH  25  29
ENDBRANCH  23  25
ENDBRANCH   1  23
TORSDOF 8
ENDMDL
MODEL 2
REMARK VINA RESULT:      -7.5      0.680      1.122
REMARK  Name = 
REMARK  11 active torsions:
REMARK  status: ('A' for Active; 'I' for Inactive)
REMARK    1  A    between atoms: C_1  and  O_2
REMARK    2  A    between atoms: O_2  and  C_3
REMARK    3  A    between atoms: C_6  and  C_7
REMARK    4  A    between atoms: C_7  and  N_8
REMARK    5  A    between atoms: N_8  and  C_9
REMARK    6  A    between atoms: N_12  and  C_13
REMARK    7  A    between atoms: C_13  and  C_14
REMARK    8  A    between atoms: C_14  and  O_15
REMARK    9  A    between atoms: N_25  and  C_26
REMARK   10  A    between atoms: C_26  and  C_27
REMARK   11  A    between atoms: C_26  and  C_28
REMARK                            x       y       z     vdW  Elec       q    Type
REMARK                         _______ _______ _______ _____ _____    ______ ____
ROOT
ATOM      1  C   UNL     1       6.960   5.542  16.026  0.00  0.00    +0.000 A 
ATOM      2  N   UNL     1       6.108   4.862  16.840  0.00  0.00    +0.000 NA
ATOM      3  C   UNL     1       5.394   3.818  16.372  0.00  0.00    +0.000 A 
ATOM      4  N   UNL     1       4.552   3.126  17.225  0.00  0.00    +0.000 N 
ATOM      5  N   UNL     1       5.415   3.354  15.110  0.00  0.00    +0.000 NA
ATOM      6  C   UNL     1       6.264   4.032  14.323  0.00  0.00    +0.000 A 
ATOM      7  C   UNL     1       7.050   5.109  14.687  0.00  0.00    +0.000 A 
ATOM      8  N   UNL     1       7.811   5.555  13.631  0.00  0.00    +0.000 NA
ATOM      9  C   UNL     1       7.492   4.758  12.634  0.00  0.00    +0.000 A 
ATOM     10  N   UNL     1       6.567   3.811  13.002  0.00  0.00    +0.000 N 
ATOM     11  H   UNL     1       3.963   2.525  16.658  0.00  0.00    +0.000 HD
ENDROOT
BRANCH   4  12
ATOM     12  C   UNL     1       3.864   3.810  18.333  0.00  0.00    +0.000 C 
ATOM     13  C   UNL     1       3.482   5.227  17.845  0.00  0.00    +0.000 C 
ATOM     14  C   UNL     1       2.224   5.620  18.611  0.00  0.00    +0.000 C 
ATOM     15  C   UNL     1       1.578   4.325  19.076  0.00  0.00    +0.000 C 
ATOM     16  C   UNL     1       2.492   3.187  18.637  0.00  0.00    +0.000 C 
BRANCH  12  17
ATOM     17  C   UNL     1       4.756   3.881  19.597  0.00  0.00    +0.000 C 
BRANCH  17  18
ATOM     18  O   UNL     1       4.952   2.586  20.173  0.00  0.00    +0.000 OA
ATOM     19  H   UNL     1       4.106   2.342  20.588  0.00  0.00    +0.000 HD
ENDBRANCH  17  18
ENDBRANCH  12  17
ENDBRANCH   4  12
BRANCH  10  20
ATOM     20  C   UNL     1       6.081   2.751  12.129  0.00  0.00    +0.000 C 
ATOM     21  C   UNL     1       4.784   3.132  11.415  0.00  0.00    +0.000 C 
ATOM     22  C   UNL     1       7.134   2.263  11.136  0.00  0.00    +0.000 C 
ENDBRANCH  10  20
BRANCH   1  23
ATOM     23  N   UNL     1       7.706   6.629  16.494  0.00  0.00    +0.000 N 
ATOM     24  H   UNL     1       8.692   6.496  16.271  0.00  0.00    +0.000 HD
BRANCH  23  25
ATOM     25  C   UNL     1       7.444   7.028  17.865  0.00  0.00    +0.000 C 
BRANCH  25  29
ATOM     26  C   UNL     1       8.992  11.031  18.516  0.00  0.00    +0.000 A 
ATOM     27  C   UNL     1       9.420   9.969  19.313  0.00  0.00    +0.000 A 
ATOM     28  C   UNL     1       8.920   8.678  19.105  0.00  0.00    +0.000 A 
ATOM     29  C   UNL     1       7.964   8.433  18.111  0.00  0.00    +0.000 A 
ATOM     30  C   UNL     1       7.526   9.510  17.328  0.00  0.00    +0.000 A 
ATOM     31  C   UNL     1       8.035  10.801  17.528  0.00  0.00    +0.000 A 
BRANCH  26  33
ATOM     32  C   UNL     1       9.602  12.576  20.201  0.00  0.00    +0.000 C 
ATOM     33  O   UNL     1       9.542  12.250  18.816  0.00  0.00    +0.000 OA
ENDBRANCH  26  33
ENDBRANCH  25  29
ENDBRANCH  23  25
ENDBRANCH   1  23
TORSDOF 8
ENDMDL
MODEL 3
REMARK VINA RESULT:      -7.3      0.829      1.015
REMARK  Name = 
REMARK  11 active torsions:
REMARK  status: ('A' for Active; 'I' for Inactive)
REMARK    1  A    between atoms: C_1  and  O_2
REMARK    2  A    between atoms: O_2  and  C_3
REMARK    3  A    between atoms: C_6  and  C_7
REMARK    4  A    between atoms: C_7  and  N_8
REMARK    5  A    between atoms: N_8  and  C_9
REMARK    6  A    between atoms: N_12  and  C_13
REMARK    7  A    between atoms: C_13  and  C_14
REMARK    8  A    between atoms: C_14  and  O_15
REMARK    9  A    between atoms: N_25  and  C_26
REMARK   10  A    between atoms: C_26  and  C_27
REMARK   11  A    between atoms: C_26  and  C_28
REMARK                            x       y       z     vdW  Elec       q    Type
REMARK                         _______ _______ _______ _____ _____    ______ ____
ROOT
ATOM      1  C   UNL     1       6.933   5.570  16.162  0.00  0.00    +0.000 A 
ATOM      2  N   UNL     1       6.041   4.939  16.973  0.00  0.00    +0.000 NA
ATOM      3  C   UNL     1       5.277   3.932  16.504  0.00  0.00    +0.000 A 
ATOM      4  N   UNL     1       4.393   3.289  17.353  0.00  0.00    +0.000 N 
ATOM      5  N   UNL     1       5.281   3.463  15.244  0.00  0.00    +0.000 NA
ATOM      6  C   UNL     1       6.170   4.093  14.459  0.00  0.00    +0.000 A 
ATOM      7  C   UNL     1       7.009   5.128  14.826  0.00  0.00    +0.000 A 
ATOM      8  N   UNL     1       7.799   5.530  13.773  0.00  0.00    +0.000 NA
ATOM      9  C   UNL     1       7.444   4.747  12.776  0.00  0.00    +0.000 A 
ATOM     10  N   UNL     1       6.469   3.852  13.142  0.00  0.00    +0.000 N 
ATOM     11  H   UNL     1       3.777   2.717  16.785  0.00  0.00    +0.000 HD
ENDROOT
BRANCH   4  12
ATOM     12  C   UNL     1       3.735   4.011  18.454  0.00  0.00    +0.000 C 
ATOM     13  C   UNL     1       2.209   3.946  18.212  0.00  0.00    +0.000 C 
ATOM     14  C   UNL     1       1.554   3.997  19.587  0.00  0.00    +0.000 C 
ATOM     15  C   UNL     1       2.605   3.538  20.585  0.00  0.00    +0.000 C 
ATOM     16  C   UNL     1       3.886   3.283  19.799  0.00  0.00    +0.000 C 
BRANCH  12  17
ATOM     17  C   UNL     1       4.220   5.481  18.539  0.00  0.00    +0.000 C 
BRANCH  17  18
ATOM     18  O   UNL     1       3.370   6.355  17.793  0.00  0.00    +0.000 OA
ATOM     19  H   UNL     1       3.255   7.155  18.338  0.00  0.00    +0.000 HD
ENDBRANCH  17  18
ENDBRANCH  12  17
ENDBRANCH   4  12
BRANCH  10  20
ATOM     20  C   UNL     1       5.933   2.815  12.269  0.00  0.00    +0.000 C 
ATOM     21  C   UNL     1       4.621   3.232  11.605  0.00  0.00    +0.000 C 
ATOM     22  C   UNL     1       6.943   2.325  11.233  0.00  0.00    +0.000 C 
ENDBRANCH  10  20
BRANCH   1  23
ATOM     23  N   UNL     1       7.732   6.619  16.632  0.00  0.00    +0.000 N 
ATOM     24  H   UNL     1       8.716   6.362  16.563  0.00  0.00    +0.000 HD
BRANCH  23  25
ATOM     25  C   UNL     1       7.341   7.183  17.910  0.00  0.00    +0.000 C 
BRANCH  25  29
ATOM     26  C   UNL     1       9.073  11.122  18.486  0.00  0.00    +0.000 A 
ATOM     27  C   UNL     1       8.107  10.912  17.502  0.00  0.00    +0.000 A 
ATOM     28  C   UNL     1       7.548   9.642  17.315  0.00  0.00    +0.000 A 
ATOM     29  C   UNL     1       7.967   8.554  18.092  0.00  0.00    +0.000 A 
ATOM     30  C   UNL     1       8.953   8.771  19.065  0.00  0.00    +0.000 A 
ATOM     31  C   UNL     1       9.503  10.046  19.262  0.00  0.00    +0.000 A 
BRANCH  26  33
ATOM     32  C   UNL     1      10.668  12.701  17.740  0.00  0.00    +0.000 C 
ATOM     33  O   UNL     1       9.554  12.403  18.573  0.00  0.00    +0.000 OA
ENDBRANCH  26  33
ENDBRANCH  25  29
ENDBRANCH  23  25
ENDBRANCH   1  23
TORSDOF 8
ENDMDL
MODEL 4
REMARK VINA RESULT:      -7.3      0.966      1.577
REMARK  Name = 
REMARK  11 active torsions:
REMARK  status: ('A' for Active; 'I' for Inactive)
REMARK    1  A    between atoms: C_1  and  O_2
REMARK    2  A    between atoms: O_2  and  C_3
REMARK    3  A    between atoms: C_6  and  C_7
REMARK    4  A    between atoms: C_7  and  N_8
REMARK    5  A    between atoms: N_8  and  C_9
REMARK    6  A    between atoms: N_12  and  C_13
REMARK    7  A    between atoms: C_13  and  C_14
REMARK    8  A    between atoms: C_14  and  O_15
REMARK    9  A    between atoms: N_25  and  C_26
REMARK   10  A    between atoms: C_26  and  C_27
REMARK   11  A    between atoms: C_26  and  C_28
REMARK                            x       y       z     vdW  Elec       q    Type
REMARK                         _______ _______ _______ _____ _____    ______ ____
ROOT
ATOM      1  C   UNL     1       6.694   5.705  16.311  0.00  0.00    +0.000 A 
ATOM      2  N   UNL     1       5.678   5.133  17.012  0.00  0.00    +0.000 NA
ATOM      3  C   UNL     1       4.931   4.152  16.465  0.00  0.00    +0.000 A 
ATOM      4  N   UNL     1       3.918   3.568  17.205  0.00  0.00    +0.000 N 
ATOM      5  N   UNL     1       5.072   3.657  15.222  0.00  0.00    +0.000 NA
ATOM      6  C   UNL     1       6.081   4.229  14.548  0.00  0.00    +0.000 A 
ATOM      7  C   UNL     1       6.916   5.233  15.002  0.00  0.00    +0.000 A 
ATOM      8  N   UNL     1       7.851   5.575  14.052  0.00  0.00    +0.000 NA
ATOM      9  C   UNL     1       7.588   4.790  13.030  0.00  0.00    +0.000 A 
ATOM     10  N   UNL     1       6.532   3.947  13.283  0.00  0.00    +0.000 N 
ATOM     11  H   UNL     1       3.352   3.014  16.572  0.00  0.00    +0.000 HD
ENDROOT
BRANCH   4  12
ATOM     12  C   UNL     1       3.162   4.343  18.203  0.00  0.00    +0.000 C 
ATOM     13  C   UNL     1       1.788   3.658  18.385  0.00  0.00    +0.000 C 
ATOM     14  C   UNL     1       1.351   3.947  19.817  0.00  0.00    +0.000 C 
ATOM     15  C   UNL     1       2.614   4.270  20.598  0.00  0.00    +0.000 C 
ATOM     16  C   UNL     1       3.773   4.233  19.608  0.00  0.00    +0.000 C 
BRANCH  12  17
ATOM     17  C   UNL     1       2.991   5.819  17.765  0.00  0.00    +0.000 C 
BRANCH  17  18
ATOM     18  O   UNL     1       3.689   6.708  18.640  0.00  0.00    +0.000 OA
ATOM     19  H   UNL     1       3.006   7.204  19.127  0.00  0.00    +0.000 HD
ENDBRANCH  17  18
ENDBRANCH  12  17
ENDBRANCH   4  12
BRANCH  10  20
ATOM     20  C   UNL     1       6.061   2.919  12.364  0.00  0.00    +0.000 C 
ATOM     21  C   UNL     1       4.762   3.313  11.663  0.00  0.00    +0.000 C 
ATOM     22  C   UNL     1       7.123   2.486  11.355  0.00  0.00    +0.000 C 
ENDBRANCH  10  20
BRANCH   1  23
ATOM     23  N   UNL     1       7.478   6.726  16.863  0.00  0.00    +0.000 N 
ATOM     24  H   UNL     1       8.180   6.326  17.484  0.00  0.00    +0.000 HD
BRANCH  23  25
ATOM     25  C   UNL     1       6.746   7.850  17.418  0.00  0.00    +0.000 C 
BRANCH  25  29
ATOM     26  C   UNL     1       9.558  10.900  18.696  0.00  0.00    +0.000 A 
ATOM     27  C   UNL     1       9.570   9.636  19.285  0.00  0.00    +0.000 A 
ATOM     28  C   UNL     1       8.663   8.652  18.875  0.00  0.00    +0.000 A 
ATOM     29  C   UNL     1       7.711   8.925  17.885  0.00  0.00    +0.000 A 
ATOM     30  C   UNL     1       7.694  10.204  17.311  0.00  0.00    +0.000 A 
ATOM     31  C   UNL     1       8.610  11.186  17.713  0.00  0.00    +0.000 A 
BRANCH  26  33
ATOM     32  C   UNL     1      11.770  11.730  18.571  0.00  0.00    +0.000 C 
ATOM     33  O   UNL     1      10.485  11.785  19.182  0.00  0.00    +0.000 OA
ENDBRANCH  26  33
ENDBRANCH  25  29
ENDBRANCH  23  25
ENDBRANCH   1  23
TORSDOF 8
ENDMDL
MODEL 5
REMARK VINA RESULT:      -7.3      0.984      1.525
REMARK  Name = 
REMARK  11 active torsions:
REMARK  status: ('A' for Active; 'I' for Inactive)
REMARK    1  A    between atoms: C_1  and  O_2
REMARK    2  A    between atoms: O_2  and  C_3
REMARK    3  A    between atoms: C_6  and  C_7
REMARK    4  A    between atoms: C_7  and  N_8
REMARK    5  A    between atoms: N_8  and  C_9
REMARK    6  A    between atoms: N_12  and  C_13
REMARK    7  A    between atoms: C_13  and  C_14
REMARK    8  A    between atoms: C_14  and  O_15
REMARK    9  A    between atoms: N_25  and  C_26
REMARK   10  A    between atoms: C_26  and  C_27
REMARK   11  A    between atoms: C_26  and  C_28
REMARK                            x       y       z     vdW  Elec       q    Type
REMARK                         _______ _______ _______ _____ _____    ______ ____
ROOT
ATOM      1  C   UNL     1       6.914   5.538  15.943  0.00  0.00    +0.000 A 
ATOM      2  N   UNL     1       6.067   4.851  16.757  0.00  0.00    +0.000 NA
ATOM      3  C   UNL     1       5.383   3.784  16.295  0.00  0.00    +0.000 A 
ATOM      4  N   UNL     1       4.545   3.086  17.146  0.00  0.00    +0.000 N 
ATOM      5  N   UNL     1       5.429   3.304  15.039  0.00  0.00    +0.000 NA
ATOM      6  C   UNL     1       6.274   3.990  14.253  0.00  0.00    +0.000 A 
ATOM      7  C   UNL     1       7.031   5.089  14.612  0.00  0.00    +0.000 A 
ATOM      8  N   UNL     1       7.795   5.537  13.559  0.00  0.00    +0.000 NA
ATOM      9  C   UNL     1       7.506   4.720  12.569  0.00  0.00    +0.000 A 
ATOM     10  N   UNL     1       6.598   3.758  12.940  0.00  0.00    +0.000 N 
ATOM     11  H   UNL     1       3.977   2.464  16.581  0.00  0.00    +0.000 HD
ENDROOT
BRANCH   4  12
ATOM     12  C   UNL     1       3.828   3.769  18.236  0.00  0.00    +0.000 C 
ATOM     13  C   UNL     1       4.883   4.462  19.129  0.00  0.00    +0.000 C 
ATOM     14  C   UNL     1       4.198   5.683  19.733  0.00  0.00    +0.000 C 
ATOM     15  C   UNL     1       3.028   6.019  18.822  0.00  0.00    +0.000 C 
ATOM     16  C   UNL     1       2.995   4.957  17.729  0.00  0.00    +0.000 C 
BRANCH  12  17
ATOM     17  C   UNL     1       2.970   2.777  19.060  0.00  0.00    +0.000 C 
BRANCH  17  18
ATOM     18  O   UNL     1       3.038   1.454  18.522  0.00  0.00    +0.000 OA
ATOM     19  H   UNL     1       2.558   1.480  17.674  0.00  0.00    +0.000 HD
ENDBRANCH  17  18
ENDBRANCH  12  17
ENDBRANCH   4  12
BRANCH  10  20
ATOM     20  C   UNL     1       6.146   2.675  12.075  0.00  0.00    +0.000 C 
ATOM     21  C   UNL     1       4.823   2.997  11.380  0.00  0.00    +0.000 C 
ATOM     22  C   UNL     1       7.205   2.232  11.067  0.00  0.00    +0.000 C 
ENDBRANCH  10  20
BRANCH   1  23
ATOM     23  N   UNL     1       7.630   6.648  16.405  0.00  0.00    +0.000 N 
ATOM     24  H   UNL     1       8.601   6.585  16.104  0.00  0.00    +0.000 HD
BRANCH  23  25
ATOM     25  C   UNL     1       7.450   6.973  17.808  0.00  0.00    +0.000 C 
BRANCH  25  29
ATOM     26  C   UNL     1       8.993  10.958  18.574  0.00  0.00    +0.000 A 
ATOM     27  C   UNL     1       9.397   9.880  19.362  0.00  0.00    +0.000 A 
ATOM     28  C   UNL     1       8.899   8.594  19.117  0.00  0.00    +0.000 A 
ATOM     29  C   UNL     1       7.968   8.370  18.095  0.00  0.00    +0.000 A 
ATOM     30  C   UNL     1       7.553   9.463  17.321  0.00  0.00    +0.000 A 
ATOM     31  C   UNL     1       8.061  10.749  17.558  0.00  0.00    +0.000 A 
BRANCH  26  33
ATOM     32  C   UNL     1       9.121  13.275  18.118  0.00  0.00    +0.000 C 
ATOM     33  O   UNL     1       9.538  12.169  18.911  0.00  0.00    +0.000 OA
ENDBRANCH  26  33
ENDBRANCH  25  29
ENDBRANCH  23  25
ENDBRANCH   1  23
TORSDOF 8
ENDMDL
MODEL 6
REMARK VINA RESULT:      -7.2      4.017      5.361
REMARK  Name = 
REMARK  11 active torsions:
REMARK  status: ('A' for Active; 'I' for Inactive)
REMARK    1  A    between atoms: C_1  and  O_2
REMARK    2  A    between atoms: O_2  and  C_3
REMARK    3  A    between atoms: C_6  and  C_7
REMARK    4  A    between atoms: C_7  and  N_8
REMARK    5  A    between atoms: N_8  and  C_9
REMARK    6  A    between atoms: N_12  and  C_13
REMARK    7  A    between atoms: C_13  and  C_14
REMARK    8  A    between atoms: C_14  and  O_15
REMARK    9  A    between atoms: N_25  and  C_26
REMARK   10  A    between atoms: C_26  and  C_27
REMARK   11  A    between atoms: C_26  and  C_28
REMARK                            x       y       z     vdW  Elec       q    Type
REMARK                         _______ _______ _______ _____ _____    ______ ____
ROOT
ATOM      1  C   UNL     1       4.011   6.328  17.661  0.00  0.00    +0.000 A 
ATOM      2  N   UNL     1       3.677   5.178  18.305  0.00  0.00    +0.000 NA
ATOM      3  C   UNL     1       4.003   3.977  17.783  0.00  0.00    +0.000 A 
ATOM      4  N   UNL     1       3.675   2.820  18.467  0.00  0.00    +0.000 N 
ATOM      5  N   UNL     1       4.643   3.774  16.617  0.00  0.00    +0.000 NA
ATOM      6  C   UNL     1       4.969   4.920  15.999  0.00  0.00    +0.000 A 
ATOM      7  C   UNL     1       4.697   6.203  16.436  0.00  0.00    +0.000 A 
ATOM      8  N   UNL     1       5.185   7.145  15.559  0.00  0.00    +0.000 NA
ATOM      9  C   UNL     1       5.747   6.443  14.599  0.00  0.00    +0.000 A 
ATOM     10  N   UNL     1       5.654   5.091  14.822  0.00  0.00    +0.000 N 
ATOM     11  H   UNL     1       3.812   2.037  17.836  0.00  0.00    +0.000 HD
ENDROOT
BRANCH   4  12
ATOM     12  C   UNL     1       2.462   2.747  19.298  0.00  0.00    +0.000 C 
ATOM     13  C   UNL     1       2.909   2.696  20.777  0.00  0.00    +0.000 C 
ATOM     14  C   UNL     1       1.790   3.341  21.586  0.00  0.00    +0.000 C 
ATOM     15  C   UNL     1       1.016   4.227  20.625  0.00  0.00    +0.000 C 
ATOM     16  C   UNL     1       1.643   4.046  19.247  0.00  0.00    +0.000 C 
BRANCH  12  17
ATOM     17  C   UNL     1       1.600   1.511  18.937  0.00  0.00    +0.000 C 
BRANCH  17  18
ATOM     18  O   UNL     1       0.352   1.895  18.355  0.00  0.00    +0.000 OA
ATOM     19  H   UNL     1      -0.201   2.222  19.088  0.00  0.00    +0.000 HD
ENDBRANCH  17  18
ENDBRANCH  12  17
ENDBRANCH   4  12
BRANCH  10  20
ATOM     20  C   UNL     1       6.248   4.072  13.966  0.00  0.00    +0.000 C 
ATOM     21  C   UNL     1       5.235   3.457  13.001  0.00  0.00    +0.000 C 
ATOM     22  C   UNL     1       7.489   4.564  13.223  0.00  0.00    +0.000 C 
ENDBRANCH  10  20
BRANCH   1  23
ATOM     23  N   UNL     1       3.679   7.582  18.187  0.00  0.00    +0.000 N 
ATOM     24  H   UNL     1       3.770   7.567  19.202  0.00  0.00    +0.000 HD
BRANCH  23  25
ATOM     25  C   UNL     1       2.442   8.162  17.698  0.00  0.00    +0.000 C 
BRANCH  25  29
ATOM     26  C   UNL     1       0.223   9.887  21.006  0.00  0.00    +0.000 A 
ATOM     27  C   UNL     1       1.034   8.769  21.205  0.00  0.00    +0.000 A 
ATOM     28  C   UNL     1       1.749   8.212  20.138  0.00  0.00    +0.000 A 
ATOM     29  C   UNL     1       1.645   8.747  18.849  0.00  0.00    +0.000 A 
ATOM     30  C   UNL     1       0.812   9.858  18.655  0.00  0.00    +0.000 A 
ATOM     31  C   UNL     1       0.105  10.425  19.725  0.00  0.00    +0.000 A 
BRANCH  26  33
ATOM     32  C   UNL     1      -0.314   9.528  23.282  0.00  0.00    +0.000 C 
ATOM     33  O   UNL     1      -0.435  10.341  22.119  0.00  0.00    +0.000 OA
ENDBRANCH  26  33
ENDBRANCH  25  29
ENDBRANCH  23  25
ENDBRANCH   1  23
TORSDOF 8
ENDMDL
MODEL 7
REMARK VINA RESULT:      -7.0      3.911      5.126
REMARK  Name = 
REMARK  11 active torsions:
REMARK  status: ('A' for Active; 'I' for Inactive)
REMARK    1  A    between atoms: C_1  and  O_2
REMARK    2  A    between atoms: O_2  and  C_3
REMARK    3  A    between atoms: C_6  and  C_7
REMARK    4  A    between atoms: C_7  and  N_8
REMARK    5  A    between atoms: N_8  and  C_9
REMARK    6  A    between atoms: N_12  and  C_13
REMARK    7  A    between atoms: C_13  and  C_14
REMARK    8  A    between atoms: C_14  and  O_15
REMARK    9  A    between atoms: N_25  and  C_26
REMARK   10  A    between atoms: C_26  and  C_27
REMARK   11  A    between atoms: C_26  and  C_28
REMARK                            x       y       z     vdW  Elec       q    Type
REMARK                         _______ _______ _______ _____ _____    ______ ____
ROOT
ATOM      1  C   UNL     1       4.123   6.432  17.738  0.00  0.00    +0.000 A 
ATOM      2  N   UNL     1       4.035   5.323  18.521  0.00  0.00    +0.000 NA
ATOM      3  C   UNL     1       4.502   4.135  18.086  0.00  0.00    +0.000 A 
ATOM      4  N   UNL     1       4.423   3.025  18.909  0.00  0.00    +0.000 N 
ATOM      5  N   UNL     1       5.062   3.902  16.886  0.00  0.00    +0.000 NA
ATOM      6  C   UNL     1       5.146   5.008  16.129  0.00  0.00    +0.000 A 
ATOM      7  C   UNL     1       4.711   6.275  16.466  0.00  0.00    +0.000 A 
ATOM      8  N   UNL     1       4.964   7.177  15.458  0.00  0.00    +0.000 NA
ATOM      9  C   UNL     1       5.546   6.465  14.517  0.00  0.00    +0.000 A 
ATOM     10  N   UNL     1       5.690   5.148  14.878  0.00  0.00    +0.000 N 
ATOM     11  H   UNL     1       4.629   2.207  18.346  0.00  0.00    +0.000 HD
ENDROOT
BRANCH   4  12
ATOM     12  C   UNL     1       3.315   2.863  19.863  0.00  0.00    +0.000 C 
ATOM     13  C   UNL     1       2.847   4.276  20.283  0.00  0.00    +0.000 C 
ATOM     14  C   UNL     1       1.365   4.156  20.618  0.00  0.00    +0.000 C 
ATOM     15  C   UNL     1       0.857   2.918  19.897  0.00  0.00    +0.000 C 
ATOM     16  C   UNL     1       2.056   2.285  19.199  0.00  0.00    +0.000 C 
BRANCH  12  17
ATOM     17  C   UNL     1       3.745   2.033  21.099  0.00  0.00    +0.000 C 
BRANCH  17  18
ATOM     18  O   UNL     1       5.129   1.679  21.034  0.00  0.00    +0.000 OA
ATOM     19  H   UNL     1       5.174   0.723  21.212  0.00  0.00    +0.000 HD
ENDBRANCH  17  18
ENDBRANCH  12  17
ENDBRANCH   4  12
BRANCH  10  20
ATOM     20  C   UNL     1       6.363   4.141  14.067  0.00  0.00    +0.000 C 
ATOM     21  C   UNL     1       5.414   3.451  13.087  0.00  0.00    +0.000 C 
ATOM     22  C   UNL     1       7.600   4.678  13.351  0.00  0.00    +0.000 C 
ENDBRANCH  10  20
BRANCH   1  23
ATOM     23  N   UNL     1       3.641   7.673  18.173  0.00  0.00    +0.000 N 
ATOM     24  H   UNL     1       3.969   7.860  19.119  0.00  0.00    +0.000 HD
BRANCH  23  25
ATOM     25  C   UNL     1       2.223   7.905  17.966  0.00  0.00    +0.000 C 
BRANCH  25  29
ATOM     26  C   UNL     1       0.395   9.672  21.484  0.00  0.00    +0.000 A 
ATOM     27  C   UNL     1       0.333  10.323  20.252  0.00  0.00    +0.000 A 
ATOM     28  C   UNL     1       0.923   9.755  19.117  0.00  0.00    +0.000 A 
ATOM     29  C   UNL     1       1.609   8.537  19.201  0.00  0.00    +0.000 A 
ATOM     30  C   UNL     1       1.683   7.899  20.447  0.00  0.00    +0.000 A 
ATOM     31  C   UNL     1       1.081   8.461  21.582  0.00  0.00    +0.000 A 
BRANCH  26  33
ATOM     32  C   UNL     1      -0.826  11.567  22.201  0.00  0.00    +0.000 C 
ATOM     33  O   UNL     1      -0.210  10.325  22.526  0.00  0.00    +0.000 OA
ENDBRANCH  26  33
ENDBRANCH  25  29
ENDBRANCH  23  25
ENDBRANCH   1  23
TORSDOF 8
ENDMDL
MODEL 8
REMARK VINA RESULT:      -6.9      1.055      1.194
REMARK  Name = 
REMARK  11 active torsions:
REMARK  status: ('A' for Active; 'I' for Inactive)
REMARK    1  A    between atoms: C_1  and  O_2
REMARK    2  A    between atoms: O_2  and  C_3
REMARK    3  A    between atoms: C_6  and  C_7
REMARK    4  A    between atoms: C_7  and  N_8
REMARK    5  A    between atoms: N_8  and  C_9
REMARK    6  A    between atoms: N_12  and  C_13
REMARK    7  A    between atoms: C_13  and  C_14
REMARK    8  A    between atoms: C_14  and  O_15
REMARK    9  A    between atoms: N_25  and  C_26
REMARK   10  A    between atoms: C_26  and  C_27
REMARK   11  A    between atoms: C_26  and  C_28
REMARK                            x       y       z     vdW  Elec       q    Type
REMARK                         _______ _______ _______ _____ _____    ______ ____
ROOT
ATOM      1  C   UNL     1       6.962   5.467  16.151  0.00  0.00    +0.000 A 
ATOM      2  N   UNL     1       6.119   4.769  16.959  0.00  0.00    +0.000 NA
ATOM      3  C   UNL     1       5.397   3.738  16.474  0.00  0.00    +0.000 A 
ATOM      4  N   UNL     1       4.564   3.027  17.320  0.00  0.00    +0.000 N 
ATOM      5  N   UNL     1       5.400   3.306  15.201  0.00  0.00    +0.000 NA
ATOM      6  C   UNL     1       6.241   4.002  14.420  0.00  0.00    +0.000 A 
ATOM      7  C   UNL     1       7.034   5.068  14.801  0.00  0.00    +0.000 A 
ATOM      8  N   UNL     1       7.783   5.539  13.746  0.00  0.00    +0.000 NA
ATOM      9  C   UNL     1       7.448   4.768  12.734  0.00  0.00    +0.000 A 
ATOM     10  N   UNL     1       6.526   3.814  13.091  0.00  0.00    +0.000 N 
ATOM     11  H   UNL     1       3.966   2.441  16.746  0.00  0.00    +0.000 HD
ENDROOT
BRANCH   4  12
ATOM     12  C   UNL     1       3.892   3.683  18.453  0.00  0.00    +0.000 C 
ATOM     13  C   UNL     1       4.824   4.805  18.966  0.00  0.00    +0.000 C 
ATOM     14  C   UNL     1       3.918   5.880  19.556  0.00  0.00    +0.000 C 
ATOM     15  C   UNL     1       2.550   5.690  18.921  0.00  0.00    +0.000 C 
ATOM     16  C   UNL     1       2.645   4.467  18.015  0.00  0.00    +0.000 C 
BRANCH  12  17
ATOM     17  C   UNL     1       3.567   2.674  19.583  0.00  0.00    +0.000 C 
BRANCH  17  18
ATOM     18  O   UNL     1       2.183   2.314  19.581  0.00  0.00    +0.000 OA
ATOM     19  H   UNL     1       1.802   2.702  18.773  0.00  0.00    +0.000 HD
ENDBRANCH  17  18
ENDBRANCH  12  17
ENDBRANCH   4  12
BRANCH  10  20
ATOM     20  C   UNL     1       6.026   2.777  12.197  0.00  0.00    +0.000 C 
ATOM     21  C   UNL     1       4.731   3.186  11.496  0.00  0.00    +0.000 C 
ATOM     22  C   UNL     1       7.071   2.300  11.190  0.00  0.00    +0.000 C 
ENDBRANCH  10  20
BRANCH   1  23
ATOM     23  N   UNL     1       7.717   6.541  16.637  0.00  0.00    +0.000 N 
ATOM     24  H   UNL     1       8.706   6.294  16.645  0.00  0.00    +0.000 HD
BRANCH  23  25
ATOM     25  C   UNL     1       7.233   7.145  17.865  0.00  0.00    +0.000 C 
BRANCH  25  29
ATOM     26  C   UNL     1       9.095  11.004  18.562  0.00  0.00    +0.000 A 
ATOM     27  C   UNL     1       8.147  10.849  17.550  0.00  0.00    +0.000 A 
ATOM     28  C   UNL     1       7.547   9.604  17.324  0.00  0.00    +0.000 A 
ATOM     29  C   UNL     1       7.904   8.488  18.089  0.00  0.00    +0.000 A 
ATOM     30  C   UNL     1       8.872   8.649  19.091  0.00  0.00    +0.000 A 
ATOM     31  C   UNL     1       9.465   9.897  19.327  0.00  0.00    +0.000 A 
BRANCH  26  33
ATOM     32  C   UNL     1      10.787  12.368  19.497  0.00  0.00    +0.000 C 
ATOM     33  O   UNL     1       9.621  12.263  18.687  0.00  0.00    +0.000 OA
ENDBRANCH  26  33
ENDBRANCH  25  29
ENDBRANCH  23  25
ENDBRANCH   1  23
TORSDOF 8
ENDMDL
MODEL 9
REMARK VINA RESULT:      -6.9      7.529     10.869
REMARK  Name = 
REMARK  11 active torsions:
REMARK  status: ('A' for Active; 'I' for Inactive)
REMARK    1  A    between atoms: C_1  and  O_2
REMARK    2  A    between atoms: O_2  and  C_3
REMARK    3  A    between atoms: C_6  and  C_7
REMARK    4  A    between atoms: C_7  and  N_8
REMARK    5  A    between atoms: N_8  and  C_9
REMARK    6  A    between atoms: N_12  and  C_13
REMARK    7  A    between atoms: C_13  and  C_14
REMARK    8  A    between atoms: C_14  and  O_15
REMARK    9  A    between atoms: N_25  and  C_26
REMARK   10  A    between atoms: C_26  and  C_27
REMARK   11  A    between atoms: C_26  and  C_28
REMARK                            x       y       z     vdW  Elec       q    Type
REMARK                         _______ _______ _______ _____ _____    ______ ____
ROOT
ATOM      1  C   UNL     1       0.717  11.748  20.134  0.00  0.00    +0.000 A 
ATOM      2  N   UNL     1      -0.118  11.613  19.068  0.00  0.00    +0.000 NA
ATOM      3  C   UNL     1      -0.536  12.695  18.380  0.00  0.00    +0.000 A 
ATOM      4  N   UNL     1      -1.366  12.532  17.285  0.00  0.00    +0.000 N 
ATOM      5  N   UNL     1      -0.217  13.972  18.654  0.00  0.00    +0.000 NA
ATOM      6  C   UNL     1       0.611  14.086  19.704  0.00  0.00    +0.000 A 
ATOM      7  C   UNL     1       1.110  13.057  20.479  0.00  0.00    +0.000 A 
ATOM      8  N   UNL     1       1.942  13.531  21.468  0.00  0.00    +0.000 NA
ATOM      9  C   UNL     1       1.948  14.835  21.297  0.00  0.00    +0.000 A 
ATOM     10  N   UNL     1       1.167  15.223  20.235  0.00  0.00    +0.000 N 
ATOM     11  H   UNL     1      -1.729  13.445  17.033  0.00  0.00    +0.000 HD
ENDROOT
BRANCH   4  12
ATOM     12  C   UNL     1      -2.346  11.435  17.230  0.00  0.00    +0.000 C 
ATOM     13  C   UNL     1      -3.020  11.476  15.839  0.00  0.00    +0.000 C 
ATOM     14  C   UNL     1      -3.418  10.042  15.513  0.00  0.00    +0.000 C 
ATOM     15  C   UNL     1      -2.535   9.142  16.362  0.00  0.00    +0.000 C 
ATOM     16  C   UNL     1      -1.671  10.054  17.227  0.00  0.00    +0.000 C 
BRANCH  12  17
ATOM     17  C   UNL     1      -3.399  11.556  18.360  0.00  0.00    +0.000 C 
BRANCH  17  18
ATOM     18  O   UNL     1      -4.540  12.305  17.933  0.00  0.00    +0.000 OA
ATOM     19  H   UNL     1      -4.291  13.245  18.003  0.00  0.00    +0.000 HD
ENDBRANCH  17  18
ENDBRANCH  12  17
ENDBRANCH   4  12
BRANCH  10  20
ATOM     20  C   UNL     1       1.041  16.596  19.763  0.00  0.00    +0.000 C 
ATOM     21  C   UNL     1       1.667  16.799  18.384  0.00  0.00    +0.000 C 
ATOM     22  C   UNL     1      -0.398  17.109  19.796  0.00  0.00    +0.000 C 
ENDBRANCH  10  20
BRANCH   1  23
ATOM     23  N   UNL     1       1.159  10.636  20.861  0.00  0.00    +0.000 N 
ATOM     24  H   UNL     1       2.176  10.586  20.835  0.00  0.00    +0.000 HD
BRANCH  23  25
ATOM     25  C   UNL     1       0.483   9.385  20.569  0.00  0.00    +0.000 C 
BRANCH  25  29
ATOM     26  C   UNL     1       3.155   6.805  18.322  0.00  0.00    +0.000 A 
ATOM     27  C   UNL     1       2.679   7.990  17.761  0.00  0.00    +0.000 A 
ATOM     28  C   UNL     1       1.817   8.823  18.484  0.00  0.00    +0.000 A 
ATOM     29  C   UNL     1       1.394   8.470  19.772  0.00  0.00    +0.000 A 
ATOM     30  C   UNL     1       1.862   7.267  20.320  0.00  0.00    +0.000 A 
ATOM     31  C   UNL     1       2.736   6.439  19.601  0.00  0.00    +0.000 A 
BRANCH  26  33
ATOM     32  C   UNL     1       3.781   4.658  17.550  0.00  0.00    +0.000 C 
ATOM     33  O   UNL     1       3.986   6.067  17.520  0.00  0.00    +0.000 OA
ENDBRANCH  26  33
ENDBRANCH  25  29
ENDBRANCH  23  25
ENDBRANCH   1  23
TORSDOF 8
ENDMDL
