MODEL 1
REMARK VINA RESULT:      -8.5      0.000      0.000
REMARK  Name = 
REMARK  10 active torsions:
REMARK  status: ('A' for Active; 'I' for Inactive)
REMARK    1  A    between atoms: C_1  and  C_2
REMARK    2  A    between atoms: C_2  and  C_3
REMARK    3  A    between atoms: C_2  and  N_4
REMARK    4  A    between atoms: C_7  and  C_8
REMARK    5  A    between atoms: N_10  and  C_11
REMARK    6  A    between atoms: C_11  and  C_12
REMARK    7  A    between atoms: C_11  and  C_13
REMARK    8  A    between atoms: C_13  and  O_14
REMARK    9  A    between atoms: O_14  and  C_15
REMARK   10  A    between atoms: C_23  and  C_24
REMARK                            x       y       z     vdW  Elec       q    Type
REMARK                         _______ _______ _______ _____ _____    ______ ____
ROOT
ATOM      1  C   UNL     1       4.422   6.313  18.008  0.00  0.00    +0.000 C 
ATOM      2  O   UNL     1       4.107   7.052  17.085  0.00  0.00    +0.000 OA
ATOM      3  N   UNL     1       5.736   6.068  18.343  0.00  0.00    +0.000 N 
ATOM      4  H   UNL     1       5.935   5.258  18.918  0.00  0.00    +0.000 HD
ENDROOT
BRANCH   1   8
ATOM      5  N   UNL     1       2.149   4.026  19.630  0.00  0.00    +0.000 N 
ATOM      6  N   UNL     1       1.734   5.139  20.271  0.00  0.00    +0.000 NA
ATOM      7  C   UNL     1       2.507   6.114  19.779  0.00  0.00    +0.000 A 
ATOM      8  C   UNL     1       3.390   5.652  18.788  0.00  0.00    +0.000 A 
ATOM      9  C   UNL     1       3.069   4.304  18.652  0.00  0.00    +0.000 A 
BRANCH   9  10
ATOM     10  C   UNL     1       3.581   3.314  17.669  0.00  0.00    +0.000 C 
ATOM     11  F   UNL     1       3.242   2.034  17.970  0.00  0.00    +0.000 F 
ATOM     12  F   UNL     1       3.077   3.540  16.429  0.00  0.00    +0.000 F 
ATOM     13  F   UNL     1       4.932   3.327  17.583  0.00  0.00    +0.000 F 
ENDBRANCH   9  10
BRANCH   5  15
ATOM     14  C   UNL     1       1.359   2.657  21.567  0.00  0.00    +0.000 C 
ATOM     15  C   UNL     1       1.652   2.718  20.064  0.00  0.00    +0.000 C 
ATOM     16  C   UNL     1       0.430   2.282  19.258  0.00  0.00    +0.000 C 
ENDBRANCH   5  15
ENDBRANCH   1   8
BRANCH   3  17
ATOM     17  C   UNL     1       6.860   6.570  17.529  0.00  0.00    +0.000 C 
ATOM     18  C   UNL     1       8.026   7.121  18.366  0.00  0.00    +0.000 C 
BRANCH  17  19
ATOM     19  C   UNL     1       7.431   5.435  16.658  0.00  0.00    +0.000 C 
BRANCH  19  20
ATOM     20  O   UNL     1       7.568   5.853  15.296  0.00  0.00    +0.000 OA
BRANCH  20  21
ATOM     21  C   UNL     1       6.988   5.008  14.380  0.00  0.00    +0.000 A 
ATOM     22  C   UNL     1       5.840   4.246  14.626  0.00  0.00    +0.000 A 
ATOM     23  C   UNL     1       5.300   3.440  13.621  0.00  0.00    +0.000 A 
ATOM     24  C   UNL     1       5.906   3.399  12.371  0.00  0.00    +0.000 A 
ATOM     25  F   UNL     1       5.381   2.627  11.413  0.00  0.00    +0.000 F 
ATOM     26  C   UNL     1       7.042   4.149  12.103  0.00  0.00    +0.000 A 
ATOM     27  C   UNL     1       7.572   4.954  13.108  0.00  0.00    +0.000 A 
ATOM     28  F   UNL     1       8.671   5.673  12.840  0.00  0.00    +0.000 F 
ENDBRANCH  20  21
ENDBRANCH  19  20
ENDBRANCH  17  19
ENDBRANCH   3  17
TORSDOF 7
ENDMDL
MODEL 2
REMARK VINA RESULT:      -7.5      1.028      1.047
REMARK  Name = 
REMARK  10 active torsions:
REMARK  status: ('A' for Active; 'I' for Inactive)
REMARK    1  A    between atoms: C_1  and  C_2
REMARK    2  A    between atoms: C_2  and  C_3
REMARK    3  A    between atoms: C_2  and  N_4
REMARK    4  A    between atoms: C_7  and  C_8
REMARK    5  A    between atoms: N_10  and  C_11
REMARK    6  A    between atoms: C_11  and  C_12
REMARK    7  A    between atoms: C_11  and  C_13
REMARK    8  A    between atoms: C_13  and  O_14
REMARK    9  A    between atoms: O_14  and  C_15
REMARK   10  A    between atoms: C_23  and  C_24
REMARK                            x       y       z     vdW  Elec       q    Type
REMARK                         _______ _______ _______ _____ _____    ______ ____
ROOT
ATOM      1  C   UNL     1       5.448   5.236  18.541  0.00  0.00    +0.000 C 
ATOM      2  O   UNL     1       6.475   4.648  18.856  0.00  0.00    +0.000 OA
ATOM      3  N   UNL     1       5.423   6.210  17.566  0.00  0.00    +0.000 N 
ATOM      4  H   UNL     1       4.627   6.836  17.543  0.00  0.00    +0.000 HD
ENDROOT
BRANCH   1   8
ATOM      5  N   UNL     1       2.456   3.744  19.902  0.00  0.00    +0.000 N 
ATOM      6  N   UNL     1       2.339   4.933  20.533  0.00  0.00    +0.000 NA
ATOM      7  C   UNL     1       3.410   5.628  20.134  0.00  0.00    +0.000 A 
ATOM      8  C   UNL     1       4.200   4.918  19.213  0.00  0.00    +0.000 A 
ATOM      9  C   UNL     1       3.502   3.730  19.015  0.00  0.00    +0.000 A 
BRANCH   9  10
ATOM     10  C   UNL     1       3.780   2.630  18.056  0.00  0.00    +0.000 C 
ATOM     11  F   UNL     1       4.268   1.510  18.652  0.00  0.00    +0.000 F 
ATOM     12  F   UNL     1       2.652   2.235  17.414  0.00  0.00    +0.000 F 
ATOM     13  F   UNL     1       4.696   2.980  17.123  0.00  0.00    +0.000 F 
ENDBRANCH   9  10
BRANCH   5  15
ATOM     14  C   UNL     1       1.237   2.595  21.758  0.00  0.00    +0.000 C 
ATOM     15  C   UNL     1       1.553   2.648  20.260  0.00  0.00    +0.000 C 
ATOM     16  C   UNL     1       0.266   2.687  19.437  0.00  0.00    +0.000 C 
ENDBRANCH   5  15
ENDBRANCH   1   8
BRANCH   3  17
ATOM     17  C   UNL     1       6.654   6.710  16.925  0.00  0.00    +0.000 C 
ATOM     18  C   UNL     1       7.579   7.474  17.886  0.00  0.00    +0.000 C 
BRANCH  17  19
ATOM     19  C   UNL     1       7.471   5.534  16.357  0.00  0.00    +0.000 C 
BRANCH  19  20
ATOM     20  O   UNL     1       7.783   5.746  14.976  0.00  0.00    +0.000 OA
BRANCH  20  21
ATOM     21  C   UNL     1       7.117   4.914  14.108  0.00  0.00    +0.000 A 
ATOM     22  C   UNL     1       6.001   4.143  14.454  0.00  0.00    +0.000 A 
ATOM     23  C   UNL     1       5.366   3.353  13.493  0.00  0.00    +0.000 A 
ATOM     24  C   UNL     1       5.843   3.337  12.188  0.00  0.00    +0.000 A 
ATOM     25  F   UNL     1       5.227   2.579  11.274  0.00  0.00    +0.000 F 
ATOM     26  C   UNL     1       6.944   4.097  11.821  0.00  0.00    +0.000 A 
ATOM     27  C   UNL     1       7.570   4.886  12.783  0.00  0.00    +0.000 A 
ATOM     28  F   UNL     1       8.635   5.615  12.419  0.00  0.00    +0.000 F 
ENDBRANCH  20  21
ENDBRANCH  19  20
ENDBRANCH  17  19
ENDBRANCH   3  17
TORSDOF 7
ENDMDL
MODEL 3
REMARK VINA RESULT:      -7.5      1.054      1.346
REMARK  Name = 
REMARK  10 active torsions:
REMARK  status: ('A' for Active; 'I' for Inactive)
REMARK    1  A    between atoms: C_1  and  C_2
REMARK    2  A    between atoms: C_2  and  C_3
REMARK    3  A    between atoms: C_2  and  N_4
REMARK    4  A    between atoms: C_7  and  C_8
REMARK    5  A    between atoms: N_10  and  C_11
REMARK    6  A    between atoms: C_11  and  C_12
REMARK    7  A    between atoms: C_11  and  C_13
REMARK    8  A    between atoms: C_13  and  O_14
REMARK    9  A    between atoms: O_14  and  C_15
REMARK   10  A    between atoms: C_23  and  C_24
REMARK                            x       y       z     vdW  Elec       q    Type
REMARK                         _______ _______ _______ _____ _____    ______ ____
ROOT
ATOM      1  C   UNL     1       5.311   5.524  18.999  0.00  0.00    +0.000 C 
ATOM      2  O   UNL     1       6.220   5.072  19.684  0.00  0.00    +0.000 OA
ATOM      3  N   UNL     1       5.541   6.199  17.819  0.00  0.00    +0.000 N 
ATOM      4  H   UNL     1       4.792   6.773  17.449  0.00  0.00    +0.000 HD
ENDROOT
BRANCH   1   8
ATOM      5  N   UNL     1       2.052   4.365  20.029  0.00  0.00    +0.000 N 
ATOM      6  N   UNL     1       1.815   5.681  20.212  0.00  0.00    +0.000 NA
ATOM      7  C   UNL     1       2.964   6.277  19.875  0.00  0.00    +0.000 A 
ATOM      8  C   UNL     1       3.933   5.361  19.429  0.00  0.00    +0.000 A 
ATOM      9  C   UNL     1       3.276   4.134  19.456  0.00  0.00    +0.000 A 
BRANCH   9  10
ATOM     10  C   UNL     1       3.750   2.809  18.980  0.00  0.00    +0.000 C 
ATOM     11  F   UNL     1       2.743   1.999  18.560  0.00  0.00    +0.000 F 
ATOM     12  F   UNL     1       4.582   2.933  17.915  0.00  0.00    +0.000 F 
ATOM     13  F   UNL     1       4.401   2.117  19.945  0.00  0.00    +0.000 F 
ENDBRANCH   9  10
BRANCH   5  15
ATOM     14  C   UNL     1       0.473   2.547  19.354  0.00  0.00    +0.000 C 
ATOM     15  C   UNL     1       1.067   3.384  20.492  0.00  0.00    +0.000 C 
ATOM     16  C   UNL     1       1.640   2.482  21.583  0.00  0.00    +0.000 C 
ENDBRANCH   5  15
ENDBRANCH   1   8
BRANCH   3  17
ATOM     17  C   UNL     1       6.901   6.546  17.365  0.00  0.00    +0.000 C 
ATOM     18  C   UNL     1       7.884   6.811  18.517  0.00  0.00    +0.000 C 
BRANCH  17  19
ATOM     19  C   UNL     1       7.489   5.392  16.530  0.00  0.00    +0.000 C 
BRANCH  19  20
ATOM     20  O   UNL     1       7.651   5.780  15.162  0.00  0.00    +0.000 OA
BRANCH  20  21
ATOM     21  C   UNL     1       7.035   4.947  14.258  0.00  0.00    +0.000 A 
ATOM     22  C   UNL     1       5.897   4.182  14.538  0.00  0.00    +0.000 A 
ATOM     23  C   UNL     1       5.319   3.390  13.544  0.00  0.00    +0.000 A 
ATOM     24  C   UNL     1       5.876   3.365  12.271  0.00  0.00    +0.000 A 
ATOM     25  F   UNL     1       5.313   2.606  11.324  0.00  0.00    +0.000 F 
ATOM     26  C   UNL     1       7.000   4.119  11.969  0.00  0.00    +0.000 A 
ATOM     27  C   UNL     1       7.569   4.910  12.964  0.00  0.00    +0.000 A 
ATOM     28  F   UNL     1       8.657   5.634  12.663  0.00  0.00    +0.000 F 
ENDBRANCH  20  21
ENDBRANCH  19  20
ENDBRANCH  17  19
ENDBRANCH   3  17
TORSDOF 7
ENDMDL
MODEL 4
REMARK VINA RESULT:      -7.5      3.929      6.028
REMARK  Name = 
REMARK  10 active torsions:
REMARK  status: ('A' for Active; 'I' for Inactive)
REMARK    1  A    between atoms: C_1  and  C_2
REMARK    2  A    between atoms: C_2  and  C_3
REMARK    3  A    between atoms: C_2  and  N_4
REMARK    4  A    between atoms: C_7  and  C_8
REMARK    5  A    between atoms: N_10  and  C_11
REMARK    6  A    between atoms: C_11  and  C_12
REMARK    7  A    between atoms: C_11  and  C_13
REMARK    8  A    between atoms: C_13  and  O_14
REMARK    9  A    between atoms: O_14  and  C_15
REMARK   10  A    between atoms: C_23  and  C_24
REMARK                            x       y       z     vdW  Elec       q    Type
REMARK                         _______ _______ _______ _____ _____    ______ ____
ROOT
ATOM      1  C   UNL     1       2.678   6.249  19.169  0.00  0.00    +0.000 C 
ATOM      2  O   UNL     1       3.307   6.109  20.209  0.00  0.00    +0.000 OA
ATOM      3  N   UNL     1       2.311   5.182  18.378  0.00  0.00    +0.000 N 
ATOM      4  H   UNL     1       2.041   5.373  17.420  0.00  0.00    +0.000 HD
ENDROOT
BRANCH   1   8
ATOM      5  N   UNL     1       1.522   9.650  18.811  0.00  0.00    +0.000 N 
ATOM      6  N   UNL     1       2.012   9.519  17.559  0.00  0.00    +0.000 NA
ATOM      7  C   UNL     1       2.505   8.276  17.523  0.00  0.00    +0.000 A 
ATOM      8  C   UNL     1       2.298   7.580  18.728  0.00  0.00    +0.000 A 
ATOM      9  C   UNL     1       1.576   8.474  19.514  0.00  0.00    +0.000 A 
BRANCH   9  10
ATOM     10  C   UNL     1       0.962   8.260  20.850  0.00  0.00    +0.000 C 
ATOM     11  F   UNL     1      -0.262   8.835  20.976  0.00  0.00    +0.000 F 
ATOM     12  F   UNL     1       0.769   6.940  21.101  0.00  0.00    +0.000 F 
ATOM     13  F   UNL     1       1.716   8.773  21.851  0.00  0.00    +0.000 F 
ENDBRANCH   9  10
BRANCH   5  15
ATOM     14  C   UNL     1       1.954  12.112  18.763  0.00  0.00    +0.000 C 
ATOM     15  C   UNL     1       1.075  10.966  19.275  0.00  0.00    +0.000 C 
ATOM     16  C   UNL     1      -0.392  11.216  18.933  0.00  0.00    +0.000 C 
ENDBRANCH   5  15
ENDBRANCH   1   8
BRANCH   3  17
ATOM     17  C   UNL     1       2.767   3.806  18.655  0.00  0.00    +0.000 C 
ATOM     18  C   UNL     1       1.804   2.724  18.141  0.00  0.00    +0.000 C 
BRANCH  17  19
ATOM     19  C   UNL     1       4.128   3.554  17.978  0.00  0.00    +0.000 C 
BRANCH  19  20
ATOM     20  O   UNL     1       4.493   4.653  17.137  0.00  0.00    +0.000 OA
BRANCH  20  21
ATOM     21  C   UNL     1       5.566   5.385  17.589  0.00  0.00    +0.000 A 
ATOM     22  C   UNL     1       6.391   4.999  18.652  0.00  0.00    +0.000 A 
ATOM     23  C   UNL     1       7.482   5.790  19.019  0.00  0.00    +0.000 A 
ATOM     24  C   UNL     1       7.749   6.962  18.322  0.00  0.00    +0.000 A 
ATOM     25  F   UNL     1       8.798   7.713  18.679  0.00  0.00    +0.000 F 
ATOM     26  C   UNL     1       6.948   7.361  17.262  0.00  0.00    +0.000 A 
ATOM     27  C   UNL     1       5.864   6.566  16.899  0.00  0.00    +0.000 A 
ATOM     28  F   UNL     1       5.095   6.961  15.874  0.00  0.00    +0.000 F 
ENDBRANCH  20  21
ENDBRANCH  19  20
ENDBRANCH  17  19
ENDBRANCH   3  17
TORSDOF 7
ENDMDL
MODEL 5
REMARK VINA RESULT:      -7.4      0.764      1.282
REMARK  Name = 
REMARK  10 active torsions:
REMARK  status: ('A' for Active; 'I' for Inactive)
REMARK    1  A    between atoms: C_1  and  C_2
REMARK    2  A    between atoms: C_2  and  C_3
REMARK    3  A    between atoms: C_2  and  N_4
REMARK    4  A    between atoms: C_7  and  C_8
REMARK    5  A    between atoms: N_10  and  C_11
REMARK    6  A    between atoms: C_11  and  C_12
REMARK    7  A    between atoms: C_11  and  C_13
REMARK    8  A    between atoms: C_13  and  O_14
REMARK    9  A    between atoms: O_14  and  C_15
REMARK   10  A    between atoms: C_23  and  C_24
REMARK                            x       y       z     vdW  Elec       q    Type
REMARK                         _______ _______ _______ _____ _____    ______ ____
ROOT
ATOM      1  C   UNL     1       3.984   6.697  17.912  0.00  0.00    +0.000 C 
ATOM      2  O   UNL     1       3.601   7.392  16.979  0.00  0.00    +0.000 OA
ATOM      3  N   UNL     1       5.302   6.326  18.065  0.00  0.00    +0.000 N 
ATOM      4  H   UNL     1       5.507   5.547  18.680  0.00  0.00    +0.000 HD
ENDROOT
BRANCH   1   8
ATOM      5  N   UNL     1       1.815   4.830  20.111  0.00  0.00    +0.000 N 
ATOM      6  N   UNL     1       1.564   6.047  20.641  0.00  0.00    +0.000 NA
ATOM      7  C   UNL     1       2.322   6.884  19.924  0.00  0.00    +0.000 A 
ATOM      8  C   UNL     1       3.030   6.228  18.901  0.00  0.00    +0.000 A 
ATOM      9  C   UNL     1       2.607   4.904  18.994  0.00  0.00    +0.000 A 
BRANCH   9  10
ATOM     10  C   UNL     1       2.915   3.759  18.100  0.00  0.00    +0.000 C 
ATOM     11  F   UNL     1       3.389   4.139  16.886  0.00  0.00    +0.000 F 
ATOM     12  F   UNL     1       3.877   2.961  18.631  0.00  0.00    +0.000 F 
ATOM     13  F   UNL     1       1.826   2.995  17.848  0.00  0.00    +0.000 F 
ENDBRANCH   9  10
BRANCH   5  15
ATOM     14  C   UNL     1       0.563   2.684  19.833  0.00  0.00    +0.000 C 
ATOM     15  C   UNL     1       1.301   3.634  20.782  0.00  0.00    +0.000 C 
ATOM     16  C   UNL     1       2.403   2.893  21.537  0.00  0.00    +0.000 C 
ENDBRANCH   5  15
ENDBRANCH   1   8
BRANCH   3  17
ATOM     17  C   UNL     1       6.325   6.624  17.044  0.00  0.00    +0.000 C 
ATOM     18  C   UNL     1       7.313   7.724  17.467  0.00  0.00    +0.000 C 
BRANCH  17  19
ATOM     19  C   UNL     1       7.159   5.363  16.747  0.00  0.00    +0.000 C 
BRANCH  19  20
ATOM     20  O   UNL     1       7.772   5.447  15.456  0.00  0.00    +0.000 OA
BRANCH  20  21
ATOM     21  C   UNL     1       7.124   4.740  14.471  0.00  0.00    +0.000 A 
ATOM     22  C   UNL     1       5.986   3.954  14.684  0.00  0.00    +0.000 A 
ATOM     23  C   UNL     1       5.372   3.299  13.613  0.00  0.00    +0.000 A 
ATOM     24  C   UNL     1       5.894   3.434  12.333  0.00  0.00    +0.000 A 
ATOM     25  F   UNL     1       5.298   2.805  11.312  0.00  0.00    +0.000 F 
ATOM     26  C   UNL     1       7.018   4.212  12.097  0.00  0.00    +0.000 A 
ATOM     27  C   UNL     1       7.622   4.865  13.168  0.00  0.00    +0.000 A 
ATOM     28  F   UNL     1       8.709   5.613  12.931  0.00  0.00    +0.000 F 
ENDBRANCH  20  21
ENDBRANCH  19  20
ENDBRANCH  17  19
ENDBRANCH   3  17
TORSDOF 7
ENDMDL
MODEL 6
REMARK VINA RESULT:      -7.4      3.769      6.133
REMARK  Name = 
REMARK  10 active torsions:
REMARK  status: ('A' for Active; 'I' for Inactive)
REMARK    1  A    between atoms: C_1  and  C_2
REMARK    2  A    between atoms: C_2  and  C_3
REMARK    3  A    between atoms: C_2  and  N_4
REMARK    4  A    between atoms: C_7  and  C_8
REMARK    5  A    between atoms: N_10  and  C_11
REMARK    6  A    between atoms: C_11  and  C_12
REMARK    7  A    between atoms: C_11  and  C_13
REMARK    8  A    between atoms: C_13  and  O_14
REMARK    9  A    between atoms: O_14  and  C_15
REMARK   10  A    between atoms: C_23  and  C_24
REMARK                            x       y       z     vdW  Elec       q    Type
REMARK                         _______ _______ _______ _____ _____    ______ ____
ROOT
ATOM      1  C   UNL     1       2.720   7.141  18.184  0.00  0.00    +0.000 C 
ATOM      2  O   UNL     1       2.075   6.111  18.043  0.00  0.00    +0.000 OA
ATOM      3  N   UNL     1       4.095   7.170  18.091  0.00  0.00    +0.000 N 
ATOM      4  H   UNL     1       4.579   7.972  18.479  0.00  0.00    +0.000 HD
ENDROOT
BRANCH   1   8
ATOM      5  N   UNL     1       1.040   9.993  19.622  0.00  0.00    +0.000 N 
ATOM      6  N   UNL     1       1.117  10.476  18.363  0.00  0.00    +0.000 NA
ATOM      7  C   UNL     1       1.744   9.515  17.676  0.00  0.00    +0.000 A 
ATOM      8  C   UNL     1       2.035   8.390  18.468  0.00  0.00    +0.000 A 
ATOM      9  C   UNL     1       1.483   8.699  19.709  0.00  0.00    +0.000 A 
BRANCH   9  10
ATOM     10  C   UNL     1       1.366   7.845  20.919  0.00  0.00    +0.000 C 
ATOM     11  F   UNL     1       1.938   8.397  22.021  0.00  0.00    +0.000 F 
ATOM     12  F   UNL     1       0.068   7.634  21.253  0.00  0.00    +0.000 F 
ATOM     13  F   UNL     1       1.961   6.640  20.759  0.00  0.00    +0.000 F 
ENDBRANCH   9  10
BRANCH   5  15
ATOM     14  C   UNL     1       1.289  12.231  20.709  0.00  0.00    +0.000 C 
ATOM     15  C   UNL     1       0.584  10.871  20.703  0.00  0.00    +0.000 C 
ATOM     16  C   UNL     1      -0.934  11.050  20.681  0.00  0.00    +0.000 C 
ENDBRANCH   5  15
ENDBRANCH   1   8
BRANCH   3  17
ATOM     17  C   UNL     1       4.899   5.941  17.951  0.00  0.00    +0.000 C 
ATOM     18  C   UNL     1       6.227   6.156  17.208  0.00  0.00    +0.000 C 
BRANCH  17  19
ATOM     19  C   UNL     1       5.249   5.376  19.341  0.00  0.00    +0.000 C 
BRANCH  19  20
ATOM     20  O   UNL     1       5.184   3.946  19.345  0.00  0.00    +0.000 OA
BRANCH  20  21
ATOM     21  C   UNL     1       3.912   3.434  19.243  0.00  0.00    +0.000 A 
ATOM     22  C   UNL     1       2.956   3.486  20.265  0.00  0.00    +0.000 A 
ATOM     23  C   UNL     1       1.675   2.971  20.058  0.00  0.00    +0.000 A 
ATOM     24  C   UNL     1       1.348   2.408  18.831  0.00  0.00    +0.000 A 
ATOM     25  F   UNL     1       0.117   1.919  18.640  0.00  0.00    +0.000 F 
ATOM     26  C   UNL     1       2.277   2.351  17.802  0.00  0.00    +0.000 A 
ATOM     27  C   UNL     1       3.551   2.870  18.013  0.00  0.00    +0.000 A 
ATOM     28  F   UNL     1       4.442   2.807  17.013  0.00  0.00    +0.000 F 
ENDBRANCH  20  21
ENDBRANCH  19  20
ENDBRANCH  17  19
ENDBRANCH   3  17
TORSDOF 7
ENDMDL
MODEL 7
REMARK VINA RESULT:      -7.4      3.939      6.052
REMARK  Name = 
REMARK  10 active torsions:
REMARK  status: ('A' for Active; 'I' for Inactive)
REMARK    1  A    between atoms: C_1  and  C_2
REMARK    2  A    between atoms: C_2  and  C_3
REMARK    3  A    between atoms: C_2  and  N_4
REMARK    4  A    between atoms: C_7  and  C_8
REMARK    5  A    between atoms: N_10  and  C_11
REMARK    6  A    between atoms: C_11  and  C_12
REMARK    7  A    between atoms: C_11  and  C_13
REMARK    8  A    between atoms: C_13  and  O_14
REMARK    9  A    between atoms: O_14  and  C_15
REMARK   10  A    between atoms: C_23  and  C_24
REMARK                            x       y       z     vdW  Elec       q    Type
REMARK                         _______ _______ _______ _____ _____    ______ ____
ROOT
ATOM      1  C   UNL     1       2.549   6.429  19.057  0.00  0.00    +0.000 C 
ATOM      2  O   UNL     1       3.455   6.229  19.855  0.00  0.00    +0.000 OA
ATOM      3  N   UNL     1       1.858   5.402  18.450  0.00  0.00    +0.000 N 
ATOM      4  H   UNL     1       1.324   5.618  17.617  0.00  0.00    +0.000 HD
ENDROOT
BRANCH   1   8
ATOM      5  N   UNL     1       1.435   9.861  18.956  0.00  0.00    +0.000 N 
ATOM      6  N   UNL     1       1.879   9.803  17.682  0.00  0.00    +0.000 NA
ATOM      7  C   UNL     1       2.350   8.558  17.550  0.00  0.00    +0.000 A 
ATOM      8  C   UNL     1       2.176   7.790  18.715  0.00  0.00    +0.000 A 
ATOM      9  C   UNL     1       1.495   8.642  19.582  0.00  0.00    +0.000 A 
BRANCH   9  10
ATOM     10  C   UNL     1       0.926   8.352  20.923  0.00  0.00    +0.000 C 
ATOM     11  F   UNL     1       0.863   7.024  21.202  0.00  0.00    +0.000 F 
ATOM     12  F   UNL     1       1.684   8.894  21.910  0.00  0.00    +0.000 F 
ATOM     13  F   UNL     1      -0.338   8.817  21.057  0.00  0.00    +0.000 F 
ENDBRANCH   9  10
BRANCH   5  15
ATOM     14  C   UNL     1       1.911  12.313  19.057  0.00  0.00    +0.000 C 
ATOM     15  C   UNL     1       1.027  11.150  19.519  0.00  0.00    +0.000 C 
ATOM     16  C   UNL     1      -0.446  11.447  19.237  0.00  0.00    +0.000 C 
ENDBRANCH   5  15
ENDBRANCH   1   8
BRANCH   3  17
ATOM     17  C   UNL     1       2.249   3.989  18.614  0.00  0.00    +0.000 C 
ATOM     18  C   UNL     1       1.109   3.090  19.116  0.00  0.00    +0.000 C 
BRANCH  17  19
ATOM     19  C   UNL     1       2.716   3.410  17.265  0.00  0.00    +0.000 C 
BRANCH  19  20
ATOM     20  O   UNL     1       4.079   2.979  17.336  0.00  0.00    +0.000 OA
BRANCH  20  21
ATOM     21  C   UNL     1       5.003   3.984  17.174  0.00  0.00    +0.000 A 
ATOM     22  C   UNL     1       5.263   4.629  15.959  0.00  0.00    +0.000 A 
ATOM     23  C   UNL     1       6.195   5.667  15.898  0.00  0.00    +0.000 A 
ATOM     24  C   UNL     1       6.864   6.062  17.050  0.00  0.00    +0.000 A 
ATOM     25  F   UNL     1       7.754   7.059  16.983  0.00  0.00    +0.000 F 
ATOM     26  C   UNL     1       6.619   5.441  18.266  0.00  0.00    +0.000 A 
ATOM     27  C   UNL     1       5.685   4.409  18.321  0.00  0.00    +0.000 A 
ATOM     28  F   UNL     1       5.457   3.814  19.501  0.00  0.00    +0.000 F 
ENDBRANCH  20  21
ENDBRANCH  19  20
ENDBRANCH  17  19
ENDBRANCH   3  17
TORSDOF 7
ENDMDL
MODEL 8
REMARK VINA RESULT:      -7.3      3.974      6.113
REMARK  Name = 
REMARK  10 active torsions:
REMARK  status: ('A' for Active; 'I' for Inactive)
REMARK    1  A    between atoms: C_1  and  C_2
REMARK    2  A    between atoms: C_2  and  C_3
REMARK    3  A    between atoms: C_2  and  N_4
REMARK    4  A    between atoms: C_7  and  C_8
REMARK    5  A    between atoms: N_10  and  C_11
REMARK    6  A    between atoms: C_11  and  C_12
REMARK    7  A    between atoms: C_11  and  C_13
REMARK    8  A    between atoms: C_13  and  O_14
REMARK    9  A    between atoms: O_14  and  C_15
REMARK   10  A    between atoms: C_23  and  C_24
REMARK                            x       y       z     vdW  Elec       q    Type
REMARK                         _______ _______ _______ _____ _____    ______ ____
ROOT
ATOM      1  C   UNL     1       2.693   6.690  18.867  0.00  0.00    +0.000 C 
ATOM      2  O   UNL     1       3.693   6.521  19.552  0.00  0.00    +0.000 OA
ATOM      3  N   UNL     1       2.093   5.663  18.171  0.00  0.00    +0.000 N 
ATOM      4  H   UNL     1       1.453   5.907  17.424  0.00  0.00    +0.000 HD
ENDROOT
BRANCH   1   8
ATOM      5  N   UNL     1       1.092   9.887  19.360  0.00  0.00    +0.000 N 
ATOM      6  N   UNL     1       1.451  10.089  18.074  0.00  0.00    +0.000 NA
ATOM      7  C   UNL     1       2.087   8.965  17.725  0.00  0.00    +0.000 A 
ATOM      8  C   UNL     1       2.105   8.014  18.761  0.00  0.00    +0.000 A 
ATOM      9  C   UNL     1       1.370   8.612  19.781  0.00  0.00    +0.000 A 
BRANCH   9  10
ATOM     10  C   UNL     1       0.941   8.040  21.084  0.00  0.00    +0.000 C 
ATOM     11  F   UNL     1      -0.375   8.245  21.352  0.00  0.00    +0.000 F 
ATOM     12  F   UNL     1       1.112   6.694  21.115  0.00  0.00    +0.000 F 
ATOM     13  F   UNL     1       1.618   8.575  22.128  0.00  0.00    +0.000 F 
ENDBRANCH   9  10
BRANCH   5  15
ATOM     14  C   UNL     1       1.465  12.221  20.174  0.00  0.00    +0.000 C 
ATOM     15  C   UNL     1       0.540  11.000  20.137  0.00  0.00    +0.000 C 
ATOM     16  C   UNL     1      -0.853  11.392  19.648  0.00  0.00    +0.000 C 
ENDBRANCH   5  15
ENDBRANCH   1   8
BRANCH   3  17
ATOM     17  C   UNL     1       2.688   4.315  18.092  0.00  0.00    +0.000 C 
ATOM     18  C   UNL     1       1.648   3.184  18.073  0.00  0.00    +0.000 C 
BRANCH  17  19
ATOM     19  C   UNL     1       3.520   4.180  16.803  0.00  0.00    +0.000 C 
BRANCH  19  20
ATOM     20  O   UNL     1       4.819   3.647  17.084  0.00  0.00    +0.000 OA
BRANCH  20  21
ATOM     21  C   UNL     1       5.761   4.591  17.417  0.00  0.00    +0.000 A 
ATOM     22  C   UNL     1       6.295   5.524  16.521  0.00  0.00    +0.000 A 
ATOM     23  C   UNL     1       7.224   6.471  16.959  0.00  0.00    +0.000 A 
ATOM     24  C   UNL     1       7.615   6.487  18.292  0.00  0.00    +0.000 A 
ATOM     25  F   UNL     1       8.503   7.399  18.704  0.00  0.00    +0.000 F 
ATOM     26  C   UNL     1       7.095   5.576  19.200  0.00  0.00    +0.000 A 
ATOM     27  C   UNL     1       6.167   4.637  18.757  0.00  0.00    +0.000 A 
ATOM     28  F   UNL     1       5.672   3.759  19.642  0.00  0.00    +0.000 F 
ENDBRANCH  20  21
ENDBRANCH  19  20
ENDBRANCH  17  19
ENDBRANCH   3  17
TORSDOF 7
ENDMDL
MODEL 9
REMARK VINA RESULT:      -7.2      3.973      6.386
REMARK  Name = 
REMARK  10 active torsions:
REMARK  status: ('A' for Active; 'I' for Inactive)
REMARK    1  A    between atoms: C_1  and  C_2
REMARK    2  A    between atoms: C_2  and  C_3
REMARK    3  A    between atoms: C_2  and  N_4
REMARK    4  A    between atoms: C_7  and  C_8
REMARK    5  A    between atoms: N_10  and  C_11
REMARK    6  A    between atoms: C_11  and  C_12
REMARK    7  A    between atoms: C_11  and  C_13
REMARK    8  A    between atoms: C_13  and  O_14
REMARK    9  A    between atoms: O_14  and  C_15
REMARK   10  A    between atoms: C_23  and  C_24
REMARK                            x       y       z     vdW  Elec       q    Type
REMARK                         _______ _______ _______ _____ _____    ______ ____
ROOT
ATOM      1  C   UNL     1       2.610   7.102  18.219  0.00  0.00    +0.000 C 
ATOM      2  O   UNL     1       1.895   6.119  18.082  0.00  0.00    +0.000 OA
ATOM      3  N   UNL     1       3.984   7.038  18.115  0.00  0.00    +0.000 N 
ATOM      4  H   UNL     1       4.524   7.804  18.500  0.00  0.00    +0.000 HD
ENDROOT
BRANCH   1   8
ATOM      5  N   UNL     1       1.128  10.056  19.670  0.00  0.00    +0.000 N 
ATOM      6  N   UNL     1       1.249  10.542  18.415  0.00  0.00    +0.000 NA
ATOM      7  C   UNL     1       1.810   9.544  17.724  0.00  0.00    +0.000 A 
ATOM      8  C   UNL     1       2.014   8.395  18.509  0.00  0.00    +0.000 A 
ATOM      9  C   UNL     1       1.476   8.732  19.748  0.00  0.00    +0.000 A 
BRANCH   9  10
ATOM     10  C   UNL     1       1.290   7.880  20.950  0.00  0.00    +0.000 C 
ATOM     11  F   UNL     1       1.841   8.409  22.073  0.00  0.00    +0.000 F 
ATOM     12  F   UNL     1      -0.026   7.711  21.239  0.00  0.00    +0.000 F 
ATOM     13  F   UNL     1       1.850   6.656  20.806  0.00  0.00    +0.000 F 
ENDBRANCH   9  10
BRANCH   5  15
ATOM     14  C   UNL     1       1.344  12.353  20.634  0.00  0.00    +0.000 C 
ATOM     15  C   UNL     1       0.727  10.955  20.754  0.00  0.00    +0.000 C 
ATOM     16  C   UNL     1      -0.793  11.046  20.880  0.00  0.00    +0.000 C 
ENDBRANCH   5  15
ENDBRANCH   1   8
BRANCH   3  17
ATOM     17  C   UNL     1       4.700   5.757  17.968  0.00  0.00    +0.000 C 
ATOM     18  C   UNL     1       5.886   5.824  16.993  0.00  0.00    +0.000 C 
BRANCH  17  19
ATOM     19  C   UNL     1       5.264   5.307  19.329  0.00  0.00    +0.000 C 
BRANCH  19  20
ATOM     20  O   UNL     1       5.125   3.892  19.499  0.00  0.00    +0.000 OA
BRANCH  20  21
ATOM     21  C   UNL     1       3.885   3.398  19.170  0.00  0.00    +0.000 A 
ATOM     22  C   UNL     1       3.588   2.752  17.964  0.00  0.00    +0.000 A 
ATOM     23  C   UNL     1       2.306   2.249  17.731  0.00  0.00    +0.000 A 
ATOM     24  C   UNL     1       1.323   2.391  18.703  0.00  0.00    +0.000 A 
ATOM     25  F   UNL     1       0.098   1.904  18.473  0.00  0.00    +0.000 F 
ATOM     26  C   UNL     1       1.596   3.023  19.908  0.00  0.00    +0.000 A 
ATOM     27  C   UNL     1       2.877   3.517  20.135  0.00  0.00    +0.000 A 
ATOM     28  F   UNL     1       3.130   4.129  21.301  0.00  0.00    +0.000 F 
ENDBRANCH  20  21
ENDBRANCH  19  20
ENDBRANCH  17  19
ENDBRANCH   3  17
TORSDOF 7
ENDMDL
