MODEL 1
REMARK VINA RESULT:      -7.0      0.000      0.000
REMARK  Name = 
REMARK  12 active torsions:
REMARK  status: ('A' for Active; 'I' for Inactive)
REMARK    1  A    between atoms: C_1  and  C_2
REMARK    2  A    between atoms: C_2  and  O_3
REMARK    3  A    between atoms: O_3  and  C_4
REMARK    4  A    between atoms: C_4  and  C_6
REMARK    5  A    between atoms: C_7  and  C_8
REMARK    6  A    between atoms: C_8  and  C_9
REMARK    7  A    between atoms: C_8  and  N_14
REMARK    8  A    between atoms: C_9  and  C_10
REMARK    9  A    between atoms: C_10  and  C_11
REMARK   10  A    between atoms: C_15  and  O_17
REMARK   11  A    between atoms: O_17  and  C_18
REMARK   12  A    between atoms: C_18  and  C_19
REMARK                            x       y       z     vdW  Elec       q    Type
REMARK                         _______ _______ _______ _____ _____    ______ ____
ROOT
ATOM      1  C   UNL     1       5.258   6.512  17.331  0.00  0.00    +0.000 C 
ENDROOT
BRANCH   1   2
ATOM      2  N   UNL     1       5.096   5.229  17.975  0.00  0.00    +0.000 N 
ATOM      3  C   UNL     1       5.862   4.834  19.030  0.00  0.00    +0.000 C 
ATOM      4  O   UNL     1       6.701   5.530  19.583  0.00  0.00    +0.000 OA
ATOM      5  H   UNL     1       4.527   4.507  17.555  0.00  0.00    +0.000 HD
BRANCH   3   6
ATOM      6  O   UNL     1       5.579   3.542  19.332  0.00  0.00    +0.000 OA
BRANCH   6   7
ATOM      7  C   UNL     1       4.435   2.986  18.675  0.00  0.00    +0.000 C 
BRANCH   7   8
ATOM      8  C   UNL     1       3.201   3.034  19.539  0.00  0.00    +0.000 A 
ATOM      9  C   UNL     1       1.966   3.439  19.009  0.00  0.00    +0.000 A 
ATOM     10  C   UNL     1       0.814   3.430  19.802  0.00  0.00    +0.000 A 
ATOM     11  C   UNL     1       0.885   3.027  21.134  0.00  0.00    +0.000 A 
ATOM     12  C   UNL     1       2.109   2.635  21.675  0.00  0.00    +0.000 A 
ATOM     13  C   UNL     1       3.261   2.644  20.886  0.00  0.00    +0.000 A 
ENDBRANCH   7   8
ENDBRANCH   6   7
ENDBRANCH   3   6
ENDBRANCH   1   2
BRANCH   1  15
ATOM     14  C   UNL     1       3.010   6.939  18.350  0.00  0.00    +0.000 C 
ATOM     15  C   UNL     1       4.173   7.402  17.866  0.00  0.00    +0.000 C 
BRANCH  14  16
ATOM     16  C   UNL     1       2.090   7.855  19.051  0.00  0.00    +0.000 C 
ATOM     17  O   UNL     1       1.752   7.753  20.218  0.00  0.00    +0.000 OA
BRANCH  16  18
ATOM     18  O   UNL     1       1.589   8.706  18.124  0.00  0.00    +0.000 OA
BRANCH  18  20
ATOM     19  C   UNL     1      -0.330  10.124  18.234  0.00  0.00    +0.000 C 
ATOM     20  C   UNL     1       1.124   9.961  18.638  0.00  0.00    +0.000 C 
ENDBRANCH  18  20
ENDBRANCH  16  18
ENDBRANCH  14  16
ENDBRANCH   1  15
BRANCH   1  21
ATOM     21  C   UNL     1       5.181   6.417  15.794  0.00  0.00    +0.000 C 
BRANCH  21  22
ATOM     22  C   UNL     1       5.670   5.063  15.261  0.00  0.00    +0.000 C 
BRANCH  22  23
ATOM     23  C   UNL     1       7.177   4.935  15.278  0.00  0.00    +0.000 C 
ATOM     24  N   UNL     1       7.788   5.348  14.129  0.00  0.00    +0.000 N 
ATOM     25  O   UNL     1       7.829   4.496  16.218  0.00  0.00    +0.000 OA
ATOM     26  H   UNL     1       7.282   5.664  13.312  0.00  0.00    +0.000 HD
ATOM     27  H   UNL     1       8.795   5.256  14.073  0.00  0.00    +0.000 HD
ENDBRANCH  22  23
ENDBRANCH  21  22
ENDBRANCH   1  21
TORSDOF 11
ENDMDL
MODEL 2
REMARK VINA RESULT:      -6.9      1.008      1.143
REMARK  Name = 
REMARK  12 active torsions:
REMARK  status: ('A' for Active; 'I' for Inactive)
REMARK    1  A    between atoms: C_1  and  C_2
REMARK    2  A    between atoms: C_2  and  O_3
REMARK    3  A    between atoms: O_3  and  C_4
REMARK    4  A    between atoms: C_4  and  C_6
REMARK    5  A    between atoms: C_7  and  C_8
REMARK    6  A    between atoms: C_8  and  C_9
REMARK    7  A    between atoms: C_8  and  N_14
REMARK    8  A    between atoms: C_9  and  C_10
REMARK    9  A    between atoms: C_10  and  C_11
REMARK   10  A    between atoms: C_15  and  O_17
REMARK   11  A    between atoms: O_17  and  C_18
REMARK   12  A    between atoms: C_18  and  C_19
REMARK                            x       y       z     vdW  Elec       q    Type
REMARK                         _______ _______ _______ _____ _____    ______ ____
ROOT
ATOM      1  C   UNL     1       5.060   6.110  17.322  0.00  0.00    +0.000 C 
ENDROOT
BRANCH   1   2
ATOM      2  N   UNL     1       4.924   4.770  17.845  0.00  0.00    +0.000 N 
ATOM      3  C   UNL     1       5.586   4.344  18.957  0.00  0.00    +0.000 C 
ATOM      4  O   UNL     1       6.294   5.049  19.661  0.00  0.00    +0.000 OA
ATOM      5  H   UNL     1       4.469   4.047  17.305  0.00  0.00    +0.000 HD
BRANCH   3   6
ATOM      6  O   UNL     1       5.372   3.016  19.127  0.00  0.00    +0.000 OA
BRANCH   6   7
ATOM      7  C   UNL     1       4.551   2.655  20.243  0.00  0.00    +0.000 C 
BRANCH   7   8
ATOM      8  C   UNL     1       3.086   2.879  19.969  0.00  0.00    +0.000 A 
ATOM      9  C   UNL     1       2.418   2.146  18.975  0.00  0.00    +0.000 A 
ATOM     10  C   UNL     1       1.047   2.320  18.762  0.00  0.00    +0.000 A 
ATOM     11  C   UNL     1       0.331   3.234  19.532  0.00  0.00    +0.000 A 
ATOM     12  C   UNL     1       0.985   3.978  20.513  0.00  0.00    +0.000 A 
ATOM     13  C   UNL     1       2.354   3.807  20.727  0.00  0.00    +0.000 A 
ENDBRANCH   7   8
ENDBRANCH   6   7
ENDBRANCH   3   6
ENDBRANCH   1   2
BRANCH   1  15
ATOM     14  C   UNL     1       3.247   6.800  18.905  0.00  0.00    +0.000 C 
ATOM     15  C   UNL     1       3.801   6.843  17.684  0.00  0.00    +0.000 C 
BRANCH  14  16
ATOM     16  C   UNL     1       2.137   7.712  19.241  0.00  0.00    +0.000 C 
ATOM     17  O   UNL     1       1.587   7.779  20.327  0.00  0.00    +0.000 OA
BRANCH  16  18
ATOM     18  O   UNL     1       1.759   8.323  18.092  0.00  0.00    +0.000 OA
BRANCH  18  20
ATOM     19  C   UNL     1       0.047   9.986  18.177  0.00  0.00    +0.000 C 
ATOM     20  C   UNL     1       1.544   9.736  18.197  0.00  0.00    +0.000 C 
ENDBRANCH  18  20
ENDBRANCH  16  18
ENDBRANCH  14  16
ENDBRANCH   1  15
BRANCH   1  21
ATOM     21  C   UNL     1       5.288   6.130  15.797  0.00  0.00    +0.000 C 
BRANCH  21  22
ATOM     22  C   UNL     1       5.409   4.720  15.200  0.00  0.00    +0.000 C 
BRANCH  22  23
ATOM     23  C   UNL     1       6.597   4.576  14.274  0.00  0.00    +0.000 C 
ATOM     24  N   UNL     1       6.478   3.569  13.361  0.00  0.00    +0.000 N 
ATOM     25  O   UNL     1       7.601   5.277  14.315  0.00  0.00    +0.000 OA
ATOM     26  H   UNL     1       5.690   2.934  13.332  0.00  0.00    +0.000 HD
ATOM     27  H   UNL     1       7.257   3.406  12.735  0.00  0.00    +0.000 HD
ENDBRANCH  22  23
ENDBRANCH  21  22
ENDBRANCH   1  21
TORSDOF 11
ENDMDL
MODEL 3
REMARK VINA RESULT:      -6.8      2.350      6.570
REMARK  Name = 
REMARK  12 active torsions:
REMARK  status: ('A' for Active; 'I' for Inactive)
REMARK    1  A    between atoms: C_1  and  C_2
REMARK    2  A    between atoms: C_2  and  O_3
REMARK    3  A    between atoms: O_3  and  C_4
REMARK    4  A    between atoms: C_4  and  C_6
REMARK    5  A    between atoms: C_7  and  C_8
REMARK    6  A    between atoms: C_8  and  C_9
REMARK    7  A    between atoms: C_8  and  N_14
REMARK    8  A    between atoms: C_9  and  C_10
REMARK    9  A    between atoms: C_10  and  C_11
REMARK   10  A    between atoms: C_15  and  O_17
REMARK   11  A    between atoms: O_17  and  C_18
REMARK   12  A    between atoms: C_18  and  C_19
REMARK                            x       y       z     vdW  Elec       q    Type
REMARK                         _______ _______ _______ _____ _____    ______ ____
ROOT
ATOM      1  C   UNL     1       4.160   3.604  17.756  0.00  0.00    +0.000 C 
ENDROOT
BRANCH   1   2
ATOM      2  N   UNL     1       3.538   4.806  18.262  0.00  0.00    +0.000 N 
ATOM      3  C   UNL     1       4.096   5.565  19.247  0.00  0.00    +0.000 C 
ATOM      4  O   UNL     1       5.190   5.360  19.750  0.00  0.00    +0.000 OA
ATOM      5  H   UNL     1       2.581   5.033  18.026  0.00  0.00    +0.000 HD
BRANCH   3   6
ATOM      6  O   UNL     1       3.228   6.543  19.606  0.00  0.00    +0.000 OA
BRANCH   6   7
ATOM      7  C   UNL     1       2.544   7.195  18.530  0.00  0.00    +0.000 C 
BRANCH   7   8
ATOM      8  C   UNL     1       1.819   8.436  18.984  0.00  0.00    +0.000 A 
ATOM      9  C   UNL     1       1.573   9.493  18.092  0.00  0.00    +0.000 A 
ATOM     10  C   UNL     1       0.853  10.618  18.505  0.00  0.00    +0.000 A 
ATOM     11  C   UNL     1       0.380  10.705  19.813  0.00  0.00    +0.000 A 
ATOM     12  C   UNL     1       0.630   9.668  20.711  0.00  0.00    +0.000 A 
ATOM     13  C   UNL     1       1.349   8.544  20.302  0.00  0.00    +0.000 A 
ENDBRANCH   7   8
ENDBRANCH   6   7
ENDBRANCH   3   6
ENDBRANCH   1   2
BRANCH   1  15
ATOM     14  C   UNL     1       6.065   4.342  16.309  0.00  0.00    +0.000 C 
ATOM     15  C   UNL     1       4.784   3.964  16.439  0.00  0.00    +0.000 C 
BRANCH  14  16
ATOM     16  C   UNL     1       6.660   4.471  14.964  0.00  0.00    +0.000 C 
ATOM     17  O   UNL     1       7.527   5.269  14.654  0.00  0.00    +0.000 OA
BRANCH  16  18
ATOM     18  O   UNL     1       5.955   3.663  14.136  0.00  0.00    +0.000 OA
BRANCH  18  20
ATOM     19  C   UNL     1       5.213   3.178  11.918  0.00  0.00    +0.000 C 
ATOM     20  C   UNL     1       6.364   3.696  12.762  0.00  0.00    +0.000 C 
ENDBRANCH  18  20
ENDBRANCH  16  18
ENDBRANCH  14  16
ENDBRANCH   1  15
BRANCH   1  21
ATOM     21  C   UNL     1       3.157   2.444  17.590  0.00  0.00    +0.000 C 
BRANCH  21  22
ATOM     22  C   UNL     1       2.589   1.958  18.931  0.00  0.00    +0.000 C 
BRANCH  22  23
ATOM     23  C   UNL     1       1.142   2.351  19.132  0.00  0.00    +0.000 C 
ATOM     24  N   UNL     1       0.907   3.061  20.274  0.00  0.00    +0.000 N 
ATOM     25  O   UNL     1       0.230   2.070  18.363  0.00  0.00    +0.000 OA
ATOM     26  H   UNL     1       1.623   3.265  20.959  0.00  0.00    +0.000 HD
ATOM     27  H   UNL     1      -0.049   3.324  20.475  0.00  0.00    +0.000 HD
ENDBRANCH  22  23
ENDBRANCH  21  22
ENDBRANCH   1  21
TORSDOF 11
ENDMDL
MODEL 4
REMARK VINA RESULT:      -6.7      0.997      1.474
REMARK  Name = 
REMARK  12 active torsions:
REMARK  status: ('A' for Active; 'I' for Inactive)
REMARK    1  A    between atoms: C_1  and  C_2
REMARK    2  A    between atoms: C_2  and  O_3
REMARK    3  A    between atoms: O_3  and  C_4
REMARK    4  A    between atoms: C_4  and  C_6
REMARK    5  A    between atoms: C_7  and  C_8
REMARK    6  A    between atoms: C_8  and  C_9
REMARK    7  A    between atoms: C_8  and  N_14
REMARK    8  A    between atoms: C_9  and  C_10
REMARK    9  A    between atoms: C_10  and  C_11
REMARK   10  A    between atoms: C_15  and  O_17
REMARK   11  A    between atoms: O_17  and  C_18
REMARK   12  A    between atoms: C_18  and  C_19
REMARK                            x       y       z     vdW  Elec       q    Type
REMARK                         _______ _______ _______ _____ _____    ______ ____
ROOT
ATOM      1  C   UNL     1       4.788   6.292  17.456  0.00  0.00    +0.000 C 
ENDROOT
BRANCH   1   2
ATOM      2  N   UNL     1       4.761   4.908  17.868  0.00  0.00    +0.000 N 
ATOM      3  C   UNL     1       5.470   4.443  18.935  0.00  0.00    +0.000 C 
ATOM      4  O   UNL     1       6.134   5.140  19.688  0.00  0.00    +0.000 OA
ATOM      5  H   UNL     1       4.353   4.199  17.274  0.00  0.00    +0.000 HD
BRANCH   3   6
ATOM      6  O   UNL     1       5.359   3.093  18.996  0.00  0.00    +0.000 OA
BRANCH   6   7
ATOM      7  C   UNL     1       4.619   2.579  20.108  0.00  0.00    +0.000 C 
BRANCH   7   8
ATOM      8  C   UNL     1       3.133   2.769  19.942  0.00  0.00    +0.000 A 
ATOM      9  C   UNL     1       2.420   3.644  20.777  0.00  0.00    +0.000 A 
ATOM     10  C   UNL     1       1.052   3.858  20.583  0.00  0.00    +0.000 A 
ATOM     11  C   UNL     1       0.379   3.193  19.560  0.00  0.00    +0.000 A 
ATOM     12  C   UNL     1       1.073   2.310  18.732  0.00  0.00    +0.000 A 
ATOM     13  C   UNL     1       2.439   2.095  18.925  0.00  0.00    +0.000 A 
ENDBRANCH   7   8
ENDBRANCH   6   7
ENDBRANCH   3   6
ENDBRANCH   1   2
BRANCH   1  15
ATOM     14  C   UNL     1       3.224   8.113  18.170  0.00  0.00    +0.000 C 
ATOM     15  C   UNL     1       3.428   6.855  17.749  0.00  0.00    +0.000 C 
BRANCH  14  16
ATOM     16  C   UNL     1       1.853   8.655  18.229  0.00  0.00    +0.000 C 
ATOM     17  O   UNL     1       1.217   9.062  17.272  0.00  0.00    +0.000 OA
BRANCH  16  18
ATOM     18  O   UNL     1       1.518   8.754  19.539  0.00  0.00    +0.000 OA
BRANCH  18  20
ATOM     19  C   UNL     1       0.882  10.760  20.668  0.00  0.00    +0.000 C 
ATOM     20  C   UNL     1       0.395   9.601  19.816  0.00  0.00    +0.000 C 
ENDBRANCH  18  20
ENDBRANCH  16  18
ENDBRANCH  14  16
ENDBRANCH   1  15
BRANCH   1  21
ATOM     21  C   UNL     1       5.142   6.459  15.965  0.00  0.00    +0.000 C 
BRANCH  21  22
ATOM     22  C   UNL     1       5.581   5.142  15.311  0.00  0.00    +0.000 C 
BRANCH  22  23
ATOM     23  C   UNL     1       7.082   4.951  15.327  0.00  0.00    +0.000 C 
ATOM     24  N   UNL     1       7.711   5.346  14.182  0.00  0.00    +0.000 N 
ATOM     25  O   UNL     1       7.714   4.478  16.264  0.00  0.00    +0.000 OA
ATOM     26  H   UNL     1       7.219   5.689  13.367  0.00  0.00    +0.000 HD
ATOM     27  H   UNL     1       8.713   5.213  14.125  0.00  0.00    +0.000 HD
ENDBRANCH  22  23
ENDBRANCH  21  22
ENDBRANCH   1  21
TORSDOF 11
ENDMDL
MODEL 5
REMARK VINA RESULT:      -6.7      1.148      1.529
REMARK  Name = 
REMARK  12 active torsions:
REMARK  status: ('A' for Active; 'I' for Inactive)
REMARK    1  A    between atoms: C_1  and  C_2
REMARK    2  A    between atoms: C_2  and  O_3
REMARK    3  A    between atoms: O_3  and  C_4
REMARK    4  A    between atoms: C_4  and  C_6
REMARK    5  A    between atoms: C_7  and  C_8
REMARK    6  A    between atoms: C_8  and  C_9
REMARK    7  A    between atoms: C_8  and  N_14
REMARK    8  A    between atoms: C_9  and  C_10
REMARK    9  A    between atoms: C_10  and  C_11
REMARK   10  A    between atoms: C_15  and  O_17
REMARK   11  A    between atoms: O_17  and  C_18
REMARK   12  A    between atoms: C_18  and  C_19
REMARK                            x       y       z     vdW  Elec       q    Type
REMARK                         _______ _______ _______ _____ _____    ______ ____
ROOT
ATOM      1  C   UNL     1       4.988   6.536  17.390  0.00  0.00    +0.000 C 
ENDROOT
BRANCH   1   2
ATOM      2  N   UNL     1       4.840   5.190  17.896  0.00  0.00    +0.000 N 
ATOM      3  C   UNL     1       5.602   4.698  18.913  0.00  0.00    +0.000 C 
ATOM      4  O   UNL     1       6.424   5.345  19.545  0.00  0.00    +0.000 OA
ATOM      5  H   UNL     1       4.286   4.508  17.397  0.00  0.00    +0.000 HD
BRANCH   3   6
ATOM      6  O   UNL     1       5.336   3.379  19.077  0.00  0.00    +0.000 OA
BRANCH   6   7
ATOM      7  C   UNL     1       4.543   3.041  20.221  0.00  0.00    +0.000 C 
BRANCH   7   8
ATOM      8  C   UNL     1       3.066   3.095  19.927  0.00  0.00    +0.000 A 
ATOM      9  C   UNL     1       2.491   2.248  18.966  0.00  0.00    +0.000 A 
ATOM     10  C   UNL     1       1.112   2.265  18.736  0.00  0.00    +0.000 A 
ATOM     11  C   UNL     1       0.294   3.132  19.457  0.00  0.00    +0.000 A 
ATOM     12  C   UNL     1       0.855   3.988  20.405  0.00  0.00    +0.000 A 
ATOM     13  C   UNL     1       2.231   3.974  20.635  0.00  0.00    +0.000 A 
ENDBRANCH   7   8
ENDBRANCH   6   7
ENDBRANCH   3   6
ENDBRANCH   1   2
BRANCH   1  15
ATOM     14  C   UNL     1       3.023   7.149  18.816  0.00  0.00    +0.000 C 
ATOM     15  C   UNL     1       3.689   7.240  17.654  0.00  0.00    +0.000 C 
BRANCH  14  16
ATOM     16  C   UNL     1       1.871   8.035  19.073  0.00  0.00    +0.000 C 
ATOM     17  O   UNL     1       1.329   8.740  18.240  0.00  0.00    +0.000 OA
BRANCH  16  18
ATOM     18  O   UNL     1       1.651   8.029  20.410  0.00  0.00    +0.000 OA
BRANCH  18  20
ATOM     19  C   UNL     1       1.030   9.163  22.418  0.00  0.00    +0.000 C 
ATOM     20  C   UNL     1       0.893   9.139  20.906  0.00  0.00    +0.000 C 
ENDBRANCH  18  20
ENDBRANCH  16  18
ENDBRANCH  14  16
ENDBRANCH   1  15
BRANCH   1  21
ATOM     21  C   UNL     1       5.335   6.568  15.889  0.00  0.00    +0.000 C 
BRANCH  21  22
ATOM     22  C   UNL     1       5.673   5.179  15.330  0.00  0.00    +0.000 C 
BRANCH  22  23
ATOM     23  C   UNL     1       7.162   4.925  15.249  0.00  0.00    +0.000 C 
ATOM     24  N   UNL     1       7.755   5.415  14.122  0.00  0.00    +0.000 N 
ATOM     25  O   UNL     1       7.814   4.327  16.097  0.00  0.00    +0.000 OA
ATOM     26  H   UNL     1       7.242   5.865  13.374  0.00  0.00    +0.000 HD
ATOM     27  H   UNL     1       8.746   5.247  14.000  0.00  0.00    +0.000 HD
ENDBRANCH  22  23
ENDBRANCH  21  22
ENDBRANCH   1  21
TORSDOF 11
ENDMDL
MODEL 6
REMARK VINA RESULT:      -6.6      3.386      4.631
REMARK  Name = 
REMARK  12 active torsions:
REMARK  status: ('A' for Active; 'I' for Inactive)
REMARK    1  A    between atoms: C_1  and  C_2
REMARK    2  A    between atoms: C_2  and  O_3
REMARK    3  A    between atoms: O_3  and  C_4
REMARK    4  A    between atoms: C_4  and  C_6
REMARK    5  A    between atoms: C_7  and  C_8
REMARK    6  A    between atoms: C_8  and  C_9
REMARK    7  A    between atoms: C_8  and  N_14
REMARK    8  A    between atoms: C_9  and  C_10
REMARK    9  A    between atoms: C_10  and  C_11
REMARK   10  A    between atoms: C_15  and  O_17
REMARK   11  A    between atoms: O_17  and  C_18
REMARK   12  A    between atoms: C_18  and  C_19
REMARK                            x       y       z     vdW  Elec       q    Type
REMARK                         _______ _______ _______ _____ _____    ______ ____
ROOT
ATOM      1  C   UNL     1       7.348   6.519  17.366  0.00  0.00    +0.000 C 
ENDROOT
BRANCH   1   2
ATOM      2  N   UNL     1       6.218   6.173  18.197  0.00  0.00    +0.000 N 
ATOM      3  C   UNL     1       6.349   5.494  19.371  0.00  0.00    +0.000 C 
ATOM      4  O   UNL     1       7.415   5.174  19.877  0.00  0.00    +0.000 OA
ATOM      5  H   UNL     1       5.273   6.268  17.852  0.00  0.00    +0.000 HD
BRANCH   3   6
ATOM      6  O   UNL     1       5.119   5.194  19.857  0.00  0.00    +0.000 OA
BRANCH   6   7
ATOM      7  C   UNL     1       4.024   5.425  18.964  0.00  0.00    +0.000 C 
BRANCH   7   8
ATOM      8  C   UNL     1       2.862   4.506  19.238  0.00  0.00    +0.000 A 
ATOM      9  C   UNL     1       2.313   4.401  20.526  0.00  0.00    +0.000 A 
ATOM     10  C   UNL     1       1.200   3.588  20.762  0.00  0.00    +0.000 A 
ATOM     11  C   UNL     1       0.630   2.863  19.718  0.00  0.00    +0.000 A 
ATOM     12  C   UNL     1       1.175   2.948  18.437  0.00  0.00    +0.000 A 
ATOM     13  C   UNL     1       2.286   3.759  18.199  0.00  0.00    +0.000 A 
ENDBRANCH   7   8
ENDBRANCH   6   7
ENDBRANCH   3   6
ENDBRANCH   1   2
BRANCH   1  15
ATOM     14  C   UNL     1       8.402   8.464  18.539  0.00  0.00    +0.000 C 
ATOM     15  C   UNL     1       7.602   7.984  17.574  0.00  0.00    +0.000 C 
BRANCH  14  16
ATOM     16  C   UNL     1       8.769   9.894  18.544  0.00  0.00    +0.000 C 
ATOM     17  O   UNL     1       8.509  10.688  17.657  0.00  0.00    +0.000 OA
BRANCH  16  18
ATOM     18  O   UNL     1       9.565  10.099  19.621  0.00  0.00    +0.000 OA
BRANCH  18  20
ATOM     19  C   UNL     1      11.050  11.903  20.117  0.00  0.00    +0.000 C 
ATOM     20  C   UNL     1       9.601  11.449  20.101  0.00  0.00    +0.000 C 
ENDBRANCH  18  20
ENDBRANCH  16  18
ENDBRANCH  14  16
ENDBRANCH   1  15
BRANCH   1  21
ATOM     21  C   UNL     1       7.102   6.211  15.875  0.00  0.00    +0.000 C 
BRANCH  21  22
ATOM     22  C   UNL     1       7.254   4.718  15.548  0.00  0.00    +0.000 C 
BRANCH  22  23
ATOM     23  C   UNL     1       5.927   4.033  15.308  0.00  0.00    +0.000 C 
ATOM     24  N   UNL     1       5.494   3.268  16.352  0.00  0.00    +0.000 N 
ATOM     25  O   UNL     1       5.271   4.125  14.277  0.00  0.00    +0.000 OA
ATOM     26  H   UNL     1       6.032   3.122  17.196  0.00  0.00    +0.000 HD
ATOM     27  H   UNL     1       4.625   2.760  16.235  0.00  0.00    +0.000 HD
ENDBRANCH  22  23
ENDBRANCH  21  22
ENDBRANCH   1  21
TORSDOF 11
ENDMDL
MODEL 7
REMARK VINA RESULT:      -6.6      2.038      5.310
REMARK  Name = 
REMARK  12 active torsions:
REMARK  status: ('A' for Active; 'I' for Inactive)
REMARK    1  A    between atoms: C_1  and  C_2
REMARK    2  A    between atoms: C_2  and  O_3
REMARK    3  A    between atoms: O_3  and  C_4
REMARK    4  A    between atoms: C_4  and  C_6
REMARK    5  A    between atoms: C_7  and  C_8
REMARK    6  A    between atoms: C_8  and  C_9
REMARK    7  A    between atoms: C_8  and  N_14
REMARK    8  A    between atoms: C_9  and  C_10
REMARK    9  A    between atoms: C_10  and  C_11
REMARK   10  A    between atoms: C_15  and  O_17
REMARK   11  A    between atoms: O_17  and  C_18
REMARK   12  A    between atoms: C_18  and  C_19
REMARK                            x       y       z     vdW  Elec       q    Type
REMARK                         _______ _______ _______ _____ _____    ______ ____
ROOT
ATOM      1  C   UNL     1       3.904   3.708  17.046  0.00  0.00    +0.000 C 
ENDROOT
BRANCH   1   2
ATOM      2  N   UNL     1       3.487   4.997  17.547  0.00  0.00    +0.000 N 
ATOM      3  C   UNL     1       2.176   5.345  17.684  0.00  0.00    +0.000 C 
ATOM      4  O   UNL     1       1.231   4.600  17.472  0.00  0.00    +0.000 OA
ATOM      5  H   UNL     1       4.151   5.752  17.650  0.00  0.00    +0.000 HD
BRANCH   3   6
ATOM      6  O   UNL     1       2.092   6.650  18.043  0.00  0.00    +0.000 OA
BRANCH   6   7
ATOM      7  C   UNL     1       2.466   6.949  19.392  0.00  0.00    +0.000 C 
BRANCH   7   8
ATOM      8  C   UNL     1       1.664   8.088  19.967  0.00  0.00    +0.000 A 
ATOM      9  C   UNL     1       1.227   8.061  21.301  0.00  0.00    +0.000 A 
ATOM     10  C   UNL     1       0.529   9.145  21.844  0.00  0.00    +0.000 A 
ATOM     11  C   UNL     1       0.252  10.262  21.058  0.00  0.00    +0.000 A 
ATOM     12  C   UNL     1       0.669  10.295  19.728  0.00  0.00    +0.000 A 
ATOM     13  C   UNL     1       1.365   9.214  19.184  0.00  0.00    +0.000 A 
ENDBRANCH   7   8
ENDBRANCH   6   7
ENDBRANCH   3   6
ENDBRANCH   1   2
BRANCH   1  15
ATOM     14  C   UNL     1       4.528   3.139  19.403  0.00  0.00    +0.000 C 
ATOM     15  C   UNL     1       3.978   2.788  18.230  0.00  0.00    +0.000 C 
BRANCH  14  16
ATOM     16  C   UNL     1       4.372   2.261  20.579  0.00  0.00    +0.000 C 
ATOM     17  O   UNL     1       5.271   1.629  21.107  0.00  0.00    +0.000 OA
BRANCH  16  18
ATOM     18  O   UNL     1       3.045   2.176  20.842  0.00  0.00    +0.000 OA
BRANCH  18  20
ATOM     19  C   UNL     1       1.121   3.590  20.768  0.00  0.00    +0.000 C 
ATOM     20  C   UNL     1       2.467   3.348  21.430  0.00  0.00    +0.000 C 
ENDBRANCH  18  20
ENDBRANCH  16  18
ENDBRANCH  14  16
ENDBRANCH   1  15
BRANCH   1  21
ATOM     21  C   UNL     1       5.258   3.768  16.312  0.00  0.00    +0.000 C 
BRANCH  21  22
ATOM     22  C   UNL     1       5.709   5.207  16.022  0.00  0.00    +0.000 C 
BRANCH  22  23
ATOM     23  C   UNL     1       7.074   5.520  16.596  0.00  0.00    +0.000 C 
ATOM     24  N   UNL     1       7.688   4.459  17.196  0.00  0.00    +0.000 N 
ATOM     25  O   UNL     1       7.612   6.620  16.553  0.00  0.00    +0.000 OA
ATOM     26  H   UNL     1       7.254   3.551  17.300  0.00  0.00    +0.000 HD
ATOM     27  H   UNL     1       8.591   4.618  17.625  0.00  0.00    +0.000 HD
ENDBRANCH  22  23
ENDBRANCH  21  22
ENDBRANCH   1  21
TORSDOF 11
ENDMDL
MODEL 8
REMARK VINA RESULT:      -6.6      3.006      5.441
REMARK  Name = 
REMARK  12 active torsions:
REMARK  status: ('A' for Active; 'I' for Inactive)
REMARK    1  A    between atoms: C_1  and  C_2
REMARK    2  A    between atoms: C_2  and  O_3
REMARK    3  A    between atoms: O_3  and  C_4
REMARK    4  A    between atoms: C_4  and  C_6
REMARK    5  A    between atoms: C_7  and  C_8
REMARK    6  A    between atoms: C_8  and  C_9
REMARK    7  A    between atoms: C_8  and  N_14
REMARK    8  A    between atoms: C_9  and  C_10
REMARK    9  A    between atoms: C_10  and  C_11
REMARK   10  A    between atoms: C_15  and  O_17
REMARK   11  A    between atoms: O_17  and  C_18
REMARK   12  A    between atoms: C_18  and  C_19
REMARK                            x       y       z     vdW  Elec       q    Type
REMARK                         _______ _______ _______ _____ _____    ______ ____
ROOT
ATOM      1  C   UNL     1       5.682   4.436  16.301  0.00  0.00    +0.000 C 
ENDROOT
BRANCH   1   2
ATOM      2  N   UNL     1       5.251   3.287  17.063  0.00  0.00    +0.000 N 
ATOM      3  C   UNL     1       3.939   2.954  17.214  0.00  0.00    +0.000 C 
ATOM      4  O   UNL     1       3.006   3.532  16.677  0.00  0.00    +0.000 OA
ATOM      5  H   UNL     1       5.899   2.787  17.657  0.00  0.00    +0.000 HD
BRANCH   3   6
ATOM      6  O   UNL     1       3.835   1.919  18.085  0.00  0.00    +0.000 OA
BRANCH   6   7
ATOM      7  C   UNL     1       3.949   2.258  19.471  0.00  0.00    +0.000 C 
BRANCH   7   8
ATOM      8  C   UNL     1       3.076   3.428  19.846  0.00  0.00    +0.000 A 
ATOM      9  C   UNL     1       1.741   3.235  20.239  0.00  0.00    +0.000 A 
ATOM     10  C   UNL     1       0.952   4.318  20.637  0.00  0.00    +0.000 A 
ATOM     11  C   UNL     1       1.483   5.606  20.639  0.00  0.00    +0.000 A 
ATOM     12  C   UNL     1       2.803   5.813  20.238  0.00  0.00    +0.000 A 
ATOM     13  C   UNL     1       3.592   4.733  19.839  0.00  0.00    +0.000 A 
ENDBRANCH   7   8
ENDBRANCH   6   7
ENDBRANCH   3   6
ENDBRANCH   1   2
BRANCH   1  15
ATOM     14  C   UNL     1       6.448   4.195  13.929  0.00  0.00    +0.000 C 
ATOM     15  C   UNL     1       5.480   4.093  14.853  0.00  0.00    +0.000 C 
BRANCH  14  16
ATOM     16  C   UNL     1       6.234   3.639  12.578  0.00  0.00    +0.000 C 
ATOM     17  O   UNL     1       7.116   3.395  11.773  0.00  0.00    +0.000 OA
BRANCH  16  18
ATOM     18  O   UNL     1       4.897   3.609  12.364  0.00  0.00    +0.000 OA
BRANCH  18  20
ATOM     19  C   UNL     1       3.439   3.648  10.473  0.00  0.00    +0.000 C 
ATOM     20  C   UNL     1       4.481   2.842  11.227  0.00  0.00    +0.000 C 
ENDBRANCH  18  20
ENDBRANCH  16  18
ENDBRANCH  14  16
ENDBRANCH   1  15
BRANCH   1  21
ATOM     21  C   UNL     1       7.151   4.812  16.576  0.00  0.00    +0.000 C 
BRANCH  21  22
ATOM     22  C   UNL     1       7.344   5.481  17.945  0.00  0.00    +0.000 C 
BRANCH  22  23
ATOM     23  C   UNL     1       7.629   6.962  17.839  0.00  0.00    +0.000 C 
ATOM     24  N   UNL     1       8.445   7.448  18.820  0.00  0.00    +0.000 N 
ATOM     25  O   UNL     1       7.180   7.698  16.968  0.00  0.00    +0.000 OA
ATOM     26  H   UNL     1       8.790   6.885  19.586  0.00  0.00    +0.000 HD
ATOM     27  H   UNL     1       8.645   8.441  18.816  0.00  0.00    +0.000 HD
ENDBRANCH  22  23
ENDBRANCH  21  22
ENDBRANCH   1  21
TORSDOF 11
ENDMDL
MODEL 9
REMARK VINA RESULT:      -6.5      1.226      1.510
REMARK  Name = 
REMARK  12 active torsions:
REMARK  status: ('A' for Active; 'I' for Inactive)
REMARK    1  A    between atoms: C_1  and  C_2
REMARK    2  A    between atoms: C_2  and  O_3
REMARK    3  A    between atoms: O_3  and  C_4
REMARK    4  A    between atoms: C_4  and  C_6
REMARK    5  A    between atoms: C_7  and  C_8
REMARK    6  A    between atoms: C_8  and  C_9
REMARK    7  A    between atoms: C_8  and  N_14
REMARK    8  A    between atoms: C_9  and  C_10
REMARK    9  A    between atoms: C_10  and  C_11
REMARK   10  A    between atoms: C_15  and  O_17
REMARK   11  A    between atoms: O_17  and  C_18
REMARK   12  A    between atoms: C_18  and  C_19
REMARK                            x       y       z     vdW  Elec       q    Type
REMARK                         _______ _______ _______ _____ _____    ______ ____
ROOT
ATOM      1  C   UNL     1       4.881   6.025  17.419  0.00  0.00    +0.000 C 
ENDROOT
BRANCH   1   2
ATOM      2  N   UNL     1       4.828   4.683  17.950  0.00  0.00    +0.000 N 
ATOM      3  C   UNL     1       5.518   4.304  19.063  0.00  0.00    +0.000 C 
ATOM      4  O   UNL     1       6.184   5.055  19.760  0.00  0.00    +0.000 OA
ATOM      5  H   UNL     1       4.415   3.931  17.416  0.00  0.00    +0.000 HD
BRANCH   3   6
ATOM      6  O   UNL     1       5.385   2.966  19.240  0.00  0.00    +0.000 OA
BRANCH   6   7
ATOM      7  C   UNL     1       4.527   2.563  20.314  0.00  0.00    +0.000 C 
BRANCH   7   8
ATOM      8  C   UNL     1       3.072   2.810  20.004  0.00  0.00    +0.000 A 
ATOM      9  C   UNL     1       2.416   2.084  18.997  0.00  0.00    +0.000 A 
ATOM     10  C   UNL     1       1.054   2.279  18.752  0.00  0.00    +0.000 A 
ATOM     11  C   UNL     1       0.335   3.207  19.502  0.00  0.00    +0.000 A 
ATOM     12  C   UNL     1       0.978   3.944  20.495  0.00  0.00    +0.000 A 
ATOM     13  C   UNL     1       2.338   3.752  20.742  0.00  0.00    +0.000 A 
ENDBRANCH   7   8
ENDBRANCH   6   7
ENDBRANCH   3   6
ENDBRANCH   1   2
BRANCH   1  15
ATOM     14  C   UNL     1       3.414   7.955  18.048  0.00  0.00    +0.000 C 
ATOM     15  C   UNL     1       3.555   6.661  17.722  0.00  0.00    +0.000 C 
BRANCH  14  16
ATOM     16  C   UNL     1       2.066   8.552  18.121  0.00  0.00    +0.000 C 
ATOM     17  O   UNL     1       1.622   9.378  17.343  0.00  0.00    +0.000 OA
BRANCH  16  18
ATOM     18  O   UNL     1       1.503   8.129  19.279  0.00  0.00    +0.000 OA
BRANCH  18  20
ATOM     19  C   UNL     1      -0.095   9.527  20.373  0.00  0.00    +0.000 C 
ATOM     20  C   UNL     1       1.370   9.135  20.291  0.00  0.00    +0.000 C 
ENDBRANCH  18  20
ENDBRANCH  16  18
ENDBRANCH  14  16
ENDBRANCH   1  15
BRANCH   1  21
ATOM     21  C   UNL     1       5.169   6.052  15.905  0.00  0.00    +0.000 C 
BRANCH  21  22
ATOM     22  C   UNL     1       5.379   4.648  15.319  0.00  0.00    +0.000 C 
BRANCH  22  23
ATOM     23  C   UNL     1       6.560   4.576  14.377  0.00  0.00    +0.000 C 
ATOM     24  N   UNL     1       6.448   3.623  13.407  0.00  0.00    +0.000 N 
ATOM     25  O   UNL     1       7.554   5.289  14.451  0.00  0.00    +0.000 OA
ATOM     26  H   UNL     1       5.670   2.979  13.347  0.00  0.00    +0.000 HD
ATOM     27  H   UNL     1       7.224   3.509  12.767  0.00  0.00    +0.000 HD
ENDBRANCH  22  23
ENDBRANCH  21  22
ENDBRANCH   1  21
TORSDOF 11
ENDMDL
