MODEL 1
REMARK VINA RESULT:      -7.5      0.000      0.000
REMARK  Name = 
REMARK  4 active torsions:
REMARK  status: ('A' for Active; 'I' for Inactive)
REMARK    1  A    between atoms: N_3  and  C_4
REMARK    2  A    between atoms: N_10  and  C_11
REMARK    3  A    between atoms: C_17  and  C_18
REMARK    4  A    between atoms: C_24  and  C_25
REMARK                            x       y       z     vdW  Elec       q    Type
REMARK                         _______ _______ _______ _____ _____    ______ ____
ROOT
ATOM      1  C   UNL     1      -1.676  12.144  17.962  0.00  0.00    +0.000 A 
ATOM      2  N   UNL     1      -1.964  11.619  16.718  0.00  0.00    +0.000 N 
ATOM      3  N   UNL     1      -3.220  11.186  16.587  0.00  0.00    +0.000 NA
ATOM      4  C   UNL     1      -3.770  11.453  17.775  0.00  0.00    +0.000 A 
ATOM      5  N   UNL     1      -5.039  11.178  18.145  0.00  0.00    +0.000 NA
ATOM      6  N   UNL     1      -5.381  11.621  19.380  0.00  0.00    +0.000 NA
ATOM      7  C   UNL     1      -4.545  12.326  20.232  0.00  0.00    +0.000 A 
ATOM      8  C   UNL     1      -3.174  12.623  19.966  0.00  0.00    +0.000 A 
ATOM      9  C   UNL     1      -2.860  12.110  18.673  0.00  0.00    +0.000 A 
ATOM     10  H   UNL     1      -1.313  11.453  15.958  0.00  0.00    +0.000 HD
ENDROOT
BRANCH   1  14
ATOM     11  O   UNL     1       1.650  12.029  19.125  0.00  0.00    +0.000 OA
ATOM     12  C   UNL     1       0.557  11.561  18.832  0.00  0.00    +0.000 C 
ATOM     13  N   UNL     1       0.217  10.226  18.827  0.00  0.00    +0.000 N 
ATOM     14  N   UNL     1      -0.372  12.430  18.294  0.00  0.00    +0.000 N 
ATOM     15  H   UNL     1      -0.706   9.979  18.502  0.00  0.00    +0.000 HD
ATOM     16  H   UNL     1       0.084  13.204  17.815  0.00  0.00    +0.000 HD
BRANCH  13  17
ATOM     17  C   UNL     1       1.118   9.135  18.951  0.00  0.00    +0.000 A 
ATOM     18  C   UNL     1       1.874   8.620  17.896  0.00  0.00    +0.000 A 
ATOM     19  C   UNL     1       2.683   7.491  18.072  0.00  0.00    +0.000 A 
ATOM     20  C   UNL     1       2.752   6.866  19.312  0.00  0.00    +0.000 A 
ATOM     21  C   UNL     1       2.021   7.378  20.379  0.00  0.00    +0.000 A 
ATOM     22  C   UNL     1       1.208   8.507  20.201  0.00  0.00    +0.000 A 
ENDBRANCH  13  17
ENDBRANCH   1  14
BRANCH   7  23
ATOM     23  C   UNL     1      -5.307  12.790  21.425  0.00  0.00    +0.000 A 
ATOM     24  C   UNL     1      -4.737  12.706  22.714  0.00  0.00    +0.000 A 
ATOM     25  C   UNL     1      -5.442  13.107  23.854  0.00  0.00    +0.000 A 
ATOM     26  C   UNL     1      -6.728  13.621  23.732  0.00  0.00    +0.000 A 
ATOM     27  C   UNL     1      -7.320  13.706  22.477  0.00  0.00    +0.000 A 
ATOM     28  C   UNL     1      -6.629  13.265  21.343  0.00  0.00    +0.000 A 
ENDBRANCH   7  23
BRANCH   8  29
ATOM     29  C   UNL     1      -2.261  13.422  20.819  0.00  0.00    +0.000 A 
ATOM     30  C   UNL     1      -1.386  12.833  21.751  0.00  0.00    +0.000 A 
ATOM     31  C   UNL     1      -0.640  13.604  22.656  0.00  0.00    +0.000 A 
ATOM     32  C   UNL     1      -0.655  14.991  22.573  0.00  0.00    +0.000 A 
ATOM     33  C   UNL     1      -1.462  15.604  21.629  0.00  0.00    +0.000 A 
ATOM     34  C   UNL     1      -2.297  14.827  20.820  0.00  0.00    +0.000 A 
ENDBRANCH   8  29
TORSDOF 4
ENDMDL
MODEL 2
REMARK VINA RESULT:      -7.5      0.308      1.241
REMARK  Name = 
REMARK  4 active torsions:
REMARK  status: ('A' for Active; 'I' for Inactive)
REMARK    1  A    between atoms: N_3  and  C_4
REMARK    2  A    between atoms: N_10  and  C_11
REMARK    3  A    between atoms: C_17  and  C_18
REMARK    4  A    between atoms: C_24  and  C_25
REMARK                            x       y       z     vdW  Elec       q    Type
REMARK                         _______ _______ _______ _____ _____    ______ ____
ROOT
ATOM      1  C   UNL     1      -1.659  12.146  17.931  0.00  0.00    +0.000 A 
ATOM      2  N   UNL     1      -1.999  11.576  16.721  0.00  0.00    +0.000 N 
ATOM      3  N   UNL     1      -3.264  11.156  16.653  0.00  0.00    +0.000 NA
ATOM      4  C   UNL     1      -3.767  11.479  17.849  0.00  0.00    +0.000 A 
ATOM      5  N   UNL     1      -5.025  11.237  18.275  0.00  0.00    +0.000 NA
ATOM      6  N   UNL     1      -5.315  11.735  19.502  0.00  0.00    +0.000 NA
ATOM      7  C   UNL     1      -4.439  12.462  20.294  0.00  0.00    +0.000 A 
ATOM      8  C   UNL     1      -3.075  12.728  19.966  0.00  0.00    +0.000 A 
ATOM      9  C   UNL     1      -2.816  12.159  18.685  0.00  0.00    +0.000 A 
ATOM     10  H   UNL     1      -1.379  11.369  15.945  0.00  0.00    +0.000 HD
ENDROOT
BRANCH   1  14
ATOM     11  O   UNL     1       1.705  12.033  18.981  0.00  0.00    +0.000 OA
ATOM     12  C   UNL     1       0.595  11.570  18.749  0.00  0.00    +0.000 C 
ATOM     13  N   UNL     1       0.236  10.242  18.822  0.00  0.00    +0.000 N 
ATOM     14  N   UNL     1      -0.340  12.427  18.203  0.00  0.00    +0.000 N 
ATOM     15  H   UNL     1      -0.701   9.995  18.541  0.00  0.00    +0.000 HD
ATOM     16  H   UNL     1       0.110  13.170  17.672  0.00  0.00    +0.000 HD
BRANCH  13  17
ATOM     17  C   UNL     1       1.125   9.144  18.967  0.00  0.00    +0.000 A 
ATOM     18  C   UNL     1       1.902   8.622  17.930  0.00  0.00    +0.000 A 
ATOM     19  C   UNL     1       2.697   7.486  18.125  0.00  0.00    +0.000 A 
ATOM     20  C   UNL     1       2.731   6.862  19.366  0.00  0.00    +0.000 A 
ATOM     21  C   UNL     1       1.979   7.380  20.416  0.00  0.00    +0.000 A 
ATOM     22  C   UNL     1       1.181   8.515  20.219  0.00  0.00    +0.000 A 
ENDBRANCH  13  17
ENDBRANCH   1  14
BRANCH   7  23
ATOM     23  C   UNL     1      -5.151  12.986  21.494  0.00  0.00    +0.000 A 
ATOM     24  C   UNL     1      -6.251  13.857  21.348  0.00  0.00    +0.000 A 
ATOM     25  C   UNL     1      -6.920  14.387  22.457  0.00  0.00    +0.000 A 
ATOM     26  C   UNL     1      -6.516  14.042  23.742  0.00  0.00    +0.000 A 
ATOM     27  C   UNL     1      -5.427  13.194  23.918  0.00  0.00    +0.000 A 
ATOM     28  C   UNL     1      -4.735  12.700  22.807  0.00  0.00    +0.000 A 
ENDBRANCH   7  23
BRANCH   8  29
ATOM     29  C   UNL     1      -2.121  13.548  20.751  0.00  0.00    +0.000 A 
ATOM     30  C   UNL     1      -1.989  14.938  20.571  0.00  0.00    +0.000 A 
ATOM     31  C   UNL     1      -0.979  15.675  21.210  0.00  0.00    +0.000 A 
ATOM     32  C   UNL     1      -0.151  15.065  22.143  0.00  0.00    +0.000 A 
ATOM     33  C   UNL     1      -0.290  13.708  22.388  0.00  0.00    +0.000 A 
ATOM     34  C   UNL     1      -1.213  12.961  21.650  0.00  0.00    +0.000 A 
ENDBRANCH   8  29
TORSDOF 4
ENDMDL
MODEL 3
REMARK VINA RESULT:      -7.4      2.853      4.737
REMARK  Name = 
REMARK  4 active torsions:
REMARK  status: ('A' for Active; 'I' for Inactive)
REMARK    1  A    between atoms: N_3  and  C_4
REMARK    2  A    between atoms: N_10  and  C_11
REMARK    3  A    between atoms: C_17  and  C_18
REMARK    4  A    between atoms: C_24  and  C_25
REMARK                            x       y       z     vdW  Elec       q    Type
REMARK                         _______ _______ _______ _____ _____    ______ ____
ROOT
ATOM      1  C   UNL     1       1.153   9.082  20.315  0.00  0.00    +0.000 A 
ATOM      2  N   UNL     1       1.882   8.226  21.115  0.00  0.00    +0.000 N 
ATOM      3  N   UNL     1       1.680   8.396  22.423  0.00  0.00    +0.000 NA
ATOM      4  C   UNL     1       0.778   9.381  22.475  0.00  0.00    +0.000 A 
ATOM      5  N   UNL     1       0.262   9.931  23.596  0.00  0.00    +0.000 NA
ATOM      6  N   UNL     1      -0.698  10.863  23.382  0.00  0.00    +0.000 NA
ATOM      7  C   UNL     1      -1.171  11.249  22.137  0.00  0.00    +0.000 A 
ATOM      8  C   UNL     1      -0.661  10.774  20.891  0.00  0.00    +0.000 A 
ATOM      9  C   UNL     1       0.362   9.823  21.172  0.00  0.00    +0.000 A 
ATOM     10  H   UNL     1       2.598   7.571  20.819  0.00  0.00    +0.000 HD
ENDROOT
BRANCH   1  14
ATOM     11  O   UNL     1       2.355   8.531  17.047  0.00  0.00    +0.000 OA
ATOM     12  C   UNL     1       2.166   8.254  18.225  0.00  0.00    +0.000 C 
ATOM     13  N   UNL     1       2.474   7.061  18.840  0.00  0.00    +0.000 N 
ATOM     14  N   UNL     1       1.425   9.152  18.969  0.00  0.00    +0.000 N 
ATOM     15  H   UNL     1       2.204   6.948  19.806  0.00  0.00    +0.000 HD
ATOM     16  H   UNL     1       0.783   9.675  18.377  0.00  0.00    +0.000 HD
BRANCH  13  17
ATOM     17  C   UNL     1       2.865   5.862  18.187  0.00  0.00    +0.000 A 
ATOM     18  C   UNL     1       2.014   4.777  17.964  0.00  0.00    +0.000 A 
ATOM     19  C   UNL     1       2.489   3.594  17.385  0.00  0.00    +0.000 A 
ATOM     20  C   UNL     1       3.823   3.484  17.012  0.00  0.00    +0.000 A 
ATOM     21  C   UNL     1       4.681   4.562  17.208  0.00  0.00    +0.000 A 
ATOM     22  C   UNL     1       4.205   5.745  17.791  0.00  0.00    +0.000 A 
ENDBRANCH  13  17
ENDBRANCH   1  14
BRANCH   7  23
ATOM     23  C   UNL     1      -2.334  12.167  22.295  0.00  0.00    +0.000 A 
ATOM     24  C   UNL     1      -3.120  12.129  23.467  0.00  0.00    +0.000 A 
ATOM     25  C   UNL     1      -4.234  12.958  23.629  0.00  0.00    +0.000 A 
ATOM     26  C   UNL     1      -4.579  13.863  22.631  0.00  0.00    +0.000 A 
ATOM     27  C   UNL     1      -3.830  13.916  21.460  0.00  0.00    +0.000 A 
ATOM     28  C   UNL     1      -2.742  13.054  21.283  0.00  0.00    +0.000 A 
ENDBRANCH   7  23
BRANCH   8  29
ATOM     29  C   UNL     1      -1.174  11.112  19.541  0.00  0.00    +0.000 A 
ATOM     30  C   UNL     1      -2.113  10.311  18.864  0.00  0.00    +0.000 A 
ATOM     31  C   UNL     1      -2.473  10.559  17.530  0.00  0.00    +0.000 A 
ATOM     32  C   UNL     1      -1.998  11.688  16.874  0.00  0.00    +0.000 A 
ATOM     33  C   UNL     1      -1.115  12.530  17.530  0.00  0.00    +0.000 A 
ATOM     34  C   UNL     1      -0.664  12.201  18.812  0.00  0.00    +0.000 A 
ENDBRANCH   8  29
TORSDOF 4
ENDMDL
MODEL 4
REMARK VINA RESULT:      -7.4      0.955      1.541
REMARK  Name = 
REMARK  4 active torsions:
REMARK  status: ('A' for Active; 'I' for Inactive)
REMARK    1  A    between atoms: N_3  and  C_4
REMARK    2  A    between atoms: N_10  and  C_11
REMARK    3  A    between atoms: C_17  and  C_18
REMARK    4  A    between atoms: C_24  and  C_25
REMARK                            x       y       z     vdW  Elec       q    Type
REMARK                         _______ _______ _______ _____ _____    ______ ____
ROOT
ATOM      1  C   UNL     1      -2.110  12.435  18.987  0.00  0.00    +0.000 A 
ATOM      2  N   UNL     1      -2.277  11.914  17.720  0.00  0.00    +0.000 N 
ATOM      3  N   UNL     1      -3.522  11.515  17.454  0.00  0.00    +0.000 NA
ATOM      4  C   UNL     1      -4.190  11.802  18.576  0.00  0.00    +0.000 A 
ATOM      5  N   UNL     1      -5.498  11.564  18.807  0.00  0.00    +0.000 NA
ATOM      6  N   UNL     1      -5.959  12.021  19.997  0.00  0.00    +0.000 NA
ATOM      7  C   UNL     1      -5.201  12.707  20.934  0.00  0.00    +0.000 A 
ATOM      8  C   UNL     1      -3.801  12.964  20.817  0.00  0.00    +0.000 A 
ATOM      9  C   UNL     1      -3.364  12.438  19.566  0.00  0.00    +0.000 A 
ATOM     10  H   UNL     1      -1.553  11.726  17.035  0.00  0.00    +0.000 HD
ENDROOT
BRANCH   1  14
ATOM     11  O   UNL     1       1.175  12.178  20.240  0.00  0.00    +0.000 OA
ATOM     12  C   UNL     1       0.129  11.754  19.765  0.00  0.00    +0.000 C 
ATOM     13  N   UNL     1      -0.114  10.463  19.352  0.00  0.00    +0.000 N 
ATOM     14  N   UNL     1      -0.842  12.688  19.457  0.00  0.00    +0.000 N 
ATOM     15  H   UNL     1      -1.005  10.269  18.920  0.00  0.00    +0.000 HD
ATOM     16  H   UNL     1      -0.427  13.594  19.251  0.00  0.00    +0.000 HD
BRANCH  13  17
ATOM     17  C   UNL     1       0.859   9.440  19.199  0.00  0.00    +0.000 A 
ATOM     18  C   UNL     1       1.547   9.184  18.010  0.00  0.00    +0.000 A 
ATOM     19  C   UNL     1       2.435   8.106  17.908  0.00  0.00    +0.000 A 
ATOM     20  C   UNL     1       2.652   7.273  18.999  0.00  0.00    +0.000 A 
ATOM     21  C   UNL     1       1.990   7.525  20.197  0.00  0.00    +0.000 A 
ATOM     22  C   UNL     1       1.099   8.602  20.298  0.00  0.00    +0.000 A 
ENDBRANCH  13  17
ENDBRANCH   1  14
BRANCH   7  23
ATOM     23  C   UNL     1      -6.074  13.197  22.038  0.00  0.00    +0.000 A 
ATOM     24  C   UNL     1      -6.807  14.394  21.890  0.00  0.00    +0.000 A 
ATOM     25  C   UNL     1      -7.611  14.893  22.920  0.00  0.00    +0.000 A 
ATOM     26  C   UNL     1      -7.719  14.195  24.118  0.00  0.00    +0.000 A 
ATOM     27  C   UNL     1      -7.000  13.018  24.297  0.00  0.00    +0.000 A 
ATOM     28  C   UNL     1      -6.163  12.544  23.280  0.00  0.00    +0.000 A 
ENDBRANCH   7  23
BRANCH   8  29
ATOM     29  C   UNL     1      -2.963  13.741  21.762  0.00  0.00    +0.000 A 
ATOM     30  C   UNL     1      -2.743  15.124  21.619  0.00  0.00    +0.000 A 
ATOM     31  C   UNL     1      -1.829  15.816  22.429  0.00  0.00    +0.000 A 
ATOM     32  C   UNL     1      -1.201  15.170  23.487  0.00  0.00    +0.000 A 
ATOM     33  C   UNL     1      -1.439  13.820  23.693  0.00  0.00    +0.000 A 
ATOM     34  C   UNL     1      -2.251  13.115  22.800  0.00  0.00    +0.000 A 
ENDBRANCH   8  29
TORSDOF 4
ENDMDL
MODEL 5
REMARK VINA RESULT:      -7.4      0.210      1.224
REMARK  Name = 
REMARK  4 active torsions:
REMARK  status: ('A' for Active; 'I' for Inactive)
REMARK    1  A    between atoms: N_3  and  C_4
REMARK    2  A    between atoms: N_10  and  C_11
REMARK    3  A    between atoms: C_17  and  C_18
REMARK    4  A    between atoms: C_24  and  C_25
REMARK                            x       y       z     vdW  Elec       q    Type
REMARK                         _______ _______ _______ _____ _____    ______ ____
ROOT
ATOM      1  C   UNL     1      -1.652  12.132  18.012  0.00  0.00    +0.000 A 
ATOM      2  N   UNL     1      -1.919  11.609  16.763  0.00  0.00    +0.000 N 
ATOM      3  N   UNL     1      -3.183  11.211  16.599  0.00  0.00    +0.000 NA
ATOM      4  C   UNL     1      -3.758  11.499  17.770  0.00  0.00    +0.000 A 
ATOM      5  N   UNL     1      -5.044  11.262  18.106  0.00  0.00    +0.000 NA
ATOM      6  N   UNL     1      -5.408  11.720  19.328  0.00  0.00    +0.000 NA
ATOM      7  C   UNL     1      -4.576  12.407  20.201  0.00  0.00    +0.000 A 
ATOM      8  C   UNL     1      -3.190  12.664  19.971  0.00  0.00    +0.000 A 
ATOM      9  C   UNL     1      -2.856  12.135  18.690  0.00  0.00    +0.000 A 
ATOM     10  H   UNL     1      -1.253  11.420  16.022  0.00  0.00    +0.000 HD
ENDROOT
BRANCH   1  14
ATOM     11  O   UNL     1       1.648  11.919  19.236  0.00  0.00    +0.000 OA
ATOM     12  C   UNL     1       0.552  11.481  18.906  0.00  0.00    +0.000 C 
ATOM     13  N   UNL     1       0.189  10.154  18.852  0.00  0.00    +0.000 N 
ATOM     14  N   UNL     1      -0.350  12.384  18.379  0.00  0.00    +0.000 N 
ATOM     15  H   UNL     1      -0.731   9.934  18.501  0.00  0.00    +0.000 HD
ATOM     16  H   UNL     1       0.130  13.165  17.935  0.00  0.00    +0.000 HD
BRANCH  13  17
ATOM     17  C   UNL     1       1.068   9.043  18.958  0.00  0.00    +0.000 A 
ATOM     18  C   UNL     1       1.267   8.310  20.131  0.00  0.00    +0.000 A 
ATOM     19  C   UNL     1       2.210   7.276  20.185  0.00  0.00    +0.000 A 
ATOM     20  C   UNL     1       2.962   6.957  19.061  0.00  0.00    +0.000 A 
ATOM     21  C   UNL     1       2.763   7.663  17.878  0.00  0.00    +0.000 A 
ATOM     22  C   UNL     1       1.821   8.700  17.826  0.00  0.00    +0.000 A 
ENDBRANCH  13  17
ENDBRANCH   1  14
BRANCH   7  23
ATOM     23  C   UNL     1      -5.358  12.898  21.370  0.00  0.00    +0.000 A 
ATOM     24  C   UNL     1      -6.489  13.721  21.177  0.00  0.00    +0.000 A 
ATOM     25  C   UNL     1      -7.224  14.221  22.258  0.00  0.00    +0.000 A 
ATOM     26  C   UNL     1      -6.857  13.893  23.559  0.00  0.00    +0.000 A 
ATOM     27  C   UNL     1      -5.741  13.094  23.780  0.00  0.00    +0.000 A 
ATOM     28  C   UNL     1      -4.984  12.630  22.699  0.00  0.00    +0.000 A 
ENDBRANCH   7  23
BRANCH   8  29
ATOM     29  C   UNL     1      -2.280  13.442  20.845  0.00  0.00    +0.000 A 
ATOM     30  C   UNL     1      -1.475  12.837  21.830  0.00  0.00    +0.000 A 
ATOM     31  C   UNL     1      -0.735  13.597  22.750  0.00  0.00    +0.000 A 
ATOM     32  C   UNL     1      -0.680  14.979  22.633  0.00  0.00    +0.000 A 
ATOM     33  C   UNL     1      -1.415  15.605  21.639  0.00  0.00    +0.000 A 
ATOM     34  C   UNL     1      -2.249  14.847  20.812  0.00  0.00    +0.000 A 
ENDBRANCH   8  29
TORSDOF 4
ENDMDL
MODEL 6
REMARK VINA RESULT:      -7.3      2.816      4.775
REMARK  Name = 
REMARK  4 active torsions:
REMARK  status: ('A' for Active; 'I' for Inactive)
REMARK    1  A    between atoms: N_3  and  C_4
REMARK    2  A    between atoms: N_10  and  C_11
REMARK    3  A    between atoms: C_17  and  C_18
REMARK    4  A    between atoms: C_24  and  C_25
REMARK                            x       y       z     vdW  Elec       q    Type
REMARK                         _______ _______ _______ _____ _____    ______ ____
ROOT
ATOM      1  C   UNL     1       1.133   9.102  20.358  0.00  0.00    +0.000 A 
ATOM      2  N   UNL     1       1.855   8.350  21.262  0.00  0.00    +0.000 N 
ATOM      3  N   UNL     1       1.594   8.635  22.539  0.00  0.00    +0.000 NA
ATOM      4  C   UNL     1       0.662   9.590  22.464  0.00  0.00    +0.000 A 
ATOM      5  N   UNL     1       0.085  10.224  23.507  0.00  0.00    +0.000 NA
ATOM      6  N   UNL     1      -0.894  11.100  23.170  0.00  0.00    +0.000 NA
ATOM      7  C   UNL     1      -1.328  11.350  21.877  0.00  0.00    +0.000 A 
ATOM      8  C   UNL     1      -0.754  10.778  20.701  0.00  0.00    +0.000 A 
ATOM      9  C   UNL     1       0.286   9.892  21.110  0.00  0.00    +0.000 A 
ATOM     10  H   UNL     1       2.602   7.694  21.056  0.00  0.00    +0.000 HD
ENDROOT
BRANCH   1  14
ATOM     11  O   UNL     1       2.471   8.278  17.201  0.00  0.00    +0.000 OA
ATOM     12  C   UNL     1       2.240   8.106  18.392  0.00  0.00    +0.000 C 
ATOM     13  N   UNL     1       2.541   6.979  19.125  0.00  0.00    +0.000 N 
ATOM     14  N   UNL     1       1.457   9.054  19.021  0.00  0.00    +0.000 N 
ATOM     15  H   UNL     1       2.234   6.950  20.086  0.00  0.00    +0.000 HD
ATOM     16  H   UNL     1       0.831   9.510  18.361  0.00  0.00    +0.000 HD
BRANCH  13  17
ATOM     17  C   UNL     1       2.975   5.733  18.599  0.00  0.00    +0.000 A 
ATOM     18  C   UNL     1       4.310   5.323  18.557  0.00  0.00    +0.000 A 
ATOM     19  C   UNL     1       4.674   4.114  17.951  0.00  0.00    +0.000 A 
ATOM     20  C   UNL     1       3.704   3.295  17.385  0.00  0.00    +0.000 A 
ATOM     21  C   UNL     1       2.368   3.679  17.435  0.00  0.00    +0.000 A 
ATOM     22  C   UNL     1       2.004   4.891  18.040  0.00  0.00    +0.000 A 
ENDBRANCH  13  17
ENDBRANCH   1  14
BRANCH   7  23
ATOM     23  C   UNL     1      -2.523  12.239  21.903  0.00  0.00    +0.000 A 
ATOM     24  C   UNL     1      -3.335  12.310  23.056  0.00  0.00    +0.000 A 
ATOM     25  C   UNL     1      -4.479  13.114  23.098  0.00  0.00    +0.000 A 
ATOM     26  C   UNL     1      -4.829  13.883  21.993  0.00  0.00    +0.000 A 
ATOM     27  C   UNL     1      -4.055  13.825  20.840  0.00  0.00    +0.000 A 
ATOM     28  C   UNL     1      -2.935  12.988  20.786  0.00  0.00    +0.000 A 
ENDBRANCH   7  23
BRANCH   8  29
ATOM     29  C   UNL     1      -1.221  10.970  19.307  0.00  0.00    +0.000 A 
ATOM     30  C   UNL     1      -0.817  12.063  18.516  0.00  0.00    +0.000 A 
ATOM     31  C   UNL     1      -1.384  12.314  17.256  0.00  0.00    +0.000 A 
ATOM     32  C   UNL     1      -2.280  11.412  16.698  0.00  0.00    +0.000 A 
ATOM     33  C   UNL     1      -2.656  10.294  17.426  0.00  0.00    +0.000 A 
ATOM     34  C   UNL     1      -2.184  10.123  18.730  0.00  0.00    +0.000 A 
ENDBRANCH   8  29
TORSDOF 4
ENDMDL
MODEL 7
REMARK VINA RESULT:      -7.3      2.833      4.843
REMARK  Name = 
REMARK  4 active torsions:
REMARK  status: ('A' for Active; 'I' for Inactive)
REMARK    1  A    between atoms: N_3  and  C_4
REMARK    2  A    between atoms: N_10  and  C_11
REMARK    3  A    between atoms: C_17  and  C_18
REMARK    4  A    between atoms: C_24  and  C_25
REMARK                            x       y       z     vdW  Elec       q    Type
REMARK                         _______ _______ _______ _____ _____    ______ ____
ROOT
ATOM      1  C   UNL     1       1.163   9.055  20.346  0.00  0.00    +0.000 A 
ATOM      2  N   UNL     1       1.882   8.281  21.235  0.00  0.00    +0.000 N 
ATOM      3  N   UNL     1       1.627   8.546  22.518  0.00  0.00    +0.000 NA
ATOM      4  C   UNL     1       0.702   9.509  22.462  0.00  0.00    +0.000 A 
ATOM      5  N   UNL     1       0.133  10.128  23.518  0.00  0.00    +0.000 NA
ATOM      6  N   UNL     1      -0.840  11.017  23.200  0.00  0.00    +0.000 NA
ATOM      7  C   UNL     1      -1.277  11.293  21.913  0.00  0.00    +0.000 A 
ATOM      8  C   UNL     1      -0.711  10.738  20.726  0.00  0.00    +0.000 A 
ATOM      9  C   UNL     1       0.324   9.838  21.115  0.00  0.00    +0.000 A 
ATOM     10  H   UNL     1       2.623   7.624  21.015  0.00  0.00    +0.000 HD
ENDROOT
BRANCH   1  14
ATOM     11  O   UNL     1       2.456   8.256  17.165  0.00  0.00    +0.000 OA
ATOM     12  C   UNL     1       2.220   8.063  18.352  0.00  0.00    +0.000 C 
ATOM     13  N   UNL     1       2.470   6.904  19.053  0.00  0.00    +0.000 N 
ATOM     14  N   UNL     1       1.482   9.028  19.008  0.00  0.00    +0.000 N 
ATOM     15  H   UNL     1       2.164   6.863  20.014  0.00  0.00    +0.000 HD
ATOM     16  H   UNL     1       0.876   9.530  18.362  0.00  0.00    +0.000 HD
BRANCH  13  17
ATOM     17  C   UNL     1       2.846   5.654  18.493  0.00  0.00    +0.000 A 
ATOM     18  C   UNL     1       1.950   4.757  17.906  0.00  0.00    +0.000 A 
ATOM     19  C   UNL     1       2.379   3.506  17.445  0.00  0.00    +0.000 A 
ATOM     20  C   UNL     1       3.715   3.140  17.559  0.00  0.00    +0.000 A 
ATOM     21  C   UNL     1       4.625   4.029  18.123  0.00  0.00    +0.000 A 
ATOM     22  C   UNL     1       4.194   5.279  18.587  0.00  0.00    +0.000 A 
ENDBRANCH  13  17
ENDBRANCH   1  14
BRANCH   7  23
ATOM     23  C   UNL     1      -2.465  12.190  21.959  0.00  0.00    +0.000 A 
ATOM     24  C   UNL     1      -2.754  13.048  20.877  0.00  0.00    +0.000 A 
ATOM     25  C   UNL     1      -3.847  13.922  20.905  0.00  0.00    +0.000 A 
ATOM     26  C   UNL     1      -4.690  13.945  22.011  0.00  0.00    +0.000 A 
ATOM     27  C   UNL     1      -4.424  13.118  23.097  0.00  0.00    +0.000 A 
ATOM     28  C   UNL     1      -3.307  12.277  23.083  0.00  0.00    +0.000 A 
ENDBRANCH   7  23
BRANCH   8  29
ATOM     29  C   UNL     1      -1.181  10.958  19.336  0.00  0.00    +0.000 A 
ATOM     30  C   UNL     1      -0.761  12.054  18.559  0.00  0.00    +0.000 A 
ATOM     31  C   UNL     1      -1.329  12.334  17.306  0.00  0.00    +0.000 A 
ATOM     32  C   UNL     1      -2.244  11.456  16.740  0.00  0.00    +0.000 A 
ATOM     33  C   UNL     1      -2.638  10.335  17.453  0.00  0.00    +0.000 A 
ATOM     34  C   UNL     1      -2.162  10.137  18.753  0.00  0.00    +0.000 A 
ENDBRANCH   8  29
TORSDOF 4
ENDMDL
MODEL 8
REMARK VINA RESULT:      -7.3      1.005      1.544
REMARK  Name = 
REMARK  4 active torsions:
REMARK  status: ('A' for Active; 'I' for Inactive)
REMARK    1  A    between atoms: N_3  and  C_4
REMARK    2  A    between atoms: N_10  and  C_11
REMARK    3  A    between atoms: C_17  and  C_18
REMARK    4  A    between atoms: C_24  and  C_25
REMARK                            x       y       z     vdW  Elec       q    Type
REMARK                         _______ _______ _______ _____ _____    ______ ____
ROOT
ATOM      1  C   UNL     1      -2.112  12.422  18.958  0.00  0.00    +0.000 A 
ATOM      2  N   UNL     1      -2.292  11.906  17.690  0.00  0.00    +0.000 N 
ATOM      3  N   UNL     1      -3.547  11.537  17.425  0.00  0.00    +0.000 NA
ATOM      4  C   UNL     1      -4.207  11.839  18.547  0.00  0.00    +0.000 A 
ATOM      5  N   UNL     1      -5.521  11.631  18.779  0.00  0.00    +0.000 NA
ATOM      6  N   UNL     1      -5.969  12.098  19.970  0.00  0.00    +0.000 NA
ATOM      7  C   UNL     1      -5.194  12.764  20.907  0.00  0.00    +0.000 A 
ATOM      8  C   UNL     1      -3.789  12.988  20.789  0.00  0.00    +0.000 A 
ATOM      9  C   UNL     1      -3.366  12.453  19.537  0.00  0.00    +0.000 A 
ATOM     10  H   UNL     1      -1.573  11.702  17.004  0.00  0.00    +0.000 HD
ENDROOT
BRANCH   1  14
ATOM     11  O   UNL     1       1.164  12.085  20.216  0.00  0.00    +0.000 OA
ATOM     12  C   UNL     1       0.106  11.686  19.743  0.00  0.00    +0.000 C 
ATOM     13  N   UNL     1      -0.171  10.399  19.340  0.00  0.00    +0.000 N 
ATOM     14  N   UNL     1      -0.838  12.643  19.427  0.00  0.00    +0.000 N 
ATOM     15  H   UNL     1      -1.066  10.226  18.908  0.00  0.00    +0.000 HD
ATOM     16  H   UNL     1      -0.398  13.536  19.215  0.00  0.00    +0.000 HD
BRANCH  13  17
ATOM     17  C   UNL     1       0.774   9.348  19.196  0.00  0.00    +0.000 A 
ATOM     18  C   UNL     1       1.129   8.467  20.220  0.00  0.00    +0.000 A 
ATOM     19  C   UNL     1       2.128   7.504  20.030  0.00  0.00    +0.000 A 
ATOM     20  C   UNL     1       2.780   7.405  18.807  0.00  0.00    +0.000 A 
ATOM     21  C   UNL     1       2.425   8.261  17.768  0.00  0.00    +0.000 A 
ATOM     22  C   UNL     1       1.427   9.227  17.961  0.00  0.00    +0.000 A 
ENDBRANCH  13  17
ENDBRANCH   1  14
BRANCH   7  23
ATOM     23  C   UNL     1      -6.055  13.273  22.012  0.00  0.00    +0.000 A 
ATOM     24  C   UNL     1      -6.592  14.576  21.955  0.00  0.00    +0.000 A 
ATOM     25  C   UNL     1      -7.379  15.091  22.992  0.00  0.00    +0.000 A 
ATOM     26  C   UNL     1      -7.665  14.305  24.103  0.00  0.00    +0.000 A 
ATOM     27  C   UNL     1      -7.140  13.020  24.192  0.00  0.00    +0.000 A 
ATOM     28  C   UNL     1      -6.319  12.525  23.173  0.00  0.00    +0.000 A 
ENDBRANCH   7  23
BRANCH   8  29
ATOM     29  C   UNL     1      -2.932  13.744  21.735  0.00  0.00    +0.000 A 
ATOM     30  C   UNL     1      -2.246  13.124  22.796  0.00  0.00    +0.000 A 
ATOM     31  C   UNL     1      -1.564  13.868  23.772  0.00  0.00    +0.000 A 
ATOM     32  C   UNL     1      -1.445  15.246  23.646  0.00  0.00    +0.000 A 
ATOM     33  C   UNL     1      -2.061  15.884  22.581  0.00  0.00    +0.000 A 
ATOM     34  C   UNL     1      -2.845  15.146  21.689  0.00  0.00    +0.000 A 
ENDBRANCH   8  29
TORSDOF 4
ENDMDL
MODEL 9
REMARK VINA RESULT:      -7.3      0.950      1.597
REMARK  Name = 
REMARK  4 active torsions:
REMARK  status: ('A' for Active; 'I' for Inactive)
REMARK    1  A    between atoms: N_3  and  C_4
REMARK    2  A    between atoms: N_10  and  C_11
REMARK    3  A    between atoms: C_17  and  C_18
REMARK    4  A    between atoms: C_24  and  C_25
REMARK                            x       y       z     vdW  Elec       q    Type
REMARK                         _______ _______ _______ _____ _____    ______ ____
ROOT
ATOM      1  C   UNL     1      -2.112  12.435  18.920  0.00  0.00    +0.000 A 
ATOM      2  N   UNL     1      -2.307  11.909  17.659  0.00  0.00    +0.000 N 
ATOM      3  N   UNL     1      -3.564  11.537  17.411  0.00  0.00    +0.000 NA
ATOM      4  C   UNL     1      -4.211  11.847  18.539  0.00  0.00    +0.000 A 
ATOM      5  N   UNL     1      -5.521  11.640  18.789  0.00  0.00    +0.000 NA
ATOM      6  N   UNL     1      -5.956  12.116  19.981  0.00  0.00    +0.000 NA
ATOM      7  C   UNL     1      -5.170  12.791  20.903  0.00  0.00    +0.000 A 
ATOM      8  C   UNL     1      -3.767  13.015  20.766  0.00  0.00    +0.000 A 
ATOM      9  C   UNL     1      -3.358  12.470  19.514  0.00  0.00    +0.000 A 
ATOM     10  H   UNL     1      -1.596  11.699  16.965  0.00  0.00    +0.000 HD
ENDROOT
BRANCH   1  14
ATOM     11  O   UNL     1       1.172  12.113  20.162  0.00  0.00    +0.000 OA
ATOM     12  C   UNL     1       0.108  11.708  19.710  0.00  0.00    +0.000 C 
ATOM     13  N   UNL     1      -0.182  10.410  19.350  0.00  0.00    +0.000 N 
ATOM     14  N   UNL     1      -0.832  12.661  19.372  0.00  0.00    +0.000 N 
ATOM     15  H   UNL     1      -1.082  10.231  18.931  0.00  0.00    +0.000 HD
ATOM     16  H   UNL     1      -0.388  13.544  19.128  0.00  0.00    +0.000 HD
BRANCH  13  17
ATOM     17  C   UNL     1       0.754   9.349  19.231  0.00  0.00    +0.000 A 
ATOM     18  C   UNL     1       1.095   8.484  20.273  0.00  0.00    +0.000 A 
ATOM     19  C   UNL     1       2.085   7.508  20.107  0.00  0.00    +0.000 A 
ATOM     20  C   UNL     1       2.744   7.381  18.890  0.00  0.00    +0.000 A 
ATOM     21  C   UNL     1       2.404   8.220  17.834  0.00  0.00    +0.000 A 
ATOM     22  C   UNL     1       1.413   9.199  18.002  0.00  0.00    +0.000 A 
ENDBRANCH  13  17
ENDBRANCH   1  14
BRANCH   7  23
ATOM     23  C   UNL     1      -6.018  13.308  22.014  0.00  0.00    +0.000 A 
ATOM     24  C   UNL     1      -6.325  12.487  23.120  0.00  0.00    +0.000 A 
ATOM     25  C   UNL     1      -7.143  12.937  24.162  0.00  0.00    +0.000 A 
ATOM     26  C   UNL     1      -7.658  14.229  24.134  0.00  0.00    +0.000 A 
ATOM     27  C   UNL     1      -7.381  15.057  23.052  0.00  0.00    +0.000 A 
ATOM     28  C   UNL     1      -6.598  14.589  21.991  0.00  0.00    +0.000 A 
ENDBRANCH   7  23
BRANCH   8  29
ATOM     29  C   UNL     1      -2.900  13.780  21.696  0.00  0.00    +0.000 A 
ATOM     30  C   UNL     1      -2.628  15.150  21.524  0.00  0.00    +0.000 A 
ATOM     31  C   UNL     1      -1.687  15.824  22.320  0.00  0.00    +0.000 A 
ATOM     32  C   UNL     1      -1.083  15.176  23.390  0.00  0.00    +0.000 A 
ATOM     33  C   UNL     1      -1.371  13.841  23.623  0.00  0.00    +0.000 A 
ATOM     34  C   UNL     1      -2.210  13.148  22.745  0.00  0.00    +0.000 A 
ENDBRANCH   8  29
TORSDOF 4
ENDMDL
