MODEL 1
REMARK VINA RESULT:      -8.0      0.000      0.000
REMARK  Name = 
REMARK  11 active torsions:
REMARK  status: ('A' for Active; 'I' for Inactive)
REMARK    1  A    between atoms: C_1  and  C_2
REMARK    2  A    between atoms: C_2  and  C_3
REMARK    3  A    between atoms: C_3  and  C_4
REMARK    4  A    between atoms: C_4  and  O_5
REMARK    5  A    between atoms: O_5  and  C_6
REMARK    6  A    between atoms: C_9  and  C_10
REMARK    7  A    between atoms: N_12  and  C_13
REMARK    8  A    between atoms: N_22  and  C_23
REMARK    9  A    between atoms: C_23  and  C_24
REMARK   10  A    between atoms: C_24  and  C_25
REMARK   11  A    between atoms: C_25  and  C_26
REMARK                            x       y       z     vdW  Elec       q    Type
REMARK                         _______ _______ _______ _____ _____    ______ ____
ROOT
ATOM      1  C   UNL     1       8.007   6.965  18.613  0.00  0.00    +0.000 A 
ATOM      2  C   UNL     1       7.505   6.000  19.563  0.00  0.00    +0.000 A 
ATOM      3  C   UNL     1       6.622   4.950  19.124  0.00  0.00    +0.000 A 
ATOM      4  C   UNL     1       6.282   4.934  17.746  0.00  0.00    +0.000 A 
ATOM      5  C   UNL     1       6.891   5.860  16.913  0.00  0.00    +0.000 A 
ATOM      6  C   UNL     1       7.725   6.806  17.299  0.00  0.00    +0.000 A 
ATOM      7  N   UNL     1       6.503   5.766  15.668  0.00  0.00    +0.000 NA
ATOM      8  C   UNL     1       5.627   4.811  15.684  0.00  0.00    +0.000 A 
ATOM      9  N   UNL     1       4.942   4.479  14.485  0.00  0.00    +0.000 N 
ATOM     10  N   UNL     1       5.423   4.222  16.929  0.00  0.00    +0.000 N 
ATOM     11  H   UNL     1       5.158   5.049  13.652  0.00  0.00    +0.000 HD
ATOM     12  H   UNL     1       4.221   3.760  14.404  0.00  0.00    +0.000 HD
ENDROOT
BRANCH   1  15
ATOM     13  C   UNL     1       8.408   9.352  18.370  0.00  0.00    +0.000 C 
ATOM     14  O   UNL     1       7.455   9.460  17.595  0.00  0.00    +0.000 OA
ATOM     15  N   UNL     1       8.733   8.140  18.920  0.00  0.00    +0.000 N 
ATOM     16  H   UNL     1       9.612   8.010  19.448  0.00  0.00    +0.000 HD
BRANCH  13  20
ATOM     17  C   UNL     1      10.574  12.981  18.937  0.00  0.00    +0.000 A 
ATOM     18  C   UNL     1      10.882  11.842  19.709  0.00  0.00    +0.000 A 
ATOM     19  C   UNL     1      10.192  10.661  19.521  0.00  0.00    +0.000 A 
ATOM     20  C   UNL     1       9.171  10.587  18.554  0.00  0.00    +0.000 A 
ATOM     21  C   UNL     1       8.865  11.712  17.790  0.00  0.00    +0.000 A 
ATOM     22  C   UNL     1       9.558  12.890  17.976  0.00  0.00    +0.000 A 
BRANCH  17  23
ATOM     23  O   UNL     1      11.235  14.152  19.124  0.00  0.00    +0.000 OA
BRANCH  23  24
ATOM     24  C   UNL     1      10.571  15.278  19.571  0.00  0.00    +0.000 C 
BRANCH  24  25
ATOM     25  C   UNL     1      11.118  15.813  20.867  0.00  0.00    +0.000 C 
BRANCH  25  27
ATOM     26  C   UNL     1      10.291  16.082  23.247  0.00  0.00    +0.000 C 
ATOM     27  C   UNL     1      10.217  15.258  21.983  0.00  0.00    +0.000 C 
ENDBRANCH  25  27
ENDBRANCH  24  25
ENDBRANCH  23  24
ENDBRANCH  17  23
ENDBRANCH  13  20
ENDBRANCH   1  15
BRANCH  10  28
ATOM     28  C   UNL     1       4.421   3.178  16.865  0.00  0.00    +0.000 C 
BRANCH  28  29
ATOM     29  C   UNL     1       3.166   2.613  17.545  0.00  0.00    +0.000 C 
BRANCH  29  30
ATOM     30  C   UNL     1       2.167   3.830  17.348  0.00  0.00    +0.000 C 
BRANCH  30  31
ATOM     31  C   UNL     1       2.128   4.897  18.370  0.00  0.00    +0.000 A 
ATOM     32  C   UNL     1       1.783   4.573  19.696  0.00  0.00    +0.000 A 
ATOM     33  C   UNL     1       1.781   5.562  20.673  0.00  0.00    +0.000 A 
ATOM     34  C   UNL     1       2.125   6.874  20.335  0.00  0.00    +0.000 A 
ATOM     35  C   UNL     1       2.493   7.188  19.022  0.00  0.00    +0.000 A 
ATOM     36  C   UNL     1       2.503   6.200  18.041  0.00  0.00    +0.000 A 
ENDBRANCH  30  31
ENDBRANCH  29  30
ENDBRANCH  28  29
ENDBRANCH  10  28
TORSDOF 10
ENDMDL
MODEL 2
REMARK VINA RESULT:      -8.0      6.002      9.219
REMARK  Name = 
REMARK  11 active torsions:
REMARK  status: ('A' for Active; 'I' for Inactive)
REMARK    1  A    between atoms: C_1  and  C_2
REMARK    2  A    between atoms: C_2  and  C_3
REMARK    3  A    between atoms: C_3  and  C_4
REMARK    4  A    between atoms: C_4  and  O_5
REMARK    5  A    between atoms: O_5  and  C_6
REMARK    6  A    between atoms: C_9  and  C_10
REMARK    7  A    between atoms: N_12  and  C_13
REMARK    8  A    between atoms: N_22  and  C_23
REMARK    9  A    between atoms: C_23  and  C_24
REMARK   10  A    between atoms: C_24  and  C_25
REMARK   11  A    between atoms: C_25  and  C_26
REMARK                            x       y       z     vdW  Elec       q    Type
REMARK                         _______ _______ _______ _____ _____    ______ ____
ROOT
ATOM      1  C   UNL     1       1.446   8.463  19.652  0.00  0.00    +0.000 A 
ATOM      2  C   UNL     1       1.715   7.248  20.384  0.00  0.00    +0.000 A 
ATOM      3  C   UNL     1       2.670   6.297  19.875  0.00  0.00    +0.000 A 
ATOM      4  C   UNL     1       3.298   6.618  18.643  0.00  0.00    +0.000 A 
ATOM      5  C   UNL     1       3.023   7.852  18.072  0.00  0.00    +0.000 A 
ATOM      6  C   UNL     1       2.175   8.743  18.547  0.00  0.00    +0.000 A 
ATOM      7  N   UNL     1       3.644   8.044  16.938  0.00  0.00    +0.000 NA
ATOM      8  C   UNL     1       4.297   6.940  16.746  0.00  0.00    +0.000 A 
ATOM      9  N   UNL     1       5.045   6.776  15.551  0.00  0.00    +0.000 N 
ATOM     10  N   UNL     1       4.154   5.991  17.754  0.00  0.00    +0.000 N 
ATOM     11  H   UNL     1       5.005   7.549  14.866  0.00  0.00    +0.000 HD
ATOM     12  H   UNL     1       5.570   5.937  15.300  0.00  0.00    +0.000 HD
ENDROOT
BRANCH   1  15
ATOM     13  C   UNL     1       0.424  10.148  21.079  0.00  0.00    +0.000 C 
ATOM     14  O   UNL     1       1.335  10.040  21.903  0.00  0.00    +0.000 OA
ATOM     15  N   UNL     1       0.422   9.398  19.932  0.00  0.00    +0.000 N 
ATOM     16  H   UNL     1      -0.405   9.371  19.312  0.00  0.00    +0.000 HD
BRANCH  13  20
ATOM     17  C   UNL     1      -2.749  12.750  22.237  0.00  0.00    +0.000 A 
ATOM     18  C   UNL     1      -2.199  11.843  23.166  0.00  0.00    +0.000 A 
ATOM     19  C   UNL     1      -1.164  11.007  22.800  0.00  0.00    +0.000 A 
ATOM     20  C   UNL     1      -0.648  11.054  21.489  0.00  0.00    +0.000 A 
ATOM     21  C   UNL     1      -1.191  11.950  20.569  0.00  0.00    +0.000 A 
ATOM     22  C   UNL     1      -2.223  12.787  20.938  0.00  0.00    +0.000 A 
BRANCH  17  23
ATOM     23  O   UNL     1      -3.778  13.566  22.581  0.00  0.00    +0.000 OA
BRANCH  23  24
ATOM     24  C   UNL     1      -5.066  13.079  22.686  0.00  0.00    +0.000 C 
BRANCH  24  25
ATOM     25  C   UNL     1      -5.629  12.601  21.375  0.00  0.00    +0.000 C 
BRANCH  25  27
ATOM     26  C   UNL     1      -7.579  11.140  20.679  0.00  0.00    +0.000 C 
ATOM     27  C   UNL     1      -7.084  12.187  21.649  0.00  0.00    +0.000 C 
ENDBRANCH  25  27
ENDBRANCH  24  25
ENDBRANCH  23  24
ENDBRANCH  17  23
ENDBRANCH  13  20
ENDBRANCH   1  15
BRANCH  10  28
ATOM     28  C   UNL     1       4.898   4.784  17.458  0.00  0.00    +0.000 C 
BRANCH  28  29
ATOM     29  C   UNL     1       5.065   3.303  17.824  0.00  0.00    +0.000 C 
BRANCH  29  30
ATOM     30  C   UNL     1       3.554   2.823  17.749  0.00  0.00    +0.000 C 
BRANCH  30  31
ATOM     31  C   UNL     1       2.740   2.829  18.983  0.00  0.00    +0.000 A 
ATOM     32  C   UNL     1       3.371   2.660  20.230  0.00  0.00    +0.000 A 
ATOM     33  C   UNL     1       2.619   2.702  21.398  0.00  0.00    +0.000 A 
ATOM     34  C   UNL     1       1.239   2.916  21.330  0.00  0.00    +0.000 A 
ATOM     35  C   UNL     1       0.618   3.110  20.091  0.00  0.00    +0.000 A 
ATOM     36  C   UNL     1       1.368   3.074  18.918  0.00  0.00    +0.000 A 
ENDBRANCH  30  31
ENDBRANCH  29  30
ENDBRANCH  28  29
ENDBRANCH  10  28
TORSDOF 10
ENDMDL
MODEL 3
REMARK VINA RESULT:      -7.9      1.330      1.980
REMARK  Name = 
REMARK  11 active torsions:
REMARK  status: ('A' for Active; 'I' for Inactive)
REMARK    1  A    between atoms: C_1  and  C_2
REMARK    2  A    between atoms: C_2  and  C_3
REMARK    3  A    between atoms: C_3  and  C_4
REMARK    4  A    between atoms: C_4  and  O_5
REMARK    5  A    between atoms: O_5  and  C_6
REMARK    6  A    between atoms: C_9  and  C_10
REMARK    7  A    between atoms: N_12  and  C_13
REMARK    8  A    between atoms: N_22  and  C_23
REMARK    9  A    between atoms: C_23  and  C_24
REMARK   10  A    between atoms: C_24  and  C_25
REMARK   11  A    between atoms: C_25  and  C_26
REMARK                            x       y       z     vdW  Elec       q    Type
REMARK                         _______ _______ _______ _____ _____    ______ ____
ROOT
ATOM      1  C   UNL     1       7.996   6.860  18.668  0.00  0.00    +0.000 A 
ATOM      2  C   UNL     1       7.298   5.947  19.542  0.00  0.00    +0.000 A 
ATOM      3  C   UNL     1       6.383   4.982  18.992  0.00  0.00    +0.000 A 
ATOM      4  C   UNL     1       6.210   4.994  17.582  0.00  0.00    +0.000 A 
ATOM      5  C   UNL     1       6.996   5.860  16.837  0.00  0.00    +0.000 A 
ATOM      6  C   UNL     1       7.860   6.726  17.329  0.00  0.00    +0.000 A 
ATOM      7  N   UNL     1       6.752   5.800  15.554  0.00  0.00    +0.000 NA
ATOM      8  C   UNL     1       5.798   4.929  15.456  0.00  0.00    +0.000 A 
ATOM      9  N   UNL     1       5.233   4.660  14.181  0.00  0.00    +0.000 N 
ATOM     10  N   UNL     1       5.394   4.363  16.662  0.00  0.00    +0.000 N 
ATOM     11  H   UNL     1       5.599   5.206  13.384  0.00  0.00    +0.000 HD
ATOM     12  H   UNL     1       4.465   4.010  14.007  0.00  0.00    +0.000 HD
ENDROOT
BRANCH   1  15
ATOM     13  C   UNL     1       8.558   9.226  18.586  0.00  0.00    +0.000 C 
ATOM     14  O   UNL     1       7.645   9.443  17.786  0.00  0.00    +0.000 OA
ATOM     15  N   UNL     1       8.784   7.964  19.071  0.00  0.00    +0.000 N 
ATOM     16  H   UNL     1       9.632   7.746  19.619  0.00  0.00    +0.000 HD
BRANCH  13  20
ATOM     17  C   UNL     1      10.933  12.675  19.392  0.00  0.00    +0.000 A 
ATOM     18  C   UNL     1      10.395  11.919  20.454  0.00  0.00    +0.000 A 
ATOM     19  C   UNL     1       9.635  10.795  20.198  0.00  0.00    +0.000 A 
ATOM     20  C   UNL     1       9.392  10.394  18.870  0.00  0.00    +0.000 A 
ATOM     21  C   UNL     1       9.923  11.141  17.819  0.00  0.00    +0.000 A 
ATOM     22  C   UNL     1      10.685  12.262  18.076  0.00  0.00    +0.000 A 
BRANCH  17  23
ATOM     23  O   UNL     1      11.668  13.791  19.630  0.00  0.00    +0.000 OA
BRANCH  23  24
ATOM     24  C   UNL     1      11.113  14.884  20.268  0.00  0.00    +0.000 C 
BRANCH  24  25
ATOM     25  C   UNL     1       9.937  15.466  19.531  0.00  0.00    +0.000 C 
BRANCH  25  27
ATOM     26  C   UNL     1       9.724  17.464  17.988  0.00  0.00    +0.000 C 
ATOM     27  C   UNL     1      10.510  16.218  18.319  0.00  0.00    +0.000 C 
ENDBRANCH  25  27
ENDBRANCH  24  25
ENDBRANCH  23  24
ENDBRANCH  17  23
ENDBRANCH  13  20
ENDBRANCH   1  15
BRANCH  10  28
ATOM     28  C   UNL     1       4.315   3.415  16.469  0.00  0.00    +0.000 C 
BRANCH  28  29
ATOM     29  C   UNL     1       2.815   3.173  16.688  0.00  0.00    +0.000 C 
BRANCH  29  30
ATOM     30  C   UNL     1       2.538   4.186  17.877  0.00  0.00    +0.000 C 
BRANCH  30  31
ATOM     31  C   UNL     1       2.361   3.653  19.245  0.00  0.00    +0.000 A 
ATOM     32  C   UNL     1       1.079   3.656  19.829  0.00  0.00    +0.000 A 
ATOM     33  C   UNL     1       0.895   3.122  21.098  0.00  0.00    +0.000 A 
ATOM     34  C   UNL     1       1.982   2.579  21.789  0.00  0.00    +0.000 A 
ATOM     35  C   UNL     1       3.249   2.552  21.196  0.00  0.00    +0.000 A 
ATOM     36  C   UNL     1       3.439   3.081  19.922  0.00  0.00    +0.000 A 
ENDBRANCH  30  31
ENDBRANCH  29  30
ENDBRANCH  28  29
ENDBRANCH  10  28
TORSDOF 10
ENDMDL
MODEL 4
REMARK VINA RESULT:      -7.8      0.792      1.393
REMARK  Name = 
REMARK  11 active torsions:
REMARK  status: ('A' for Active; 'I' for Inactive)
REMARK    1  A    between atoms: C_1  and  C_2
REMARK    2  A    between atoms: C_2  and  C_3
REMARK    3  A    between atoms: C_3  and  C_4
REMARK    4  A    between atoms: C_4  and  O_5
REMARK    5  A    between atoms: O_5  and  C_6
REMARK    6  A    between atoms: C_9  and  C_10
REMARK    7  A    between atoms: N_12  and  C_13
REMARK    8  A    between atoms: N_22  and  C_23
REMARK    9  A    between atoms: C_23  and  C_24
REMARK   10  A    between atoms: C_24  and  C_25
REMARK   11  A    between atoms: C_25  and  C_26
REMARK                            x       y       z     vdW  Elec       q    Type
REMARK                         _______ _______ _______ _____ _____    ______ ____
ROOT
ATOM      1  C   UNL     1       7.966   6.855  18.698  0.00  0.00    +0.000 A 
ATOM      2  C   UNL     1       7.229   6.011  19.609  0.00  0.00    +0.000 A 
ATOM      3  C   UNL     1       6.275   5.062  19.097  0.00  0.00    +0.000 A 
ATOM      4  C   UNL     1       6.105   5.020  17.688  0.00  0.00    +0.000 A 
ATOM      5  C   UNL     1       6.927   5.819  16.908  0.00  0.00    +0.000 A 
ATOM      6  C   UNL     1       7.827   6.668  17.365  0.00  0.00    +0.000 A 
ATOM      7  N   UNL     1       6.683   5.713  15.628  0.00  0.00    +0.000 NA
ATOM      8  C   UNL     1       5.693   4.879  15.565  0.00  0.00    +0.000 A 
ATOM      9  N   UNL     1       5.119   4.578  14.302  0.00  0.00    +0.000 N 
ATOM     10  N   UNL     1       5.264   4.383  16.793  0.00  0.00    +0.000 N 
ATOM     11  H   UNL     1       5.509   5.074  13.483  0.00  0.00    +0.000 HD
ATOM     12  H   UNL     1       4.325   3.954  14.154  0.00  0.00    +0.000 HD
ENDROOT
BRANCH   1  15
ATOM     13  C   UNL     1       8.573   9.208  18.582  0.00  0.00    +0.000 C 
ATOM     14  O   UNL     1       7.620   9.445  17.836  0.00  0.00    +0.000 OA
ATOM     15  N   UNL     1       8.799   7.942  19.054  0.00  0.00    +0.000 N 
ATOM     16  H   UNL     1       9.672   7.705  19.553  0.00  0.00    +0.000 HD
BRANCH  13  20
ATOM     17  C   UNL     1      11.168  12.516  19.295  0.00  0.00    +0.000 A 
ATOM     18  C   UNL     1      10.924  12.076  17.978  0.00  0.00    +0.000 A 
ATOM     19  C   UNL     1      10.075  11.013  17.741  0.00  0.00    +0.000 A 
ATOM     20  C   UNL     1       9.446  10.358  18.818  0.00  0.00    +0.000 A 
ATOM     21  C   UNL     1       9.686  10.792  20.121  0.00  0.00    +0.000 A 
ATOM     22  C   UNL     1      10.532  11.856  20.356  0.00  0.00    +0.000 A 
BRANCH  17  23
ATOM     23  O   UNL     1      12.013  13.549  19.542  0.00  0.00    +0.000 OA
BRANCH  23  24
ATOM     24  C   UNL     1      11.836  14.774  18.926  0.00  0.00    +0.000 C 
BRANCH  24  25
ATOM     25  C   UNL     1      10.725  15.587  19.531  0.00  0.00    +0.000 C 
BRANCH  25  27
ATOM     26  C   UNL     1      11.288  17.261  21.349  0.00  0.00    +0.000 C 
ATOM     27  C   UNL     1      11.095  15.802  21.008  0.00  0.00    +0.000 C 
ENDBRANCH  25  27
ENDBRANCH  24  25
ENDBRANCH  23  24
ENDBRANCH  17  23
ENDBRANCH  13  20
ENDBRANCH   1  15
BRANCH  10  28
ATOM     28  C   UNL     1       4.147   3.474  16.639  0.00  0.00    +0.000 C 
BRANCH  28  29
ATOM     29  C   UNL     1       2.685   3.218  17.032  0.00  0.00    +0.000 C 
BRANCH  29  30
ATOM     30  C   UNL     1       2.751   3.544  18.584  0.00  0.00    +0.000 C 
BRANCH  30  31
ATOM     31  C   UNL     1       2.505   4.930  19.035  0.00  0.00    +0.000 A 
ATOM     32  C   UNL     1       2.652   5.992  18.121  0.00  0.00    +0.000 A 
ATOM     33  C   UNL     1       2.386   7.296  18.525  0.00  0.00    +0.000 A 
ATOM     34  C   UNL     1       1.970   7.546  19.836  0.00  0.00    +0.000 A 
ATOM     35  C   UNL     1       1.800   6.487  20.734  0.00  0.00    +0.000 A 
ATOM     36  C   UNL     1       2.059   5.179  20.333  0.00  0.00    +0.000 A 
ENDBRANCH  30  31
ENDBRANCH  29  30
ENDBRANCH  28  29
ENDBRANCH  10  28
TORSDOF 10
ENDMDL
MODEL 5
REMARK VINA RESULT:      -7.8      1.109      1.911
REMARK  Name = 
REMARK  11 active torsions:
REMARK  status: ('A' for Active; 'I' for Inactive)
REMARK    1  A    between atoms: C_1  and  C_2
REMARK    2  A    between atoms: C_2  and  C_3
REMARK    3  A    between atoms: C_3  and  C_4
REMARK    4  A    between atoms: C_4  and  O_5
REMARK    5  A    between atoms: O_5  and  C_6
REMARK    6  A    between atoms: C_9  and  C_10
REMARK    7  A    between atoms: N_12  and  C_13
REMARK    8  A    between atoms: N_22  and  C_23
REMARK    9  A    between atoms: C_23  and  C_24
REMARK   10  A    between atoms: C_24  and  C_25
REMARK   11  A    between atoms: C_25  and  C_26
REMARK                            x       y       z     vdW  Elec       q    Type
REMARK                         _______ _______ _______ _____ _____    ______ ____
ROOT
ATOM      1  C   UNL     1       7.941   6.774  18.613  0.00  0.00    +0.000 A 
ATOM      2  C   UNL     1       7.225   5.840  19.450  0.00  0.00    +0.000 A 
ATOM      3  C   UNL     1       6.348   4.866  18.854  0.00  0.00    +0.000 A 
ATOM      4  C   UNL     1       6.230   4.890  17.440  0.00  0.00    +0.000 A 
ATOM      5  C   UNL     1       7.029   5.777  16.734  0.00  0.00    +0.000 A 
ATOM      6  C   UNL     1       7.860   6.651  17.268  0.00  0.00    +0.000 A 
ATOM      7  N   UNL     1       6.837   5.726  15.442  0.00  0.00    +0.000 NA
ATOM      8  C   UNL     1       5.902   4.840  15.298  0.00  0.00    +0.000 A 
ATOM      9  N   UNL     1       5.392   4.576  14.000  0.00  0.00    +0.000 N 
ATOM     10  N   UNL     1       5.461   4.255  16.482  0.00  0.00    +0.000 N 
ATOM     11  H   UNL     1       5.780   5.136  13.223  0.00  0.00    +0.000 HD
ATOM     12  H   UNL     1       4.642   3.915  13.789  0.00  0.00    +0.000 HD
ENDROOT
BRANCH   1  15
ATOM     13  C   UNL     1       8.493   9.142  18.547  0.00  0.00    +0.000 C 
ATOM     14  O   UNL     1       7.633   9.346  17.688  0.00  0.00    +0.000 OA
ATOM     15  N   UNL     1       8.694   7.886  19.057  0.00  0.00    +0.000 N 
ATOM     16  H   UNL     1       9.506   7.678  19.662  0.00  0.00    +0.000 HD
BRANCH  13  20
ATOM     17  C   UNL     1      10.894  12.527  19.529  0.00  0.00    +0.000 A 
ATOM     18  C   UNL     1      10.711  12.153  18.182  0.00  0.00    +0.000 A 
ATOM     19  C   UNL     1       9.925  11.065  17.858  0.00  0.00    +0.000 A 
ATOM     20  C   UNL     1       9.299  10.318  18.875  0.00  0.00    +0.000 A 
ATOM     21  C   UNL     1       9.480  10.687  20.208  0.00  0.00    +0.000 A 
ATOM     22  C   UNL     1      10.262  11.776  20.530  0.00  0.00    +0.000 A 
BRANCH  17  23
ATOM     23  O   UNL     1      11.677  13.584  19.861  0.00  0.00    +0.000 OA
BRANCH  23  24
ATOM     24  C   UNL     1      11.120  14.786  20.255  0.00  0.00    +0.000 C 
BRANCH  24  25
ATOM     25  C   UNL     1      10.779  15.688  19.100  0.00  0.00    +0.000 C 
BRANCH  25  27
ATOM     26  C   UNL     1       8.473  15.513  18.063  0.00  0.00    +0.000 C 
ATOM     27  C   UNL     1       9.284  16.020  19.232  0.00  0.00    +0.000 C 
ENDBRANCH  25  27
ENDBRANCH  24  25
ENDBRANCH  23  24
ENDBRANCH  17  23
ENDBRANCH  13  20
ENDBRANCH   1  15
BRANCH  10  28
ATOM     28  C   UNL     1       4.407   3.292  16.238  0.00  0.00    +0.000 C 
BRANCH  28  29
ATOM     29  C   UNL     1       3.055   2.770  16.744  0.00  0.00    +0.000 C 
BRANCH  29  30
ATOM     30  C   UNL     1       3.423   2.457  18.256  0.00  0.00    +0.000 C 
BRANCH  30  31
ATOM     31  C   UNL     1       2.912   3.351  19.316  0.00  0.00    +0.000 A 
ATOM     32  C   UNL     1       2.702   4.714  19.032  0.00  0.00    +0.000 A 
ATOM     33  C   UNL     1       2.185   5.555  20.011  0.00  0.00    +0.000 A 
ATOM     34  C   UNL     1       1.871   5.042  21.273  0.00  0.00    +0.000 A 
ATOM     35  C   UNL     1       2.056   3.682  21.544  0.00  0.00    +0.000 A 
ATOM     36  C   UNL     1       2.568   2.834  20.566  0.00  0.00    +0.000 A 
ENDBRANCH  30  31
ENDBRANCH  29  30
ENDBRANCH  28  29
ENDBRANCH  10  28
TORSDOF 10
ENDMDL
MODEL 6
REMARK VINA RESULT:      -7.8      6.118      9.264
REMARK  Name = 
REMARK  11 active torsions:
REMARK  status: ('A' for Active; 'I' for Inactive)
REMARK    1  A    between atoms: C_1  and  C_2
REMARK    2  A    between atoms: C_2  and  C_3
REMARK    3  A    between atoms: C_3  and  C_4
REMARK    4  A    between atoms: C_4  and  O_5
REMARK    5  A    between atoms: O_5  and  C_6
REMARK    6  A    between atoms: C_9  and  C_10
REMARK    7  A    between atoms: N_12  and  C_13
REMARK    8  A    between atoms: N_22  and  C_23
REMARK    9  A    between atoms: C_23  and  C_24
REMARK   10  A    between atoms: C_24  and  C_25
REMARK   11  A    between atoms: C_25  and  C_26
REMARK                            x       y       z     vdW  Elec       q    Type
REMARK                         _______ _______ _______ _____ _____    ______ ____
ROOT
ATOM      1  C   UNL     1       1.996   7.517  19.776  0.00  0.00    +0.000 A 
ATOM      2  C   UNL     1       2.632   7.935  18.549  0.00  0.00    +0.000 A 
ATOM      3  C   UNL     1       3.561   7.058  17.885  0.00  0.00    +0.000 A 
ATOM      4  C   UNL     1       3.809   5.803  18.502  0.00  0.00    +0.000 A 
ATOM      5  C   UNL     1       3.078   5.477  19.634  0.00  0.00    +0.000 A 
ATOM      6  C   UNL     1       2.201   6.260  20.232  0.00  0.00    +0.000 A 
ATOM      7  N   UNL     1       3.389   4.307  20.128  0.00  0.00    +0.000 NA
ATOM      8  C   UNL     1       4.334   3.879  19.351  0.00  0.00    +0.000 A 
ATOM      9  N   UNL     1       4.963   2.640  19.641  0.00  0.00    +0.000 N 
ATOM     10  N   UNL     1       4.665   4.734  18.303  0.00  0.00    +0.000 N 
ATOM     11  H   UNL     1       4.648   2.146  20.493  0.00  0.00    +0.000 HD
ATOM     12  H   UNL     1       5.729   2.232  19.103  0.00  0.00    +0.000 HD
ENDROOT
BRANCH   1  15
ATOM     13  C   UNL     1       0.528   9.421  20.152  0.00  0.00    +0.000 C 
ATOM     14  O   UNL     1       0.578   9.729  18.958  0.00  0.00    +0.000 OA
ATOM     15  N   UNL     1       1.204   8.327  20.624  0.00  0.00    +0.000 N 
ATOM     16  H   UNL     1       1.290   8.148  21.639  0.00  0.00    +0.000 HD
BRANCH  13  20
ATOM     17  C   UNL     1      -1.597  12.189  22.602  0.00  0.00    +0.000 A 
ATOM     18  C   UNL     1      -1.333  12.494  21.251  0.00  0.00    +0.000 A 
ATOM     19  C   UNL     1      -0.656  11.596  20.450  0.00  0.00    +0.000 A 
ATOM     20  C   UNL     1      -0.222  10.365  20.980  0.00  0.00    +0.000 A 
ATOM     21  C   UNL     1      -0.482  10.062  22.316  0.00  0.00    +0.000 A 
ATOM     22  C   UNL     1      -1.161  10.959  23.114  0.00  0.00    +0.000 A 
BRANCH  17  23
ATOM     23  O   UNL     1      -2.247  13.070  23.404  0.00  0.00    +0.000 OA
BRANCH  23  24
ATOM     24  C   UNL     1      -3.627  13.130  23.421  0.00  0.00    +0.000 C 
BRANCH  24  25
ATOM     25  C   UNL     1      -4.191  14.107  22.426  0.00  0.00    +0.000 C 
BRANCH  25  27
ATOM     26  C   UNL     1      -5.147  12.414  20.801  0.00  0.00    +0.000 C 
ATOM     27  C   UNL     1      -5.459  13.459  21.846  0.00  0.00    +0.000 C 
ENDBRANCH  25  27
ENDBRANCH  24  25
ENDBRANCH  23  24
ENDBRANCH  17  23
ENDBRANCH  13  20
ENDBRANCH   1  15
BRANCH  10  28
ATOM     28  C   UNL     1       5.737   4.193  17.493  0.00  0.00    +0.000 C 
BRANCH  28  29
ATOM     29  C   UNL     1       7.049   4.536  16.775  0.00  0.00    +0.000 C 
BRANCH  29  30
ATOM     30  C   UNL     1       6.488   5.378  15.552  0.00  0.00    +0.000 C 
BRANCH  30  31
ATOM     31  C   UNL     1       6.532   4.789  14.197  0.00  0.00    +0.000 A 
ATOM     32  C   UNL     1       7.573   5.147  13.319  0.00  0.00    +0.000 A 
ATOM     33  C   UNL     1       7.645   4.570  12.057  0.00  0.00    +0.000 A 
ATOM     34  C   UNL     1       6.684   3.632  11.666  0.00  0.00    +0.000 A 
ATOM     35  C   UNL     1       5.666   3.258  12.550  0.00  0.00    +0.000 A 
ATOM     36  C   UNL     1       5.593   3.829  13.818  0.00  0.00    +0.000 A 
ENDBRANCH  30  31
ENDBRANCH  29  30
ENDBRANCH  28  29
ENDBRANCH  10  28
TORSDOF 10
ENDMDL
MODEL 7
REMARK VINA RESULT:      -7.8      6.026      9.265
REMARK  Name = 
REMARK  11 active torsions:
REMARK  status: ('A' for Active; 'I' for Inactive)
REMARK    1  A    between atoms: C_1  and  C_2
REMARK    2  A    between atoms: C_2  and  C_3
REMARK    3  A    between atoms: C_3  and  C_4
REMARK    4  A    between atoms: C_4  and  O_5
REMARK    5  A    between atoms: O_5  and  C_6
REMARK    6  A    between atoms: C_9  and  C_10
REMARK    7  A    between atoms: N_12  and  C_13
REMARK    8  A    between atoms: N_22  and  C_23
REMARK    9  A    between atoms: C_23  and  C_24
REMARK   10  A    between atoms: C_24  and  C_25
REMARK   11  A    between atoms: C_25  and  C_26
REMARK                            x       y       z     vdW  Elec       q    Type
REMARK                         _______ _______ _______ _____ _____    ______ ____
ROOT
ATOM      1  C   UNL     1       1.323   8.461  19.761  0.00  0.00    +0.000 A 
ATOM      2  C   UNL     1       1.578   7.221  20.455  0.00  0.00    +0.000 A 
ATOM      3  C   UNL     1       2.532   6.282  19.923  0.00  0.00    +0.000 A 
ATOM      4  C   UNL     1       3.173   6.640  18.708  0.00  0.00    +0.000 A 
ATOM      5  C   UNL     1       2.911   7.894  18.176  0.00  0.00    +0.000 A 
ATOM      6  C   UNL     1       2.063   8.774  18.673  0.00  0.00    +0.000 A 
ATOM      7  N   UNL     1       3.543   8.120  17.054  0.00  0.00    +0.000 NA
ATOM      8  C   UNL     1       4.191   7.020  16.832  0.00  0.00    +0.000 A 
ATOM      9  N   UNL     1       4.949   6.891  15.638  0.00  0.00    +0.000 N 
ATOM     10  N   UNL     1       4.033   6.038  17.807  0.00  0.00    +0.000 N 
ATOM     11  H   UNL     1       4.919   7.686  14.980  0.00  0.00    +0.000 HD
ATOM     12  H   UNL     1       5.472   6.058  15.365  0.00  0.00    +0.000 HD
ENDROOT
BRANCH   1  15
ATOM     13  C   UNL     1       0.354  10.182  21.181  0.00  0.00    +0.000 C 
ATOM     14  O   UNL     1       1.309  10.116  21.959  0.00  0.00    +0.000 OA
ATOM     15  N   UNL     1       0.301   9.392  20.063  0.00  0.00    +0.000 N 
ATOM     16  H   UNL     1      -0.557   9.332  19.490  0.00  0.00    +0.000 HD
BRANCH  13  20
ATOM     17  C   UNL     1      -2.695  12.859  22.495  0.00  0.00    +0.000 A 
ATOM     18  C   UNL     1      -2.173  12.963  21.189  0.00  0.00    +0.000 A 
ATOM     19  C   UNL     1      -1.194  12.091  20.755  0.00  0.00    +0.000 A 
ATOM     20  C   UNL     1      -0.708  11.089  21.617  0.00  0.00    +0.000 A 
ATOM     21  C   UNL     1      -1.223  10.985  22.909  0.00  0.00    +0.000 A 
ATOM     22  C   UNL     1      -2.203  11.855  23.340  0.00  0.00    +0.000 A 
BRANCH  17  23
ATOM     23  O   UNL     1      -3.646  13.720  22.938  0.00  0.00    +0.000 OA
BRANCH  23  24
ATOM     24  C   UNL     1      -4.962  13.320  23.069  0.00  0.00    +0.000 C 
BRANCH  24  25
ATOM     25  C   UNL     1      -5.775  13.540  21.822  0.00  0.00    +0.000 C 
BRANCH  25  27
ATOM     26  C   UNL     1      -7.736  12.277  22.812  0.00  0.00    +0.000 C 
ATOM     27  C   UNL     1      -6.718  12.332  21.698  0.00  0.00    +0.000 C 
ENDBRANCH  25  27
ENDBRANCH  24  25
ENDBRANCH  23  24
ENDBRANCH  17  23
ENDBRANCH  13  20
ENDBRANCH   1  15
BRANCH  10  28
ATOM     28  C   UNL     1       4.773   4.837  17.477  0.00  0.00    +0.000 C 
BRANCH  28  29
ATOM     29  C   UNL     1       5.259   3.486  18.019  0.00  0.00    +0.000 C 
BRANCH  29  30
ATOM     30  C   UNL     1       3.904   2.662  17.975  0.00  0.00    +0.000 C 
BRANCH  30  31
ATOM     31  C   UNL     1       2.957   2.782  19.104  0.00  0.00    +0.000 A 
ATOM     32  C   UNL     1       1.582   2.936  18.841  0.00  0.00    +0.000 A 
ATOM     33  C   UNL     1       0.679   3.011  19.895  0.00  0.00    +0.000 A 
ATOM     34  C   UNL     1       1.140   2.927  21.213  0.00  0.00    +0.000 A 
ATOM     35  C   UNL     1       2.504   2.747  21.470  0.00  0.00    +0.000 A 
ATOM     36  C   UNL     1       3.412   2.666  20.418  0.00  0.00    +0.000 A 
ENDBRANCH  30  31
ENDBRANCH  29  30
ENDBRANCH  28  29
ENDBRANCH  10  28
TORSDOF 10
ENDMDL
MODEL 8
REMARK VINA RESULT:      -7.7      5.211      8.677
REMARK  Name = 
REMARK  11 active torsions:
REMARK  status: ('A' for Active; 'I' for Inactive)
REMARK    1  A    between atoms: C_1  and  C_2
REMARK    2  A    between atoms: C_2  and  C_3
REMARK    3  A    between atoms: C_3  and  C_4
REMARK    4  A    between atoms: C_4  and  O_5
REMARK    5  A    between atoms: O_5  and  C_6
REMARK    6  A    between atoms: C_9  and  C_10
REMARK    7  A    between atoms: N_12  and  C_13
REMARK    8  A    between atoms: N_22  and  C_23
REMARK    9  A    between atoms: C_23  and  C_24
REMARK   10  A    between atoms: C_24  and  C_25
REMARK   11  A    between atoms: C_25  and  C_26
REMARK                            x       y       z     vdW  Elec       q    Type
REMARK                         _______ _______ _______ _____ _____    ______ ____
ROOT
ATOM      1  C   UNL     1       1.897   7.873  19.674  0.00  0.00    +0.000 A 
ATOM      2  C   UNL     1       2.473   8.219  18.396  0.00  0.00    +0.000 A 
ATOM      3  C   UNL     1       3.102   7.203  17.592  0.00  0.00    +0.000 A 
ATOM      4  C   UNL     1       3.127   5.887  18.126  0.00  0.00    +0.000 A 
ATOM      5  C   UNL     1       2.469   5.658  19.325  0.00  0.00    +0.000 A 
ATOM      6  C   UNL     1       1.862   6.575  20.053  0.00  0.00    +0.000 A 
ATOM      7  N   UNL     1       2.560   4.419  19.733  0.00  0.00    +0.000 NA
ATOM      8  C   UNL     1       3.294   3.845  18.832  0.00  0.00    +0.000 A 
ATOM      9  N   UNL     1       3.654   2.482  18.997  0.00  0.00    +0.000 N 
ATOM     10  N   UNL     1       3.692   4.672  17.785  0.00  0.00    +0.000 N 
ATOM     11  H   UNL     1       3.331   2.016  19.860  0.00  0.00    +0.000 HD
ATOM     12  H   UNL     1       4.246   1.951  18.355  0.00  0.00    +0.000 HD
ENDROOT
BRANCH   1  15
ATOM     13  C   UNL     1       0.439   9.704  20.339  0.00  0.00    +0.000 C 
ATOM     14  O   UNL     1      -0.047   9.763  19.207  0.00  0.00    +0.000 OA
ATOM     15  N   UNL     1       1.405   8.781  20.641  0.00  0.00    +0.000 N 
ATOM     16  H   UNL     1       1.922   8.820  21.536  0.00  0.00    +0.000 HD
BRANCH  13  20
ATOM     17  C   UNL     1      -1.015  12.749  22.946  0.00  0.00    +0.000 A 
ATOM     18  C   UNL     1      -1.296  11.393  23.212  0.00  0.00    +0.000 A 
ATOM     19  C   UNL     1      -0.818  10.402  22.377  0.00  0.00    +0.000 A 
ATOM     20  C   UNL     1      -0.043  10.741  21.250  0.00  0.00    +0.000 A 
ATOM     21  C   UNL     1       0.236  12.082  20.987  0.00  0.00    +0.000 A 
ATOM     22  C   UNL     1      -0.240  13.070  21.823  0.00  0.00    +0.000 A 
BRANCH  17  23
ATOM     23  O   UNL     1      -1.493  13.732  23.750  0.00  0.00    +0.000 OA
BRANCH  23  24
ATOM     24  C   UNL     1      -2.567  14.509  23.360  0.00  0.00    +0.000 C 
BRANCH  24  25
ATOM     25  C   UNL     1      -3.532  13.780  22.466  0.00  0.00    +0.000 C 
BRANCH  25  27
ATOM     26  C   UNL     1      -5.919  12.933  22.563  0.00  0.00    +0.000 C 
ATOM     27  C   UNL     1      -4.695  13.322  23.360  0.00  0.00    +0.000 C 
ENDBRANCH  25  27
ENDBRANCH  24  25
ENDBRANCH  23  24
ENDBRANCH  17  23
ENDBRANCH  13  20
ENDBRANCH   1  15
BRANCH  10  28
ATOM     28  C   UNL     1       4.520   3.962  16.832  0.00  0.00    +0.000 C 
BRANCH  28  29
ATOM     29  C   UNL     1       5.223   4.067  15.471  0.00  0.00    +0.000 C 
BRANCH  29  30
ATOM     30  C   UNL     1       6.738   4.120  15.941  0.00  0.00    +0.000 C 
BRANCH  30  31
ATOM     31  C   UNL     1       7.151   5.159  16.909  0.00  0.00    +0.000 A 
ATOM     32  C   UNL     1       7.648   4.773  18.168  0.00  0.00    +0.000 A 
ATOM     33  C   UNL     1       8.076   5.740  19.071  0.00  0.00    +0.000 A 
ATOM     34  C   UNL     1       8.014   7.092  18.721  0.00  0.00    +0.000 A 
ATOM     35  C   UNL     1       7.545   7.471  17.459  0.00  0.00    +0.000 A 
ATOM     36  C   UNL     1       7.121   6.506  16.549  0.00  0.00    +0.000 A 
ENDBRANCH  30  31
ENDBRANCH  29  30
ENDBRANCH  28  29
ENDBRANCH  10  28
TORSDOF 10
ENDMDL
MODEL 9
REMARK VINA RESULT:      -7.7      5.997      9.191
REMARK  Name = 
REMARK  11 active torsions:
REMARK  status: ('A' for Active; 'I' for Inactive)
REMARK    1  A    between atoms: C_1  and  C_2
REMARK    2  A    between atoms: C_2  and  C_3
REMARK    3  A    between atoms: C_3  and  C_4
REMARK    4  A    between atoms: C_4  and  O_5
REMARK    5  A    between atoms: O_5  and  C_6
REMARK    6  A    between atoms: C_9  and  C_10
REMARK    7  A    between atoms: N_12  and  C_13
REMARK    8  A    between atoms: N_22  and  C_23
REMARK    9  A    between atoms: C_23  and  C_24
REMARK   10  A    between atoms: C_24  and  C_25
REMARK   11  A    between atoms: C_25  and  C_26
REMARK                            x       y       z     vdW  Elec       q    Type
REMARK                         _______ _______ _______ _____ _____    ______ ____
ROOT
ATOM      1  C   UNL     1       2.134   7.906  19.196  0.00  0.00    +0.000 A 
ATOM      2  C   UNL     1       2.895   8.195  18.003  0.00  0.00    +0.000 A 
ATOM      3  C   UNL     1       3.845   7.234  17.505  0.00  0.00    +0.000 A 
ATOM      4  C   UNL     1       3.986   6.031  18.245  0.00  0.00    +0.000 A 
ATOM      5  C   UNL     1       3.142   5.827  19.327  0.00  0.00    +0.000 A 
ATOM      6  C   UNL     1       2.247   6.687  19.772  0.00  0.00    +0.000 A 
ATOM      7  N   UNL     1       3.360   4.696  19.944  0.00  0.00    +0.000 NA
ATOM      8  C   UNL     1       4.354   4.172  19.297  0.00  0.00    +0.000 A 
ATOM      9  N   UNL     1       4.904   2.943  19.748  0.00  0.00    +0.000 N 
ATOM     10  N   UNL     1       4.812   4.922  18.218  0.00  0.00    +0.000 N 
ATOM     11  H   UNL     1       4.494   2.536  20.604  0.00  0.00    +0.000 HD
ATOM     12  H   UNL     1       5.699   2.466  19.320  0.00  0.00    +0.000 HD
ENDROOT
BRANCH   1  15
ATOM     13  C   UNL     1       0.503   9.711  19.239  0.00  0.00    +0.000 C 
ATOM     14  O   UNL     1       0.474   9.751  18.007  0.00  0.00    +0.000 OA
ATOM     15  N   UNL     1       1.301   8.811  19.895  0.00  0.00    +0.000 N 
ATOM     16  H   UNL     1       1.445   8.869  20.917  0.00  0.00    +0.000 HD
BRANCH  13  20
ATOM     17  C   UNL     1      -1.789  12.774  21.123  0.00  0.00    +0.000 A 
ATOM     18  C   UNL     1      -2.096  12.364  19.810  0.00  0.00    +0.000 A 
ATOM     19  C   UNL     1      -1.365  11.364  19.199  0.00  0.00    +0.000 A 
ATOM     20  C   UNL     1      -0.302  10.746  19.888  0.00  0.00    +0.000 A 
ATOM     21  C   UNL     1       0.003  11.151  21.187  0.00  0.00    +0.000 A 
ATOM     22  C   UNL     1      -0.731  12.147  21.796  0.00  0.00    +0.000 A 
BRANCH  17  23
ATOM     23  O   UNL     1      -2.490  13.767  21.728  0.00  0.00    +0.000 OA
BRANCH  23  24
ATOM     24  C   UNL     1      -3.868  13.818  21.640  0.00  0.00    +0.000 C 
BRANCH  24  25
ATOM     25  C   UNL     1      -4.553  12.753  22.451  0.00  0.00    +0.000 C 
BRANCH  25  27
ATOM     26  C   UNL     1      -6.134  14.350  23.623  0.00  0.00    +0.000 C 
ATOM     27  C   UNL     1      -4.962  13.411  23.780  0.00  0.00    +0.000 C 
ENDBRANCH  25  27
ENDBRANCH  24  25
ENDBRANCH  23  24
ENDBRANCH  17  23
ENDBRANCH  13  20
ENDBRANCH   1  15
BRANCH  10  28
ATOM     28  C   UNL     1       5.932   4.279  17.560  0.00  0.00    +0.000 C 
BRANCH  28  29
ATOM     29  C   UNL     1       7.262   4.529  16.837  0.00  0.00    +0.000 C 
BRANCH  29  30
ATOM     30  C   UNL     1       6.757   5.401  15.612  0.00  0.00    +0.000 C 
BRANCH  30  31
ATOM     31  C   UNL     1       6.722   4.792  14.265  0.00  0.00    +0.000 A 
ATOM     32  C   UNL     1       5.717   3.856  13.954  0.00  0.00    +0.000 A 
ATOM     33  C   UNL     1       5.653   3.307  12.679  0.00  0.00    +0.000 A 
ATOM     34  C   UNL     1       6.584   3.689  11.710  0.00  0.00    +0.000 A 
ATOM     35  C   UNL     1       7.566   4.639  12.013  0.00  0.00    +0.000 A 
ATOM     36  C   UNL     1       7.631   5.197  13.287  0.00  0.00    +0.000 A 
ENDBRANCH  30  31
ENDBRANCH  29  30
ENDBRANCH  28  29
ENDBRANCH  10  28
TORSDOF 10
ENDMDL
