MODEL 1
REMARK VINA RESULT:      -8.3      0.000      0.000
REMARK  Name = 
REMARK  12 active torsions:
REMARK  status: ('A' for Active; 'I' for Inactive)
REMARK    1  A    between atoms: C_1  and  C_2
REMARK    2  A    between atoms: C_2  and  C_3
REMARK    3  A    between atoms: C_3  and  C_4
REMARK    4  A    between atoms: C_4  and  C_5
REMARK    5  A    between atoms: C_5  and  C_6
REMARK    6  A    between atoms: C_6  and  N_7
REMARK    7  A    between atoms: C_9  and  C_10
REMARK    8  A    between atoms: C_10  and  O_11
REMARK    9  A    between atoms: O_11  and  C_12
REMARK   10  A    between atoms: C_15  and  C_16
REMARK   11  A    between atoms: C_18  and  C_19
REMARK   12  A    between atoms: C_30  and  O_31
REMARK                            x       y       z     vdW  Elec       q    Type
REMARK                         _______ _______ _______ _____ _____    ______ ____
ROOT
ATOM      1  C   UNL     1       2.486   6.716  19.249  0.00  0.00    +0.000 A 
ATOM      2  C   UNL     1       1.917   7.055  20.471  0.00  0.00    +0.000 A 
ATOM      3  C   UNL     1       1.303   8.294  20.630  0.00  0.00    +0.000 A 
ATOM      4  C   UNL     1       1.244   9.231  19.580  0.00  0.00    +0.000 A 
ATOM      5  C   UNL     1       1.911   8.896  18.388  0.00  0.00    +0.000 A 
ATOM      6  C   UNL     1       2.519   7.652  18.217  0.00  0.00    +0.000 A 
ENDROOT
BRANCH   4   7
ATOM      7  C   UNL     1       0.449  10.462  19.734  0.00  0.00    +0.000 A 
ATOM      8  C   UNL     1      -0.882  10.498  19.371  0.00  0.00    +0.000 A 
ATOM      9  C   UNL     1      -1.534  11.707  19.463  0.00  0.00    +0.000 A 
ATOM     10  N   UNL     1      -0.911  12.802  19.949  0.00  0.00    +0.000 NA
ATOM     11  C   UNL     1       0.371  12.673  20.302  0.00  0.00    +0.000 A 
ATOM     12  N   UNL     1       1.008  13.791  20.793  0.00  0.00    +0.000 N 
ATOM     13  N   UNL     1       1.098  11.561  20.173  0.00  0.00    +0.000 NA
ATOM     14  H   UNL     1       0.537  14.630  20.484  0.00  0.00    +0.000 HD
ATOM     15  H   UNL     1       2.005  13.739  20.655  0.00  0.00    +0.000 HD
BRANCH   9  16
ATOM     16  C   UNL     1      -2.928  11.870  19.004  0.00  0.00    +0.000 A 
ATOM     17  C   UNL     1      -3.909  12.429  19.841  0.00  0.00    +0.000 A 
ATOM     18  C   UNL     1      -5.228  12.594  19.402  0.00  0.00    +0.000 A 
ATOM     19  C   UNL     1      -5.589  12.201  18.115  0.00  0.00    +0.000 A 
ATOM     20 CL   UNL     1      -7.204  12.421  17.569  0.00  0.00    +0.000 Cl
ATOM     21  C   UNL     1      -4.645  11.639  17.266  0.00  0.00    +0.000 A 
ATOM     22  C   UNL     1      -3.328  11.481  17.707  0.00  0.00    +0.000 A 
ENDBRANCH   9  16
ENDBRANCH   4   7
BRANCH   5  23
ATOM     23  O   UNL     1       1.972   9.758  17.322  0.00  0.00    +0.000 OA
ATOM     24  H   UNL     1       2.469  10.546  17.630  0.00  0.00    +0.000 HD
ENDBRANCH   5  23
BRANCH   1  25
ATOM     25  O   UNL     1       3.041   5.499  18.978  0.00  0.00    +0.000 OA
BRANCH  25  26
ATOM     26  C   UNL     1       4.404   5.347  19.401  0.00  0.00    +0.000 C 
BRANCH  26  29
ATOM     27  N   UNL     1       6.212   4.993  16.306  0.00  0.00    +0.000 N 
ATOM     28  C   UNL     1       5.047   5.338  16.904  0.00  0.00    +0.000 A 
ATOM     29  C   UNL     1       5.292   5.122  18.241  0.00  0.00    +0.000 A 
ATOM     30  N   UNL     1       6.554   4.611  18.394  0.00  0.00    +0.000 NA
ATOM     31  N   UNL     1       7.114   4.543  17.194  0.00  0.00    +0.000 NA
BRANCH  27  32
ATOM     32  C   UNL     1       6.542   5.104  14.906  0.00  0.00    +0.000 C 
BRANCH  32  33
ATOM     33  C   UNL     1       6.462   3.764  14.192  0.00  0.00    +0.000 C 
BRANCH  33  34
ATOM     34  C   UNL     1       5.207   3.693  13.330  0.00  0.00    +0.000 C 
BRANCH  34  35
ATOM     35  C   UNL     1       5.575   3.565  11.853  0.00  0.00    +0.000 C 
BRANCH  35  37
ATOM     36  C   UNL     1       6.048   1.194  11.192  0.00  0.00    +0.000 C 
ATOM     37  C   UNL     1       6.655   2.510  11.645  0.00  0.00    +0.000 C 
ENDBRANCH  35  37
ENDBRANCH  34  35
ENDBRANCH  33  34
ENDBRANCH  32  33
ENDBRANCH  27  32
ENDBRANCH  26  29
ENDBRANCH  25  26
ENDBRANCH   1  25
TORSDOF 11
ENDMDL
MODEL 2
REMARK VINA RESULT:      -8.1      2.027      2.566
REMARK  Name = 
REMARK  12 active torsions:
REMARK  status: ('A' for Active; 'I' for Inactive)
REMARK    1  A    between atoms: C_1  and  C_2
REMARK    2  A    between atoms: C_2  and  C_3
REMARK    3  A    between atoms: C_3  and  C_4
REMARK    4  A    between atoms: C_4  and  C_5
REMARK    5  A    between atoms: C_5  and  C_6
REMARK    6  A    between atoms: C_6  and  N_7
REMARK    7  A    between atoms: C_9  and  C_10
REMARK    8  A    between atoms: C_10  and  O_11
REMARK    9  A    between atoms: O_11  and  C_12
REMARK   10  A    between atoms: C_15  and  C_16
REMARK   11  A    between atoms: C_18  and  C_19
REMARK   12  A    between atoms: C_30  and  O_31
REMARK                            x       y       z     vdW  Elec       q    Type
REMARK                         _______ _______ _______ _____ _____    ______ ____
ROOT
ATOM      1  C   UNL     1       2.273   5.449  19.384  0.00  0.00    +0.000 A 
ATOM      2  C   UNL     1       1.856   6.023  20.579  0.00  0.00    +0.000 A 
ATOM      3  C   UNL     1       1.565   7.383  20.632  0.00  0.00    +0.000 A 
ATOM      4  C   UNL     1       1.686   8.210  19.498  0.00  0.00    +0.000 A 
ATOM      5  C   UNL     1       2.200   7.619  18.330  0.00  0.00    +0.000 A 
ATOM      6  C   UNL     1       2.484   6.255  18.266  0.00  0.00    +0.000 A 
ENDROOT
BRANCH   4   7
ATOM      7  C   UNL     1       1.217   9.605  19.551  0.00  0.00    +0.000 A 
ATOM      8  C   UNL     1       0.207   9.983  20.412  0.00  0.00    +0.000 A 
ATOM      9  C   UNL     1      -0.236  11.285  20.340  0.00  0.00    +0.000 A 
ATOM     10  N   UNL     1       0.340  12.174  19.502  0.00  0.00    +0.000 NA
ATOM     11  C   UNL     1       1.329  11.731  18.722  0.00  0.00    +0.000 A 
ATOM     12  N   UNL     1       1.912  12.637  17.863  0.00  0.00    +0.000 N 
ATOM     13  N   UNL     1       1.766  10.470  18.672  0.00  0.00    +0.000 NA
ATOM     14  H   UNL     1       1.283  13.406  17.681  0.00  0.00    +0.000 HD
ATOM     15  H   UNL     1       2.328  12.177  17.069  0.00  0.00    +0.000 HD
BRANCH   9  16
ATOM     16  C   UNL     1      -1.378  11.758  21.148  0.00  0.00    +0.000 A 
ATOM     17  C   UNL     1      -2.488  12.376  20.546  0.00  0.00    +0.000 A 
ATOM     18  C   UNL     1      -3.576  12.814  21.311  0.00  0.00    +0.000 A 
ATOM     19  C   UNL     1      -3.571  12.644  22.693  0.00  0.00    +0.000 A 
ATOM     20 CL   UNL     1      -4.915  13.165  23.630  0.00  0.00    +0.000 Cl
ATOM     21  C   UNL     1      -2.486  12.043  23.318  0.00  0.00    +0.000 A 
ATOM     22  C   UNL     1      -1.405  11.602  22.551  0.00  0.00    +0.000 A 
ENDBRANCH   9  16
ENDBRANCH   4   7
BRANCH   5  23
ATOM     23  O   UNL     1       2.419   8.343  17.185  0.00  0.00    +0.000 OA
ATOM     24  H   UNL     1       1.820   9.120  17.228  0.00  0.00    +0.000 HD
ENDBRANCH   5  23
BRANCH   1  25
ATOM     25  O   UNL     1       2.507   4.115  19.219  0.00  0.00    +0.000 OA
BRANCH  25  26
ATOM     26  C   UNL     1       3.721   3.635  19.816  0.00  0.00    +0.000 C 
BRANCH  26  29
ATOM     27  N   UNL     1       6.295   4.331  17.393  0.00  0.00    +0.000 N 
ATOM     28  C   UNL     1       5.058   3.826  17.619  0.00  0.00    +0.000 A 
ATOM     29  C   UNL     1       4.889   3.976  18.977  0.00  0.00    +0.000 A 
ATOM     30  N   UNL     1       6.030   4.506  19.520  0.00  0.00    +0.000 NA
ATOM     31  N   UNL     1       6.887   4.727  18.532  0.00  0.00    +0.000 NA
BRANCH  27  32
ATOM     32  C   UNL     1       6.950   4.500  16.119  0.00  0.00    +0.000 C 
BRANCH  32  33
ATOM     33  C   UNL     1       6.046   5.171  15.096  0.00  0.00    +0.000 C 
BRANCH  33  34
ATOM     34  C   UNL     1       5.443   4.135  14.155  0.00  0.00    +0.000 C 
BRANCH  34  35
ATOM     35  C   UNL     1       6.479   3.666  13.135  0.00  0.00    +0.000 C 
BRANCH  35  37
ATOM     36  C   UNL     1       4.459   3.252  11.710  0.00  0.00    +0.000 C 
ATOM     37  C   UNL     1       5.911   3.698  11.721  0.00  0.00    +0.000 C 
ENDBRANCH  35  37
ENDBRANCH  34  35
ENDBRANCH  33  34
ENDBRANCH  32  33
ENDBRANCH  27  32
ENDBRANCH  26  29
ENDBRANCH  25  26
ENDBRANCH   1  25
TORSDOF 11
ENDMDL
MODEL 3
REMARK VINA RESULT:      -8.0      2.672      3.934
REMARK  Name = 
REMARK  12 active torsions:
REMARK  status: ('A' for Active; 'I' for Inactive)
REMARK    1  A    between atoms: C_1  and  C_2
REMARK    2  A    between atoms: C_2  and  C_3
REMARK    3  A    between atoms: C_3  and  C_4
REMARK    4  A    between atoms: C_4  and  C_5
REMARK    5  A    between atoms: C_5  and  C_6
REMARK    6  A    between atoms: C_6  and  N_7
REMARK    7  A    between atoms: C_9  and  C_10
REMARK    8  A    between atoms: C_10  and  O_11
REMARK    9  A    between atoms: O_11  and  C_12
REMARK   10  A    between atoms: C_15  and  C_16
REMARK   11  A    between atoms: C_18  and  C_19
REMARK   12  A    between atoms: C_30  and  O_31
REMARK                            x       y       z     vdW  Elec       q    Type
REMARK                         _______ _______ _______ _____ _____    ______ ____
ROOT
ATOM      1  C   UNL     1       1.962   7.720  19.925  0.00  0.00    +0.000 A 
ATOM      2  C   UNL     1       1.512   8.200  21.150  0.00  0.00    +0.000 A 
ATOM      3  C   UNL     1       0.846   9.420  21.215  0.00  0.00    +0.000 A 
ATOM      4  C   UNL     1       0.615  10.199  20.064  0.00  0.00    +0.000 A 
ATOM      5  C   UNL     1       1.164   9.732  18.856  0.00  0.00    +0.000 A 
ATOM      6  C   UNL     1       1.824   8.505  18.781  0.00  0.00    +0.000 A 
ENDROOT
BRANCH   4   7
ATOM      7  C   UNL     1      -0.231  11.402  20.147  0.00  0.00    +0.000 A 
ATOM      8  C   UNL     1      -1.303  11.459  21.014  0.00  0.00    +0.000 A 
ATOM      9  C   UNL     1      -2.097  12.583  20.971  0.00  0.00    +0.000 A 
ATOM     10  N   UNL     1      -1.802  13.617  20.154  0.00  0.00    +0.000 NA
ATOM     11  C   UNL     1      -0.731  13.490  19.366  0.00  0.00    +0.000 A 
ATOM     12  N   UNL     1      -0.434  14.542  18.528  0.00  0.00    +0.000 N 
ATOM     13  N   UNL     1       0.045  12.407  19.288  0.00  0.00    +0.000 NA
ATOM     14  H   UNL     1      -1.256  15.105  18.362  0.00  0.00    +0.000 HD
ATOM     15  H   UNL     1       0.093  14.237  17.724  0.00  0.00    +0.000 HD
BRANCH   9  16
ATOM     16  C   UNL     1      -3.323  12.694  21.787  0.00  0.00    +0.000 A 
ATOM     17  C   UNL     1      -3.275  12.602  23.188  0.00  0.00    +0.000 A 
ATOM     18  C   UNL     1      -4.436  12.719  23.963  0.00  0.00    +0.000 A 
ATOM     19  C   UNL     1      -5.667  12.929  23.346  0.00  0.00    +0.000 A 
ATOM     20 CL   UNL     1      -7.089  13.092  24.298  0.00  0.00    +0.000 Cl
ATOM     21  C   UNL     1      -5.749  13.019  21.963  0.00  0.00    +0.000 A 
ATOM     22  C   UNL     1      -4.587  12.907  21.195  0.00  0.00    +0.000 A 
ENDBRANCH   9  16
ENDBRANCH   4   7
BRANCH   5  23
ATOM     23  O   UNL     1       1.055  10.440  17.686  0.00  0.00    +0.000 OA
ATOM     24  H   UNL     1       0.340  11.098  17.825  0.00  0.00    +0.000 HD
ENDBRANCH   5  23
BRANCH   1  25
ATOM     25  O   UNL     1       2.555   6.504  19.754  0.00  0.00    +0.000 OA
BRANCH  25  26
ATOM     26  C   UNL     1       2.009   5.707  18.692  0.00  0.00    +0.000 C 
BRANCH  26  29
ATOM     27  N   UNL     1       4.877   4.521  16.864  0.00  0.00    +0.000 N 
ATOM     28  C   UNL     1       4.278   5.570  17.475  0.00  0.00    +0.000 A 
ATOM     29  C   UNL     1       3.085   5.049  17.921  0.00  0.00    +0.000 A 
ATOM     30  N   UNL     1       2.984   3.743  17.522  0.00  0.00    +0.000 NA
ATOM     31  N   UNL     1       4.098   3.426  16.876  0.00  0.00    +0.000 NA
BRANCH  27  32
ATOM     32  C   UNL     1       6.197   4.484  16.285  0.00  0.00    +0.000 C 
BRANCH  32  33
ATOM     33  C   UNL     1       7.021   5.705  16.663  0.00  0.00    +0.000 C 
BRANCH  33  34
ATOM     34  C   UNL     1       7.605   5.542  18.062  0.00  0.00    +0.000 C 
BRANCH  34  35
ATOM     35  C   UNL     1       8.093   6.885  18.602  0.00  0.00    +0.000 C 
BRANCH  35  37
ATOM     36  C   UNL     1       8.359   9.331  18.123  0.00  0.00    +0.000 C 
ATOM     37  C   UNL     1       7.792   8.014  17.623  0.00  0.00    +0.000 C 
ENDBRANCH  35  37
ENDBRANCH  34  35
ENDBRANCH  33  34
ENDBRANCH  32  33
ENDBRANCH  27  32
ENDBRANCH  26  29
ENDBRANCH  25  26
ENDBRANCH   1  25
TORSDOF 11
ENDMDL
MODEL 4
REMARK VINA RESULT:      -7.9      0.847      1.303
REMARK  Name = 
REMARK  12 active torsions:
REMARK  status: ('A' for Active; 'I' for Inactive)
REMARK    1  A    between atoms: C_1  and  C_2
REMARK    2  A    between atoms: C_2  and  C_3
REMARK    3  A    between atoms: C_3  and  C_4
REMARK    4  A    between atoms: C_4  and  C_5
REMARK    5  A    between atoms: C_5  and  C_6
REMARK    6  A    between atoms: C_6  and  N_7
REMARK    7  A    between atoms: C_9  and  C_10
REMARK    8  A    between atoms: C_10  and  O_11
REMARK    9  A    between atoms: O_11  and  C_12
REMARK   10  A    between atoms: C_15  and  C_16
REMARK   11  A    between atoms: C_18  and  C_19
REMARK   12  A    between atoms: C_30  and  O_31
REMARK                            x       y       z     vdW  Elec       q    Type
REMARK                         _______ _______ _______ _____ _____    ______ ____
ROOT
ATOM      1  C   UNL     1       2.336   6.711  19.508  0.00  0.00    +0.000 A 
ATOM      2  C   UNL     1       1.813   7.123  20.729  0.00  0.00    +0.000 A 
ATOM      3  C   UNL     1       1.221   8.378  20.841  0.00  0.00    +0.000 A 
ATOM      4  C   UNL     1       1.139   9.258  19.745  0.00  0.00    +0.000 A 
ATOM      5  C   UNL     1       1.760   8.850  18.551  0.00  0.00    +0.000 A 
ATOM      6  C   UNL     1       2.346   7.589  18.427  0.00  0.00    +0.000 A 
ENDROOT
BRANCH   4   7
ATOM      7  C   UNL     1       0.365  10.507  19.859  0.00  0.00    +0.000 A 
ATOM      8  C   UNL     1      -0.964  10.555  19.491  0.00  0.00    +0.000 A 
ATOM      9  C   UNL     1      -1.594  11.778  19.545  0.00  0.00    +0.000 A 
ATOM     10  N   UNL     1      -0.952  12.876  19.998  0.00  0.00    +0.000 NA
ATOM     11  C   UNL     1       0.326  12.736  20.357  0.00  0.00    +0.000 A 
ATOM     12  N   UNL     1       0.982  13.857  20.814  0.00  0.00    +0.000 N 
ATOM     13  N   UNL     1       1.034  11.607  20.264  0.00  0.00    +0.000 NA
ATOM     14  H   UNL     1       0.527  14.694  20.478  0.00  0.00    +0.000 HD
ATOM     15  H   UNL     1       1.979  13.783  20.679  0.00  0.00    +0.000 HD
BRANCH   9  16
ATOM     16  C   UNL     1      -2.985  11.952  19.078  0.00  0.00    +0.000 A 
ATOM     17  C   UNL     1      -3.399  11.462  17.828  0.00  0.00    +0.000 A 
ATOM     18  C   UNL     1      -4.720  11.617  17.390  0.00  0.00    +0.000 A 
ATOM     19  C   UNL     1      -5.650  12.268  18.197  0.00  0.00    +0.000 A 
ATOM     20 CL   UNL     1      -7.277  12.441  17.668  0.00  0.00    +0.000 Cl
ATOM     21  C   UNL     1      -5.270  12.769  19.435  0.00  0.00    +0.000 A 
ATOM     22  C   UNL     1      -3.952  12.608  19.870  0.00  0.00    +0.000 A 
ENDBRANCH   9  16
ENDBRANCH   4   7
BRANCH   5  23
ATOM     23  O   UNL     1       1.797   9.652  17.439  0.00  0.00    +0.000 OA
ATOM     24  H   UNL     1       1.085  10.319  17.553  0.00  0.00    +0.000 HD
ENDBRANCH   5  23
BRANCH   1  25
ATOM     25  O   UNL     1       2.865   5.473  19.285  0.00  0.00    +0.000 OA
BRANCH  25  26
ATOM     26  C   UNL     1       2.847   5.045  17.915  0.00  0.00    +0.000 C 
BRANCH  26  29
ATOM     27  N   UNL     1       5.986   4.357  16.286  0.00  0.00    +0.000 N 
ATOM     28  C   UNL     1       4.634   4.338  16.196  0.00  0.00    +0.000 A 
ATOM     29  C   UNL     1       4.220   4.809  17.421  0.00  0.00    +0.000 A 
ATOM     30  N   UNL     1       5.314   5.039  18.212  0.00  0.00    +0.000 NA
ATOM     31  N   UNL     1       6.398   4.763  17.499  0.00  0.00    +0.000 NA
BRANCH  27  32
ATOM     32  C   UNL     1       6.936   4.040  15.249  0.00  0.00    +0.000 C 
BRANCH  32  33
ATOM     33  C   UNL     1       6.593   4.722  13.933  0.00  0.00    +0.000 C 
BRANCH  33  34
ATOM     34  C   UNL     1       6.459   3.691  12.817  0.00  0.00    +0.000 C 
BRANCH  34  35
ATOM     35  C   UNL     1       4.991   3.346  12.575  0.00  0.00    +0.000 C 
BRANCH  35  37
ATOM     36  C   UNL     1       3.313   3.042  10.738  0.00  0.00    +0.000 C 
ATOM     37  C   UNL     1       4.536   3.816  11.198  0.00  0.00    +0.000 C 
ENDBRANCH  35  37
ENDBRANCH  34  35
ENDBRANCH  33  34
ENDBRANCH  32  33
ENDBRANCH  27  32
ENDBRANCH  26  29
ENDBRANCH  25  26
ENDBRANCH   1  25
TORSDOF 11
ENDMDL
MODEL 5
REMARK VINA RESULT:      -7.8      2.341      2.853
REMARK  Name = 
REMARK  12 active torsions:
REMARK  status: ('A' for Active; 'I' for Inactive)
REMARK    1  A    between atoms: C_1  and  C_2
REMARK    2  A    between atoms: C_2  and  C_3
REMARK    3  A    between atoms: C_3  and  C_4
REMARK    4  A    between atoms: C_4  and  C_5
REMARK    5  A    between atoms: C_5  and  C_6
REMARK    6  A    between atoms: C_6  and  N_7
REMARK    7  A    between atoms: C_9  and  C_10
REMARK    8  A    between atoms: C_10  and  O_11
REMARK    9  A    between atoms: O_11  and  C_12
REMARK   10  A    between atoms: C_15  and  C_16
REMARK   11  A    between atoms: C_18  and  C_19
REMARK   12  A    between atoms: C_30  and  O_31
REMARK                            x       y       z     vdW  Elec       q    Type
REMARK                         _______ _______ _______ _____ _____    ______ ____
ROOT
ATOM      1  C   UNL     1       1.769   7.895  19.604  0.00  0.00    +0.000 A 
ATOM      2  C   UNL     1       1.549   7.990  20.973  0.00  0.00    +0.000 A 
ATOM      3  C   UNL     1       1.081   9.182  21.519  0.00  0.00    +0.000 A 
ATOM      4  C   UNL     1       0.825  10.312  20.718  0.00  0.00    +0.000 A 
ATOM      5  C   UNL     1       1.147  10.213  19.353  0.00  0.00    +0.000 A 
ATOM      6  C   UNL     1       1.607   9.019  18.797  0.00  0.00    +0.000 A 
ENDROOT
BRANCH   4   7
ATOM      7  C   UNL     1       0.180  11.500  21.305  0.00  0.00    +0.000 A 
ATOM      8  C   UNL     1      -1.109  11.440  21.794  0.00  0.00    +0.000 A 
ATOM      9  C   UNL     1      -1.673  12.611  22.247  0.00  0.00    +0.000 A 
ATOM     10  N   UNL     1      -0.969  13.763  22.268  0.00  0.00    +0.000 NA
ATOM     11  C   UNL     1       0.282  13.727  21.800  0.00  0.00    +0.000 A 
ATOM     12  N   UNL     1       0.998  14.904  21.817  0.00  0.00    +0.000 N 
ATOM     13  N   UNL     1       0.877  12.655  21.273  0.00  0.00    +0.000 NA
ATOM     14  H   UNL     1       0.373  15.698  21.841  0.00  0.00    +0.000 HD
ATOM     15  H   UNL     1       1.725  14.904  21.119  0.00  0.00    +0.000 HD
BRANCH   9  16
ATOM     16  C   UNL     1      -3.079  12.670  22.695  0.00  0.00    +0.000 A 
ATOM     17  C   UNL     1      -3.421  12.478  24.044  0.00  0.00    +0.000 A 
ATOM     18  C   UNL     1      -4.753  12.544  24.471  0.00  0.00    +0.000 A 
ATOM     19  C   UNL     1      -5.767  12.802  23.552  0.00  0.00    +0.000 A 
ATOM     20 CL   UNL     1      -7.401  12.903  24.079  0.00  0.00    +0.000 Cl
ATOM     21  C   UNL     1      -5.463  12.990  22.211  0.00  0.00    +0.000 A 
ATOM     22  C   UNL     1      -4.131  12.928  21.790  0.00  0.00    +0.000 A 
ENDBRANCH   9  16
ENDBRANCH   4   7
BRANCH   5  23
ATOM     23  O   UNL     1       0.998  11.271  18.493  0.00  0.00    +0.000 OA
ATOM     24  H   UNL     1       1.117  10.912  17.587  0.00  0.00    +0.000 HD
ENDBRANCH   5  23
BRANCH   1  25
ATOM     25  O   UNL     1       2.153   6.748  18.972  0.00  0.00    +0.000 OA
BRANCH  25  26
ATOM     26  C   UNL     1       2.926   5.843  19.775  0.00  0.00    +0.000 C 
BRANCH  26  29
ATOM     27  N   UNL     1       5.633   4.919  17.584  0.00  0.00    +0.000 N 
ATOM     28  C   UNL     1       4.454   5.573  17.715  0.00  0.00    +0.000 A 
ATOM     29  C   UNL     1       4.104   5.354  19.028  0.00  0.00    +0.000 A 
ATOM     30  N   UNL     1       5.039   4.545  19.617  0.00  0.00    +0.000 NA
ATOM     31  N   UNL     1       5.981   4.288  18.719  0.00  0.00    +0.000 NA
BRANCH  27  32
ATOM     32  C   UNL     1       6.491   4.887  16.426  0.00  0.00    +0.000 C 
BRANCH  32  33
ATOM     33  C   UNL     1       6.042   3.846  15.411  0.00  0.00    +0.000 C 
BRANCH  33  34
ATOM     34  C   UNL     1       5.783   4.498  14.058  0.00  0.00    +0.000 C 
BRANCH  34  35
ATOM     35  C   UNL     1       6.006   3.497  12.926  0.00  0.00    +0.000 C 
BRANCH  35  37
ATOM     36  C   UNL     1       7.787   5.214  12.525  0.00  0.00    +0.000 C 
ATOM     37  C   UNL     1       7.111   3.966  11.987  0.00  0.00    +0.000 C 
ENDBRANCH  35  37
ENDBRANCH  34  35
ENDBRANCH  33  34
ENDBRANCH  32  33
ENDBRANCH  27  32
ENDBRANCH  26  29
ENDBRANCH  25  26
ENDBRANCH   1  25
TORSDOF 11
ENDMDL
MODEL 6
REMARK VINA RESULT:      -7.8      2.364      2.966
REMARK  Name = 
REMARK  12 active torsions:
REMARK  status: ('A' for Active; 'I' for Inactive)
REMARK    1  A    between atoms: C_1  and  C_2
REMARK    2  A    between atoms: C_2  and  C_3
REMARK    3  A    between atoms: C_3  and  C_4
REMARK    4  A    between atoms: C_4  and  C_5
REMARK    5  A    between atoms: C_5  and  C_6
REMARK    6  A    between atoms: C_6  and  N_7
REMARK    7  A    between atoms: C_9  and  C_10
REMARK    8  A    between atoms: C_10  and  O_11
REMARK    9  A    between atoms: O_11  and  C_12
REMARK   10  A    between atoms: C_15  and  C_16
REMARK   11  A    between atoms: C_18  and  C_19
REMARK   12  A    between atoms: C_30  and  O_31
REMARK                            x       y       z     vdW  Elec       q    Type
REMARK                         _______ _______ _______ _____ _____    ______ ____
ROOT
ATOM      1  C   UNL     1       3.169   5.613  18.682  0.00  0.00    +0.000 A 
ATOM      2  C   UNL     1       3.220   6.523  17.632  0.00  0.00    +0.000 A 
ATOM      3  C   UNL     1       2.670   7.792  17.785  0.00  0.00    +0.000 A 
ATOM      4  C   UNL     1       2.049   8.188  18.986  0.00  0.00    +0.000 A 
ATOM      5  C   UNL     1       1.930   7.216  19.995  0.00  0.00    +0.000 A 
ATOM      6  C   UNL     1       2.488   5.945  19.852  0.00  0.00    +0.000 A 
ENDROOT
BRANCH   4   7
ATOM      7  C   UNL     1       1.623   9.587  19.168  0.00  0.00    +0.000 A 
ATOM      8  C   UNL     1       0.722   9.933  20.154  0.00  0.00    +0.000 A 
ATOM      9  C   UNL     1       0.307  11.245  20.205  0.00  0.00    +0.000 A 
ATOM     10  N   UNL     1       0.810  12.170  19.360  0.00  0.00    +0.000 NA
ATOM     11  C   UNL     1       1.697  11.755  18.452  0.00  0.00    +0.000 A 
ATOM     12  N   UNL     1       2.205  12.699  17.586  0.00  0.00    +0.000 N 
ATOM     13  N   UNL     1       2.094  10.492  18.284  0.00  0.00    +0.000 NA
ATOM     14  H   UNL     1       1.579  13.489  17.517  0.00  0.00    +0.000 HD
ATOM     15  H   UNL     1       2.521  12.278  16.726  0.00  0.00    +0.000 HD
BRANCH   9  16
ATOM     16  C   UNL     1      -0.729  11.691  21.159  0.00  0.00    +0.000 A 
ATOM     17  C   UNL     1      -1.683  12.657  20.797  0.00  0.00    +0.000 A 
ATOM     18  C   UNL     1      -2.672  13.072  21.697  0.00  0.00    +0.000 A 
ATOM     19  C   UNL     1      -2.721  12.528  22.978  0.00  0.00    +0.000 A 
ATOM     20 CL   UNL     1      -3.946  13.023  24.078  0.00  0.00    +0.000 Cl
ATOM     21  C   UNL     1      -1.788  11.576  23.369  0.00  0.00    +0.000 A 
ATOM     22  C   UNL     1      -0.806  11.162  22.465  0.00  0.00    +0.000 A 
ENDBRANCH   9  16
ENDBRANCH   4   7
BRANCH   5  23
ATOM     23  O   UNL     1       1.289   7.472  21.180  0.00  0.00    +0.000 OA
ATOM     24  H   UNL     1       0.356   7.193  21.058  0.00  0.00    +0.000 HD
ENDBRANCH   5  23
BRANCH   1  25
ATOM     25  O   UNL     1       3.746   4.378  18.649  0.00  0.00    +0.000 OA
BRANCH  25  26
ATOM     26  C   UNL     1       5.130   4.346  19.030  0.00  0.00    +0.000 C 
BRANCH  26  29
ATOM     27  N   UNL     1       6.849   4.576  15.872  0.00  0.00    +0.000 N 
ATOM     28  C   UNL     1       5.659   4.457  16.509  0.00  0.00    +0.000 A 
ATOM     29  C   UNL     1       6.004   4.432  17.841  0.00  0.00    +0.000 A 
ATOM     30  N   UNL     1       7.368   4.479  17.957  0.00  0.00    +0.000 NA
ATOM     31  N   UNL     1       7.878   4.575  16.736  0.00  0.00    +0.000 NA
BRANCH  27  32
ATOM     32  C   UNL     1       7.071   4.732  14.456  0.00  0.00    +0.000 C 
BRANCH  32  33
ATOM     33  C   UNL     1       5.859   4.314  13.639  0.00  0.00    +0.000 C 
BRANCH  33  34
ATOM     34  C   UNL     1       6.296   3.651  12.337  0.00  0.00    +0.000 C 
BRANCH  34  35
ATOM     35  C   UNL     1       5.882   2.181  12.316  0.00  0.00    +0.000 C 
BRANCH  35  37
ATOM     36  C   UNL     1       6.203  -0.039  11.198  0.00  0.00    +0.000 C 
ATOM     37  C   UNL     1       6.550   1.439  11.164  0.00  0.00    +0.000 C 
ENDBRANCH  35  37
ENDBRANCH  34  35
ENDBRANCH  33  34
ENDBRANCH  32  33
ENDBRANCH  27  32
ENDBRANCH  26  29
ENDBRANCH  25  26
ENDBRANCH   1  25
TORSDOF 11
ENDMDL
MODEL 7
REMARK VINA RESULT:      -7.7      1.995      3.086
REMARK  Name = 
REMARK  12 active torsions:
REMARK  status: ('A' for Active; 'I' for Inactive)
REMARK    1  A    between atoms: C_1  and  C_2
REMARK    2  A    between atoms: C_2  and  C_3
REMARK    3  A    between atoms: C_3  and  C_4
REMARK    4  A    between atoms: C_4  and  C_5
REMARK    5  A    between atoms: C_5  and  C_6
REMARK    6  A    between atoms: C_6  and  N_7
REMARK    7  A    between atoms: C_9  and  C_10
REMARK    8  A    between atoms: C_10  and  O_11
REMARK    9  A    between atoms: O_11  and  C_12
REMARK   10  A    between atoms: C_15  and  C_16
REMARK   11  A    between atoms: C_18  and  C_19
REMARK   12  A    between atoms: C_30  and  O_31
REMARK                            x       y       z     vdW  Elec       q    Type
REMARK                         _______ _______ _______ _____ _____    ______ ____
ROOT
ATOM      1  C   UNL     1       1.913   6.681  20.538  0.00  0.00    +0.000 A 
ATOM      2  C   UNL     1       1.104   7.384  21.423  0.00  0.00    +0.000 A 
ATOM      3  C   UNL     1       0.631   8.647  21.078  0.00  0.00    +0.000 A 
ATOM      4  C   UNL     1       0.956   9.247  19.846  0.00  0.00    +0.000 A 
ATOM      5  C   UNL     1       1.852   8.552  19.014  0.00  0.00    +0.000 A 
ATOM      6  C   UNL     1       2.321   7.281  19.348  0.00  0.00    +0.000 A 
ENDROOT
BRANCH   4   7
ATOM      7  C   UNL     1       0.310  10.510  19.448  0.00  0.00    +0.000 A 
ATOM      8  C   UNL     1      -1.065  10.610  19.369  0.00  0.00    +0.000 A 
ATOM      9  C   UNL     1      -1.590  11.796  18.907  0.00  0.00    +0.000 A 
ATOM     10  N   UNL     1      -0.792  12.842  18.601  0.00  0.00    +0.000 NA
ATOM     11  C   UNL     1       0.526  12.667  18.730  0.00  0.00    +0.000 A 
ATOM     12  N   UNL     1       1.339  13.733  18.413  0.00  0.00    +0.000 N 
ATOM     13  N   UNL     1       1.121  11.530  19.096  0.00  0.00    +0.000 NA
ATOM     14  H   UNL     1       0.862  14.369  17.789  0.00  0.00    +0.000 HD
ATOM     15  H   UNL     1       2.263  13.426  18.149  0.00  0.00    +0.000 HD
BRANCH   9  16
ATOM     16  C   UNL     1      -3.041  11.967  18.692  0.00  0.00    +0.000 A 
ATOM     17  C   UNL     1      -3.646  11.588  17.481  0.00  0.00    +0.000 A 
ATOM     18  C   UNL     1      -5.024  11.740  17.281  0.00  0.00    +0.000 A 
ATOM     19  C   UNL     1      -5.820  12.275  18.291  0.00  0.00    +0.000 A 
ATOM     20 CL   UNL     1      -7.515  12.443  18.053  0.00  0.00    +0.000 Cl
ATOM     21  C   UNL     1      -5.251  12.664  19.496  0.00  0.00    +0.000 A 
ATOM     22  C   UNL     1      -3.877  12.507  19.693  0.00  0.00    +0.000 A 
ENDBRANCH   9  16
ENDBRANCH   4   7
BRANCH   5  23
ATOM     23  O   UNL     1       2.286   9.069  17.820  0.00  0.00    +0.000 OA
ATOM     24  H   UNL     1       3.267   9.064  17.855  0.00  0.00    +0.000 HD
ENDBRANCH   5  23
BRANCH   1  25
ATOM     25  O   UNL     1       2.360   5.411  20.757  0.00  0.00    +0.000 OA
BRANCH  25  26
ATOM     26  C   UNL     1       1.658   4.389  20.033  0.00  0.00    +0.000 C 
BRANCH  26  29
ATOM     27  N   UNL     1       3.811   3.639  17.244  0.00  0.00    +0.000 N 
ATOM     28  C   UNL     1       3.721   4.104  18.513  0.00  0.00    +0.000 A 
ATOM     29  C   UNL     1       2.374   4.042  18.788  0.00  0.00    +0.000 A 
ATOM     30  N   UNL     1       1.705   3.603  17.676  0.00  0.00    +0.000 NA
ATOM     31  N   UNL     1       2.602   3.352  16.732  0.00  0.00    +0.000 NA
BRANCH  27  32
ATOM     32  C   UNL     1       5.012   3.411  16.480  0.00  0.00    +0.000 C 
BRANCH  32  33
ATOM     33  C   UNL     1       5.288   4.541  15.499  0.00  0.00    +0.000 C 
BRANCH  33  34
ATOM     34  C   UNL     1       6.002   5.692  16.198  0.00  0.00    +0.000 C 
BRANCH  34  35
ATOM     35  C   UNL     1       7.145   5.170  17.066  0.00  0.00    +0.000 C 
BRANCH  35  37
ATOM     36  C   UNL     1       7.644   7.573  17.578  0.00  0.00    +0.000 C 
ATOM     37  C   UNL     1       7.513   6.173  18.153  0.00  0.00    +0.000 C 
ENDBRANCH  35  37
ENDBRANCH  34  35
ENDBRANCH  33  34
ENDBRANCH  32  33
ENDBRANCH  27  32
ENDBRANCH  26  29
ENDBRANCH  25  26
ENDBRANCH   1  25
TORSDOF 11
ENDMDL
MODEL 8
REMARK VINA RESULT:      -7.7      2.513      3.217
REMARK  Name = 
REMARK  12 active torsions:
REMARK  status: ('A' for Active; 'I' for Inactive)
REMARK    1  A    between atoms: C_1  and  C_2
REMARK    2  A    between atoms: C_2  and  C_3
REMARK    3  A    between atoms: C_3  and  C_4
REMARK    4  A    between atoms: C_4  and  C_5
REMARK    5  A    between atoms: C_5  and  C_6
REMARK    6  A    between atoms: C_6  and  N_7
REMARK    7  A    between atoms: C_9  and  C_10
REMARK    8  A    between atoms: C_10  and  O_11
REMARK    9  A    between atoms: O_11  and  C_12
REMARK   10  A    between atoms: C_15  and  C_16
REMARK   11  A    between atoms: C_18  and  C_19
REMARK   12  A    between atoms: C_30  and  O_31
REMARK                            x       y       z     vdW  Elec       q    Type
REMARK                         _______ _______ _______ _____ _____    ______ ____
ROOT
ATOM      1  C   UNL     1       2.438   7.316  19.481  0.00  0.00    +0.000 A 
ATOM      2  C   UNL     1       1.647   7.566  20.596  0.00  0.00    +0.000 A 
ATOM      3  C   UNL     1       0.804   8.675  20.615  0.00  0.00    +0.000 A 
ATOM      4  C   UNL     1       0.731   9.566  19.527  0.00  0.00    +0.000 A 
ATOM      5  C   UNL     1       1.613   9.339  18.454  0.00  0.00    +0.000 A 
ATOM      6  C   UNL     1       2.452   8.225  18.424  0.00  0.00    +0.000 A 
ENDROOT
BRANCH   4   7
ATOM      7  C   UNL     1      -0.285  10.632  19.515  0.00  0.00    +0.000 A 
ATOM      8  C   UNL     1      -0.488  11.433  20.621  0.00  0.00    +0.000 A 
ATOM      9  C   UNL     1      -1.514  12.349  20.564  0.00  0.00    +0.000 A 
ATOM     10  N   UNL     1      -2.255  12.500  19.446  0.00  0.00    +0.000 NA
ATOM     11  C   UNL     1      -1.976  11.702  18.412  0.00  0.00    +0.000 A 
ATOM     12  N   UNL     1      -2.735  11.852  17.273  0.00  0.00    +0.000 N 
ATOM     13  N   UNL     1      -1.052  10.737  18.410  0.00  0.00    +0.000 NA
ATOM     14  H   UNL     1      -3.622  12.284  17.493  0.00  0.00    +0.000 HD
ATOM     15  H   UNL     1      -2.753  11.005  16.726  0.00  0.00    +0.000 HD
BRANCH   9  16
ATOM     16  C   UNL     1      -1.874  13.180  21.731  0.00  0.00    +0.000 A 
ATOM     17  C   UNL     1      -3.144  13.772  21.839  0.00  0.00    +0.000 A 
ATOM     18  C   UNL     1      -3.488  14.551  22.950  0.00  0.00    +0.000 A 
ATOM     19  C   UNL     1      -2.565  14.752  23.973  0.00  0.00    +0.000 A 
ATOM     20 CL   UNL     1      -2.994  15.693  25.347  0.00  0.00    +0.000 Cl
ATOM     21  C   UNL     1      -1.300  14.187  23.894  0.00  0.00    +0.000 A 
ATOM     22  C   UNL     1      -0.962  13.406  22.785  0.00  0.00    +0.000 A 
ENDBRANCH   9  16
ENDBRANCH   4   7
BRANCH   5  23
ATOM     23  O   UNL     1       1.672  10.178  17.371  0.00  0.00    +0.000 OA
ATOM     24  H   UNL     1       2.624  10.329  17.188  0.00  0.00    +0.000 HD
ENDBRANCH   5  23
BRANCH   1  25
ATOM     25  O   UNL     1       3.235   6.218  19.343  0.00  0.00    +0.000 OA
BRANCH  25  26
ATOM     26  C   UNL     1       2.822   5.294  18.324  0.00  0.00    +0.000 C 
BRANCH  26  29
ATOM     27  N   UNL     1       5.746   4.697  16.306  0.00  0.00    +0.000 N 
ATOM     28  C   UNL     1       4.909   5.616  16.844  0.00  0.00    +0.000 A 
ATOM     29  C   UNL     1       3.977   4.856  17.513  0.00  0.00    +0.000 A 
ATOM     30  N   UNL     1       4.247   3.528  17.312  0.00  0.00    +0.000 NA
ATOM     31  N   UNL     1       5.345   3.443  16.571  0.00  0.00    +0.000 NA
BRANCH  27  32
ATOM     32  C   UNL     1       6.958   4.947  15.566  0.00  0.00    +0.000 C 
BRANCH  32  33
ATOM     33  C   UNL     1       6.766   4.741  14.071  0.00  0.00    +0.000 C 
BRANCH  33  34
ATOM     34  C   UNL     1       5.531   3.889  13.804  0.00  0.00    +0.000 C 
BRANCH  34  35
ATOM     35  C   UNL     1       5.430   3.536  12.321  0.00  0.00    +0.000 C 
BRANCH  35  37
ATOM     36  C   UNL     1       6.392   1.516  11.191  0.00  0.00    +0.000 C 
ATOM     37  C   UNL     1       6.703   2.858  11.830  0.00  0.00    +0.000 C 
ENDBRANCH  35  37
ENDBRANCH  34  35
ENDBRANCH  33  34
ENDBRANCH  32  33
ENDBRANCH  27  32
ENDBRANCH  26  29
ENDBRANCH  25  26
ENDBRANCH   1  25
TORSDOF 11
ENDMDL
MODEL 9
REMARK VINA RESULT:      -7.7      2.818      3.361
REMARK  Name = 
REMARK  12 active torsions:
REMARK  status: ('A' for Active; 'I' for Inactive)
REMARK    1  A    between atoms: C_1  and  C_2
REMARK    2  A    between atoms: C_2  and  C_3
REMARK    3  A    between atoms: C_3  and  C_4
REMARK    4  A    between atoms: C_4  and  C_5
REMARK    5  A    between atoms: C_5  and  C_6
REMARK    6  A    between atoms: C_6  and  N_7
REMARK    7  A    between atoms: C_9  and  C_10
REMARK    8  A    between atoms: C_10  and  O_11
REMARK    9  A    between atoms: O_11  and  C_12
REMARK   10  A    between atoms: C_15  and  C_16
REMARK   11  A    between atoms: C_18  and  C_19
REMARK   12  A    between atoms: C_30  and  O_31
REMARK                            x       y       z     vdW  Elec       q    Type
REMARK                         _______ _______ _______ _____ _____    ______ ____
ROOT
ATOM      1  C   UNL     1       2.579   6.736  18.746  0.00  0.00    +0.000 A 
ATOM      2  C   UNL     1       2.199   6.881  20.075  0.00  0.00    +0.000 A 
ATOM      3  C   UNL     1       1.652   8.084  20.513  0.00  0.00    +0.000 A 
ATOM      4  C   UNL     1       1.473   9.176  19.642  0.00  0.00    +0.000 A 
ATOM      5  C   UNL     1       1.954   9.029  18.328  0.00  0.00    +0.000 A 
ATOM      6  C   UNL     1       2.494   7.824  17.879  0.00  0.00    +0.000 A 
ENDROOT
BRANCH   4   7
ATOM      7  C   UNL     1       0.745  10.372  20.100  0.00  0.00    +0.000 A 
ATOM      8  C   UNL     1       0.922  11.592  19.479  0.00  0.00    +0.000 A 
ATOM      9  C   UNL     1       0.274  12.680  20.020  0.00  0.00    +0.000 A 
ATOM     10  N   UNL     1      -0.552  12.546  21.080  0.00  0.00    +0.000 NA
ATOM     11  C   UNL     1      -0.686  11.325  21.604  0.00  0.00    +0.000 A 
ATOM     12  N   UNL     1      -1.524  11.190  22.688  0.00  0.00    +0.000 N 
ATOM     13  N   UNL     1      -0.036  10.234  21.192  0.00  0.00    +0.000 NA
ATOM     14  H   UNL     1      -1.638  12.077  23.160  0.00  0.00    +0.000 HD
ATOM     15  H   UNL     1      -1.274  10.392  23.251  0.00  0.00    +0.000 HD
BRANCH   9  16
ATOM     16  C   UNL     1       0.478  14.043  19.489  0.00  0.00    +0.000 A 
ATOM     17  C   UNL     1      -0.571  14.977  19.460  0.00  0.00    +0.000 A 
ATOM     18  C   UNL     1      -0.374  16.273  18.968  0.00  0.00    +0.000 A 
ATOM     19  C   UNL     1       0.878  16.656  18.493  0.00  0.00    +0.000 A 
ATOM     20 CL   UNL     1       1.125  18.253  17.906  0.00  0.00    +0.000 Cl
ATOM     21  C   UNL     1       1.933  15.754  18.502  0.00  0.00    +0.000 A 
ATOM     22  C   UNL     1       1.734  14.464  19.000  0.00  0.00    +0.000 A 
ENDBRANCH   9  16
ENDBRANCH   4   7
BRANCH   5  23
ATOM     23  O   UNL     1       1.889  10.049  17.413  0.00  0.00    +0.000 OA
ATOM     24  H   UNL     1       0.937  10.249  17.285  0.00  0.00    +0.000 HD
ENDBRANCH   5  23
BRANCH   1  25
ATOM     25  O   UNL     1       3.053   5.574  18.211  0.00  0.00    +0.000 OA
BRANCH  25  26
ATOM     26  C   UNL     1       4.258   5.077  18.813  0.00  0.00    +0.000 C 
BRANCH  26  29
ATOM     27  N   UNL     1       6.392   4.398  15.990  0.00  0.00    +0.000 N 
ATOM     28  C   UNL     1       5.122   4.520  16.448  0.00  0.00    +0.000 A 
ATOM     29  C   UNL     1       5.285   4.806  17.784  0.00  0.00    +0.000 A 
ATOM     30  N   UNL     1       6.619   4.792  18.092  0.00  0.00    +0.000 NA
ATOM     31  N   UNL     1       7.293   4.546  16.976  0.00  0.00    +0.000 NA
BRANCH  27  32
ATOM     32  C   UNL     1       6.812   4.181  14.628  0.00  0.00    +0.000 C 
BRANCH  32  33
ATOM     33  C   UNL     1       5.631   4.010  13.686  0.00  0.00    +0.000 C 
BRANCH  33  34
ATOM     34  C   UNL     1       6.113   3.658  12.283  0.00  0.00    +0.000 C 
BRANCH  34  35
ATOM     35  C   UNL     1       5.187   2.629  11.637  0.00  0.00    +0.000 C 
BRANCH  35  37
ATOM     36  C   UNL     1       7.415   1.698  10.966  0.00  0.00    +0.000 C 
ATOM     37  C   UNL     1       5.955   1.377  11.231  0.00  0.00    +0.000 C 
ENDBRANCH  35  37
ENDBRANCH  34  35
ENDBRANCH  33  34
ENDBRANCH  32  33
ENDBRANCH  27  32
ENDBRANCH  26  29
ENDBRANCH  25  26
ENDBRANCH   1  25
TORSDOF 11
ENDMDL
