MODEL 1
REMARK VINA RESULT:      -9.7      0.000      0.000
REMARK  Name = 
REMARK  7 active torsions:
REMARK  status: ('A' for Active; 'I' for Inactive)
REMARK    1  A    between atoms: C_4  and  C_5
REMARK    2  A    between atoms: C_10  and  O_11
REMARK    3  A    between atoms: O_11  and  C_12
REMARK    4  A    between atoms: C_12  and  C_13
REMARK    5  A    between atoms: C_16  and  C_17
REMARK    6  A    between atoms: N_25  and  C_26
REMARK    7  A    between atoms: C_31  and  O_32
REMARK                            x       y       z     vdW  Elec       q    Type
REMARK                         _______ _______ _______ _____ _____    ______ ____
ROOT
ATOM      1  C   UNL     1       2.698   5.296  19.819  0.00  0.00    +0.000 A 
ATOM      2  C   UNL     1       1.849   4.348  20.444  0.00  0.00    +0.000 A 
ATOM      3  C   UNL     1       2.259   3.043  20.719  0.00  0.00    +0.000 A 
ATOM      4  C   UNL     1       3.528   2.635  20.356  0.00  0.00    +0.000 A 
ATOM      5  C   UNL     1       4.366   3.518  19.681  0.00  0.00    +0.000 A 
ATOM      6  C   UNL     1       3.956   4.830  19.362  0.00  0.00    +0.000 A 
ENDROOT
BRANCH   1  10
ATOM      7  O   UNL     1       2.109   9.321  17.318  0.00  0.00    +0.000 OA
ATOM      8  C   UNL     1       1.874   8.768  18.387  0.00  0.00    +0.000 A 
ATOM      9  C   UNL     1       2.388   7.393  18.601  0.00  0.00    +0.000 A 
ATOM     10  C   UNL     1       2.245   6.728  19.767  0.00  0.00    +0.000 A 
ATOM     11  C   UNL     1       1.590   7.450  20.845  0.00  0.00    +0.000 A 
ATOM     12  C   UNL     1       1.040   8.657  20.651  0.00  0.00    +0.000 A 
ATOM     13  N   UNL     1       1.136   9.313  19.435  0.00  0.00    +0.000 N 
BRANCH  13  14
ATOM     14  C   UNL     1       0.435  10.601  19.232  0.00  0.00    +0.000 C 
ATOM     15  C   UNL     1      -0.918  10.423  18.518  0.00  0.00    +0.000 C 
ATOM     16  C   UNL     1      -1.634  11.756  18.313  0.00  0.00    +0.000 C 
ATOM     17  C   UNL     1      -1.799  12.517  19.625  0.00  0.00    +0.000 C 
ATOM     18  C   UNL     1      -0.458  12.726  20.318  0.00  0.00    +0.000 C 
ATOM     19  C   UNL     1       0.272  11.403  20.556  0.00  0.00    +0.000 C 
BRANCH  19  20
ATOM     20  O   UNL     1       1.544  11.700  21.145  0.00  0.00    +0.000 OA
ATOM     21  H   UNL     1       2.238  11.358  20.559  0.00  0.00    +0.000 HD
ENDBRANCH  19  20
ENDBRANCH  13  14
ENDBRANCH   1  10
BRANCH   6  22
ATOM     22  O   UNL     1       4.768   5.673  18.628  0.00  0.00    +0.000 OA
BRANCH  22  23
ATOM     23  C   UNL     1       5.981   5.077  18.137  0.00  0.00    +0.000 C 
BRANCH  23  24
ATOM     24  C   UNL     1       5.973   4.797  16.649  0.00  0.00    +0.000 A 
ATOM     25  C   UNL     1       4.908   4.171  16.001  0.00  0.00    +0.000 A 
ATOM     26  C   UNL     1       5.006   3.836  14.646  0.00  0.00    +0.000 A 
ATOM     27  C   UNL     1       6.162   4.140  13.912  0.00  0.00    +0.000 A 
ATOM     28  C   UNL     1       7.197   4.844  14.541  0.00  0.00    +0.000 A 
ATOM     29  C   UNL     1       7.099   5.173  15.895  0.00  0.00    +0.000 A 
BRANCH  27  30
ATOM     30  C   UNL     1       6.319   3.692  12.482  0.00  0.00    +0.000 C 
ATOM     31  F   UNL     1       6.778   2.415  12.355  0.00  0.00    +0.000 F 
ATOM     32  F   UNL     1       5.153   3.742  11.783  0.00  0.00    +0.000 F 
ATOM     33  F   UNL     1       7.200   4.471  11.791  0.00  0.00    +0.000 F 
ENDBRANCH  27  30
ENDBRANCH  23  24
ENDBRANCH  22  23
ENDBRANCH   6  22
TORSDOF 7
ENDMDL
MODEL 2
REMARK VINA RESULT:      -9.5      1.289      1.384
REMARK  Name = 
REMARK  7 active torsions:
REMARK  status: ('A' for Active; 'I' for Inactive)
REMARK    1  A    between atoms: C_4  and  C_5
REMARK    2  A    between atoms: C_10  and  O_11
REMARK    3  A    between atoms: O_11  and  C_12
REMARK    4  A    between atoms: C_12  and  C_13
REMARK    5  A    between atoms: C_16  and  C_17
REMARK    6  A    between atoms: N_25  and  C_26
REMARK    7  A    between atoms: C_31  and  O_32
REMARK                            x       y       z     vdW  Elec       q    Type
REMARK                         _______ _______ _______ _____ _____    ______ ____
ROOT
ATOM      1  C   UNL     1       2.954   5.080  18.439  0.00  0.00    +0.000 A 
ATOM      2  C   UNL     1       2.050   4.305  17.668  0.00  0.00    +0.000 A 
ATOM      3  C   UNL     1       2.288   2.966  17.356  0.00  0.00    +0.000 A 
ATOM      4  C   UNL     1       3.454   2.362  17.787  0.00  0.00    +0.000 A 
ATOM      5  C   UNL     1       4.395   3.109  18.490  0.00  0.00    +0.000 A 
ATOM      6  C   UNL     1       4.188   4.474  18.782  0.00  0.00    +0.000 A 
ENDROOT
BRANCH   1  10
ATOM      7  O   UNL     1       2.077   9.668  17.451  0.00  0.00    +0.000 OA
ATOM      8  C   UNL     1       1.975   8.796  18.307  0.00  0.00    +0.000 A 
ATOM      9  C   UNL     1       2.505   7.443  18.005  0.00  0.00    +0.000 A 
ATOM     10  C   UNL     1       2.506   6.436  18.904  0.00  0.00    +0.000 A 
ATOM     11  C   UNL     1       1.997   6.754  20.228  0.00  0.00    +0.000 A 
ATOM     12  C   UNL     1       1.434   7.940  20.500  0.00  0.00    +0.000 A 
ATOM     13  N   UNL     1       1.380   8.952  19.556  0.00  0.00    +0.000 N 
BRANCH  13  14
ATOM     14  C   UNL     1       0.665  10.212  19.863  0.00  0.00    +0.000 C 
ATOM     15  C   UNL     1      -0.551  10.433  18.945  0.00  0.00    +0.000 C 
ATOM     16  C   UNL     1      -1.281  11.735  19.269  0.00  0.00    +0.000 C 
ATOM     17  C   UNL     1      -1.680  11.808  20.740  0.00  0.00    +0.000 C 
ATOM     18  C   UNL     1      -0.474  11.624  21.653  0.00  0.00    +0.000 C 
ATOM     19  C   UNL     1       0.265  10.315  21.364  0.00  0.00    +0.000 C 
BRANCH  19  20
ATOM     20  O   UNL     1       1.416  10.260  22.216  0.00  0.00    +0.000 OA
ATOM     21  H   UNL     1       1.123  10.395  23.131  0.00  0.00    +0.000 HD
ENDBRANCH  19  20
ENDBRANCH  13  14
ENDBRANCH   1  10
BRANCH   6  22
ATOM     22  O   UNL     1       5.161   5.225  19.415  0.00  0.00    +0.000 OA
BRANCH  22  23
ATOM     23  C   UNL     1       5.909   6.103  18.556  0.00  0.00    +0.000 C 
BRANCH  23  24
ATOM     24  C   UNL     1       5.998   5.632  17.120  0.00  0.00    +0.000 A 
ATOM     25  C   UNL     1       5.208   6.159  16.098  0.00  0.00    +0.000 A 
ATOM     26  C   UNL     1       5.254   5.605  14.815  0.00  0.00    +0.000 A 
ATOM     27  C   UNL     1       6.106   4.531  14.525  0.00  0.00    +0.000 A 
ATOM     28  C   UNL     1       6.963   4.057  15.528  0.00  0.00    +0.000 A 
ATOM     29  C   UNL     1       6.911   4.608  16.811  0.00  0.00    +0.000 A 
BRANCH  27  30
ATOM     30  C   UNL     1       6.090   3.861  13.176  0.00  0.00    +0.000 C 
ATOM     31  F   UNL     1       6.400   2.534  13.219  0.00  0.00    +0.000 F 
ATOM     32  F   UNL     1       4.877   3.941  12.563  0.00  0.00    +0.000 F 
ATOM     33  F   UNL     1       6.982   4.420  12.310  0.00  0.00    +0.000 F 
ENDBRANCH  27  30
ENDBRANCH  23  24
ENDBRANCH  22  23
ENDBRANCH   6  22
TORSDOF 7
ENDMDL
MODEL 3
REMARK VINA RESULT:      -9.4      0.766      1.414
REMARK  Name = 
REMARK  7 active torsions:
REMARK  status: ('A' for Active; 'I' for Inactive)
REMARK    1  A    between atoms: C_4  and  C_5
REMARK    2  A    between atoms: C_10  and  O_11
REMARK    3  A    between atoms: O_11  and  C_12
REMARK    4  A    between atoms: C_12  and  C_13
REMARK    5  A    between atoms: C_16  and  C_17
REMARK    6  A    between atoms: N_25  and  C_26
REMARK    7  A    between atoms: C_31  and  O_32
REMARK                            x       y       z     vdW  Elec       q    Type
REMARK                         _______ _______ _______ _____ _____    ______ ____
ROOT
ATOM      1  C   UNL     1       2.612   5.466  19.848  0.00  0.00    +0.000 A 
ATOM      2  C   UNL     1       1.821   4.603  20.648  0.00  0.00    +0.000 A 
ATOM      3  C   UNL     1       2.236   3.318  21.000  0.00  0.00    +0.000 A 
ATOM      4  C   UNL     1       3.449   2.843  20.542  0.00  0.00    +0.000 A 
ATOM      5  C   UNL     1       4.224   3.637  19.700  0.00  0.00    +0.000 A 
ATOM      6  C   UNL     1       3.804   4.924  19.304  0.00  0.00    +0.000 A 
ENDROOT
BRANCH   1  10
ATOM      7  O   UNL     1       1.958   9.300  17.079  0.00  0.00    +0.000 OA
ATOM      8  C   UNL     1       1.771   8.835  18.199  0.00  0.00    +0.000 A 
ATOM      9  C   UNL     1       2.273   7.470  18.491  0.00  0.00    +0.000 A 
ATOM     10  C   UNL     1       2.181   6.898  19.710  0.00  0.00    +0.000 A 
ATOM     11  C   UNL     1       1.597   7.714  20.762  0.00  0.00    +0.000 A 
ATOM     12  C   UNL     1       1.058   8.913  20.505  0.00  0.00    +0.000 A 
ATOM     13  N   UNL     1       1.100   9.473  19.239  0.00  0.00    +0.000 N 
BRANCH  13  14
ATOM     14  C   UNL     1       0.410  10.756  18.974  0.00  0.00    +0.000 C 
ATOM     15  C   UNL     1      -0.802  10.970  19.899  0.00  0.00    +0.000 C 
ATOM     16  C   UNL     1      -1.507  12.296  19.619  0.00  0.00    +0.000 C 
ATOM     17  C   UNL     1      -0.542  13.475  19.692  0.00  0.00    +0.000 C 
ATOM     18  C   UNL     1       0.642  13.285  18.753  0.00  0.00    +0.000 C 
ATOM     19  C   UNL     1       1.381  11.972  19.026  0.00  0.00    +0.000 C 
BRANCH  19  20
ATOM     20  O   UNL     1       2.429  11.845  18.058  0.00  0.00    +0.000 OA
ATOM     21  H   UNL     1       2.922  12.680  18.032  0.00  0.00    +0.000 HD
ENDBRANCH  19  20
ENDBRANCH  13  14
ENDBRANCH   1  10
BRANCH   6  22
ATOM     22  O   UNL     1       4.545   5.674  18.410  0.00  0.00    +0.000 OA
BRANCH  22  23
ATOM     23  C   UNL     1       5.860   5.164  18.130  0.00  0.00    +0.000 C 
BRANCH  23  24
ATOM     24  C   UNL     1       6.057   4.714  16.698  0.00  0.00    +0.000 A 
ATOM     25  C   UNL     1       7.235   4.942  15.986  0.00  0.00    +0.000 A 
ATOM     26  C   UNL     1       7.316   4.605  14.631  0.00  0.00    +0.000 A 
ATOM     27  C   UNL     1       6.229   4.015  13.971  0.00  0.00    +0.000 A 
ATOM     28  C   UNL     1       5.077   3.707  14.705  0.00  0.00    +0.000 A 
ATOM     29  C   UNL     1       4.995   4.049  16.057  0.00  0.00    +0.000 A 
BRANCH  27  30
ATOM     30  C   UNL     1       6.269   3.743  12.489  0.00  0.00    +0.000 C 
ATOM     31  F   UNL     1       7.073   4.598  11.797  0.00  0.00    +0.000 F 
ATOM     32  F   UNL     1       6.714   2.491  12.196  0.00  0.00    +0.000 F 
ATOM     33  F   UNL     1       5.038   3.845  11.912  0.00  0.00    +0.000 F 
ENDBRANCH  27  30
ENDBRANCH  23  24
ENDBRANCH  22  23
ENDBRANCH   6  22
TORSDOF 7
ENDMDL
MODEL 4
REMARK VINA RESULT:      -9.2      1.507      2.098
REMARK  Name = 
REMARK  7 active torsions:
REMARK  status: ('A' for Active; 'I' for Inactive)
REMARK    1  A    between atoms: C_4  and  C_5
REMARK    2  A    between atoms: C_10  and  O_11
REMARK    3  A    between atoms: O_11  and  C_12
REMARK    4  A    between atoms: C_12  and  C_13
REMARK    5  A    between atoms: C_16  and  C_17
REMARK    6  A    between atoms: N_25  and  C_26
REMARK    7  A    between atoms: C_31  and  O_32
REMARK                            x       y       z     vdW  Elec       q    Type
REMARK                         _______ _______ _______ _____ _____    ______ ____
ROOT
ATOM      1  C   UNL     1       2.925   5.233  18.646  0.00  0.00    +0.000 A 
ATOM      2  C   UNL     1       2.113   4.198  18.116  0.00  0.00    +0.000 A 
ATOM      3  C   UNL     1       2.480   2.853  18.177  0.00  0.00    +0.000 A 
ATOM      4  C   UNL     1       3.685   2.500  18.752  0.00  0.00    +0.000 A 
ATOM      5  C   UNL     1       4.539   3.493  19.224  0.00  0.00    +0.000 A 
ATOM      6  C   UNL     1       4.201   4.861  19.137  0.00  0.00    +0.000 A 
ENDROOT
BRANCH   1  10
ATOM      7  O   UNL     1       1.110   8.763  21.300  0.00  0.00    +0.000 OA
ATOM      8  C   UNL     1       1.494   8.457  20.176  0.00  0.00    +0.000 A 
ATOM      9  C   UNL     1       1.970   7.071  19.944  0.00  0.00    +0.000 A 
ATOM     10  C   UNL     1       2.345   6.616  18.729  0.00  0.00    +0.000 A 
ATOM     11  C   UNL     1       2.217   7.551  17.624  0.00  0.00    +0.000 A 
ATOM     12  C   UNL     1       1.874   8.831  17.820  0.00  0.00    +0.000 A 
ATOM     13  N   UNL     1       1.547   9.312  19.078  0.00  0.00    +0.000 N 
BRANCH  13  14
ATOM     14  C   UNL     1       1.267  10.753  19.270  0.00  0.00    +0.000 C 
ATOM     15  C   UNL     1       2.164  11.644  18.392  0.00  0.00    +0.000 C 
ATOM     16  C   UNL     1       1.869  13.129  18.597  0.00  0.00    +0.000 C 
ATOM     17  C   UNL     1       0.393  13.446  18.378  0.00  0.00    +0.000 C 
ATOM     18  C   UNL     1      -0.499  12.590  19.269  0.00  0.00    +0.000 C 
ATOM     19  C   UNL     1      -0.238  11.096  19.069  0.00  0.00    +0.000 C 
BRANCH  19  20
ATOM     20  O   UNL     1      -1.064  10.376  19.991  0.00  0.00    +0.000 OA
ATOM     21  H   UNL     1      -1.976  10.389  19.657  0.00  0.00    +0.000 HD
ENDBRANCH  19  20
ENDBRANCH  13  14
ENDBRANCH   1  10
BRANCH   6  22
ATOM     22  O   UNL     1       5.087   5.842  19.541  0.00  0.00    +0.000 OA
BRANCH  22  23
ATOM     23  C   UNL     1       6.381   5.791  18.915  0.00  0.00    +0.000 C 
BRANCH  23  24
ATOM     24  C   UNL     1       6.340   5.452  17.441  0.00  0.00    +0.000 A 
ATOM     25  C   UNL     1       5.491   6.093  16.538  0.00  0.00    +0.000 A 
ATOM     26  C   UNL     1       5.416   5.659  15.211  0.00  0.00    +0.000 A 
ATOM     27  C   UNL     1       6.204   4.592  14.758  0.00  0.00    +0.000 A 
ATOM     28  C   UNL     1       7.119   4.004  15.641  0.00  0.00    +0.000 A 
ATOM     29  C   UNL     1       7.189   4.435  16.968  0.00  0.00    +0.000 A 
BRANCH  27  30
ATOM     30  C   UNL     1       6.057   4.049  13.360  0.00  0.00    +0.000 C 
ATOM     31  F   UNL     1       6.848   4.677  12.444  0.00  0.00    +0.000 F 
ATOM     32  F   UNL     1       6.362   2.726  13.273  0.00  0.00    +0.000 F 
ATOM     33  F   UNL     1       4.783   4.169  12.890  0.00  0.00    +0.000 F 
ENDBRANCH  27  30
ENDBRANCH  23  24
ENDBRANCH  22  23
ENDBRANCH   6  22
TORSDOF 7
ENDMDL
MODEL 5
REMARK VINA RESULT:      -9.2      3.461      4.118
REMARK  Name = 
REMARK  7 active torsions:
REMARK  status: ('A' for Active; 'I' for Inactive)
REMARK    1  A    between atoms: C_4  and  C_5
REMARK    2  A    between atoms: C_10  and  O_11
REMARK    3  A    between atoms: O_11  and  C_12
REMARK    4  A    between atoms: C_12  and  C_13
REMARK    5  A    between atoms: C_16  and  C_17
REMARK    6  A    between atoms: N_25  and  C_26
REMARK    7  A    between atoms: C_31  and  O_32
REMARK                            x       y       z     vdW  Elec       q    Type
REMARK                         _______ _______ _______ _____ _____    ______ ____
ROOT
ATOM      1  C   UNL     1       2.714   4.476  18.820  0.00  0.00    +0.000 A 
ATOM      2  C   UNL     1       1.649   3.630  18.419  0.00  0.00    +0.000 A 
ATOM      3  C   UNL     1       1.805   2.252  18.262  0.00  0.00    +0.000 A 
ATOM      4  C   UNL     1       3.042   1.677  18.479  0.00  0.00    +0.000 A 
ATOM      5  C   UNL     1       4.127   2.483  18.810  0.00  0.00    +0.000 A 
ATOM      6  C   UNL     1       3.996   3.883  18.937  0.00  0.00    +0.000 A 
ENDROOT
BRANCH   1  10
ATOM      7  O   UNL     1       2.309   9.039  17.477  0.00  0.00    +0.000 OA
ATOM      8  C   UNL     1       2.108   8.248  18.392  0.00  0.00    +0.000 A 
ATOM      9  C   UNL     1       2.507   6.832  18.203  0.00  0.00    +0.000 A 
ATOM     10  C   UNL     1       2.394   5.900  19.174  0.00  0.00    +0.000 A 
ATOM     11  C   UNL     1       1.895   6.365  20.457  0.00  0.00    +0.000 A 
ATOM     12  C   UNL     1       1.447   7.616  20.627  0.00  0.00    +0.000 A 
ATOM     13  N   UNL     1       1.508   8.555  19.611  0.00  0.00    +0.000 N 
BRANCH  13  14
ATOM     14  C   UNL     1       0.916   9.898  19.807  0.00  0.00    +0.000 C 
ATOM     15  C   UNL     1      -0.268  10.158  18.857  0.00  0.00    +0.000 C 
ATOM     16  C   UNL     1      -0.872  11.545  19.067  0.00  0.00    +0.000 C 
ATOM     17  C   UNL     1      -1.271  11.774  20.521  0.00  0.00    +0.000 C 
ATOM     18  C   UNL     1      -0.094  11.550  21.463  0.00  0.00    +0.000 C 
ATOM     19  C   UNL     1       0.518  10.159  21.289  0.00  0.00    +0.000 C 
BRANCH  19  20
ATOM     20  O   UNL     1       1.653  10.064  22.158  0.00  0.00    +0.000 OA
ATOM     21  H   UNL     1       1.986  10.960  22.322  0.00  0.00    +0.000 HD
ENDBRANCH  19  20
ENDBRANCH  13  14
ENDBRANCH   1  10
BRANCH   6  22
ATOM     22  O   UNL     1       5.094   4.682  19.193  0.00  0.00    +0.000 OA
BRANCH  22  23
ATOM     23  C   UNL     1       6.048   4.770  18.120  0.00  0.00    +0.000 C 
BRANCH  23  24
ATOM     24  C   UNL     1       6.840   6.060  18.101  0.00  0.00    +0.000 A 
ATOM     25  C   UNL     1       7.925   6.296  18.945  0.00  0.00    +0.000 A 
ATOM     26  C   UNL     1       8.545   7.550  18.962  0.00  0.00    +0.000 A 
ATOM     27  C   UNL     1       8.105   8.581  18.120  0.00  0.00    +0.000 A 
ATOM     28  C   UNL     1       7.071   8.318  17.212  0.00  0.00    +0.000 A 
ATOM     29  C   UNL     1       6.449   7.068  17.200  0.00  0.00    +0.000 A 
BRANCH  27  30
ATOM     30  C   UNL     1       8.697   9.964  18.202  0.00  0.00    +0.000 C 
ATOM     31  F   UNL     1       9.860  10.104  17.505  0.00  0.00    +0.000 F 
ATOM     32  F   UNL     1       7.859  10.925  17.727  0.00  0.00    +0.000 F 
ATOM     33  F   UNL     1       8.990  10.326  19.484  0.00  0.00    +0.000 F 
ENDBRANCH  27  30
ENDBRANCH  23  24
ENDBRANCH  22  23
ENDBRANCH   6  22
TORSDOF 7
ENDMDL
MODEL 6
REMARK VINA RESULT:      -9.1      0.976      1.312
REMARK  Name = 
REMARK  7 active torsions:
REMARK  status: ('A' for Active; 'I' for Inactive)
REMARK    1  A    between atoms: C_4  and  C_5
REMARK    2  A    between atoms: C_10  and  O_11
REMARK    3  A    between atoms: O_11  and  C_12
REMARK    4  A    between atoms: C_12  and  C_13
REMARK    5  A    between atoms: C_16  and  C_17
REMARK    6  A    between atoms: N_25  and  C_26
REMARK    7  A    between atoms: C_31  and  O_32
REMARK                            x       y       z     vdW  Elec       q    Type
REMARK                         _______ _______ _______ _____ _____    ______ ____
ROOT
ATOM      1  C   UNL     1       2.550   5.501  19.852  0.00  0.00    +0.000 A 
ATOM      2  C   UNL     1       1.723   4.584  20.550  0.00  0.00    +0.000 A 
ATOM      3  C   UNL     1       2.095   3.259  20.773  0.00  0.00    +0.000 A 
ATOM      4  C   UNL     1       3.303   2.798  20.284  0.00  0.00    +0.000 A 
ATOM      5  C   UNL     1       4.112   3.650  19.538  0.00  0.00    +0.000 A 
ATOM      6  C   UNL     1       3.734   4.983  19.271  0.00  0.00    +0.000 A 
ENDROOT
BRANCH   1  10
ATOM      7  O   UNL     1       1.938   9.587  17.459  0.00  0.00    +0.000 OA
ATOM      8  C   UNL     1       1.769   9.029  18.538  0.00  0.00    +0.000 A 
ATOM      9  C   UNL     1       2.236   7.628  18.691  0.00  0.00    +0.000 A 
ATOM     10  C   UNL     1       2.161   6.952  19.857  0.00  0.00    +0.000 A 
ATOM     11  C   UNL     1       1.635   7.686  20.995  0.00  0.00    +0.000 A 
ATOM     12  C   UNL     1       1.128   8.919  20.864  0.00  0.00    +0.000 A 
ATOM     13  N   UNL     1       1.150   9.590  19.652  0.00  0.00    +0.000 N 
BRANCH  13  14
ATOM     14  C   UNL     1       0.495  10.911  19.525  0.00  0.00    +0.000 C 
ATOM     15  C   UNL     1       1.507  12.044  19.276  0.00  0.00    +0.000 C 
ATOM     16  C   UNL     1       0.821  13.403  19.147  0.00  0.00    +0.000 C 
ATOM     17  C   UNL     1      -0.265  13.388  18.075  0.00  0.00    +0.000 C 
ATOM     18  C   UNL     1      -1.288  12.290  18.336  0.00  0.00    +0.000 C 
ATOM     19  C   UNL     1      -0.630  10.913  18.449  0.00  0.00    +0.000 C 
BRANCH  19  20
ATOM     20  O   UNL     1      -1.652   9.960  18.761  0.00  0.00    +0.000 OA
ATOM     21  H   UNL     1      -2.507  10.421  18.768  0.00  0.00    +0.000 HD
ENDBRANCH  19  20
ENDBRANCH  13  14
ENDBRANCH   1  10
BRANCH   6  22
ATOM     22  O   UNL     1       4.510   5.798  18.468  0.00  0.00    +0.000 OA
BRANCH  22  23
ATOM     23  C   UNL     1       5.760   5.225  18.044  0.00  0.00    +0.000 C 
BRANCH  23  24
ATOM     24  C   UNL     1       5.827   4.917  16.564  0.00  0.00    +0.000 A 
ATOM     25  C   UNL     1       4.753   4.386  15.850  0.00  0.00    +0.000 A 
ATOM     26  C   UNL     1       4.911   4.014  14.511  0.00  0.00    +0.000 A 
ATOM     27  C   UNL     1       6.140   4.187  13.857  0.00  0.00    +0.000 A 
ATOM     28  C   UNL     1       7.193   4.799  14.548  0.00  0.00    +0.000 A 
ATOM     29  C   UNL     1       7.035   5.164  15.887  0.00  0.00    +0.000 A 
BRANCH  27  30
ATOM     30  C   UNL     1       6.351   3.697  12.448  0.00  0.00    +0.000 C 
ATOM     31  F   UNL     1       6.835   2.424  12.379  0.00  0.00    +0.000 F 
ATOM     32  F   UNL     1       5.207   3.703  11.711  0.00  0.00    +0.000 F 
ATOM     33  F   UNL     1       7.241   4.468  11.761  0.00  0.00    +0.000 F 
ENDBRANCH  27  30
ENDBRANCH  23  24
ENDBRANCH  22  23
ENDBRANCH   6  22
TORSDOF 7
ENDMDL
MODEL 7
REMARK VINA RESULT:      -9.1      1.112      1.565
REMARK  Name = 
REMARK  7 active torsions:
REMARK  status: ('A' for Active; 'I' for Inactive)
REMARK    1  A    between atoms: C_4  and  C_5
REMARK    2  A    between atoms: C_10  and  O_11
REMARK    3  A    between atoms: O_11  and  C_12
REMARK    4  A    between atoms: C_12  and  C_13
REMARK    5  A    between atoms: C_16  and  C_17
REMARK    6  A    between atoms: N_25  and  C_26
REMARK    7  A    between atoms: C_31  and  O_32
REMARK                            x       y       z     vdW  Elec       q    Type
REMARK                         _______ _______ _______ _____ _____    ______ ____
ROOT
ATOM      1  C   UNL     1       2.810   4.744  18.628  0.00  0.00    +0.000 A 
ATOM      2  C   UNL     1       1.768   3.856  18.259  0.00  0.00    +0.000 A 
ATOM      3  C   UNL     1       1.983   2.494  18.049  0.00  0.00    +0.000 A 
ATOM      4  C   UNL     1       3.257   1.977  18.180  0.00  0.00    +0.000 A 
ATOM      5  C   UNL     1       4.318   2.829  18.476  0.00  0.00    +0.000 A 
ATOM      6  C   UNL     1       4.125   4.215  18.655  0.00  0.00    +0.000 A 
ENDROOT
BRANCH   1  10
ATOM      7  O   UNL     1       2.131   9.324  17.461  0.00  0.00    +0.000 OA
ATOM      8  C   UNL     1       2.008   8.494  18.356  0.00  0.00    +0.000 A 
ATOM      9  C   UNL     1       2.465   7.106  18.102  0.00  0.00    +0.000 A 
ATOM     10  C   UNL     1       2.439   6.139  19.043  0.00  0.00    +0.000 A 
ATOM     11  C   UNL     1       1.977   6.537  20.363  0.00  0.00    +0.000 A 
ATOM     12  C   UNL     1       1.479   7.759  20.595  0.00  0.00    +0.000 A 
ATOM     13  N   UNL     1       1.451   8.732  19.610  0.00  0.00    +0.000 N 
BRANCH  13  14
ATOM     14  C   UNL     1       0.805  10.038  19.877  0.00  0.00    +0.000 C 
ATOM     15  C   UNL     1      -0.408  10.288  18.963  0.00  0.00    +0.000 C 
ATOM     16  C   UNL     1      -1.067  11.636  19.246  0.00  0.00    +0.000 C 
ATOM     17  C   UNL     1      -1.445  11.783  20.717  0.00  0.00    +0.000 C 
ATOM     18  C   UNL     1      -0.240  11.570  21.625  0.00  0.00    +0.000 C 
ATOM     19  C   UNL     1       0.427  10.215  21.377  0.00  0.00    +0.000 C 
BRANCH  19  20
ATOM     20  O   UNL     1       1.583  10.132  22.219  0.00  0.00    +0.000 OA
ATOM     21  H   UNL     1       2.256   9.604  21.761  0.00  0.00    +0.000 HD
ENDBRANCH  19  20
ENDBRANCH  13  14
ENDBRANCH   1  10
BRANCH   6  22
ATOM     22  O   UNL     1       5.194   5.063  18.875  0.00  0.00    +0.000 OA
BRANCH  22  23
ATOM     23  C   UNL     1       5.483   5.973  17.800  0.00  0.00    +0.000 C 
BRANCH  23  24
ATOM     24  C   UNL     1       5.778   5.294  16.479  0.00  0.00    +0.000 A 
ATOM     25  C   UNL     1       7.073   5.105  15.996  0.00  0.00    +0.000 A 
ATOM     26  C   UNL     1       7.278   4.576  14.718  0.00  0.00    +0.000 A 
ATOM     27  C   UNL     1       6.194   4.207  13.910  0.00  0.00    +0.000 A 
ATOM     28  C   UNL     1       4.897   4.316  14.427  0.00  0.00    +0.000 A 
ATOM     29  C   UNL     1       4.693   4.850  15.701  0.00  0.00    +0.000 A 
BRANCH  27  30
ATOM     30  C   UNL     1       6.399   3.732  12.494  0.00  0.00    +0.000 C 
ATOM     31  F   UNL     1       7.327   4.454  11.804  0.00  0.00    +0.000 F 
ATOM     32  F   UNL     1       6.809   2.437  12.428  0.00  0.00    +0.000 F 
ATOM     33  F   UNL     1       5.256   3.800  11.755  0.00  0.00    +0.000 F 
ENDBRANCH  27  30
ENDBRANCH  23  24
ENDBRANCH  22  23
ENDBRANCH   6  22
TORSDOF 7
ENDMDL
MODEL 8
REMARK VINA RESULT:      -9.1      1.289      1.799
REMARK  Name = 
REMARK  7 active torsions:
REMARK  status: ('A' for Active; 'I' for Inactive)
REMARK    1  A    between atoms: C_4  and  C_5
REMARK    2  A    between atoms: C_10  and  O_11
REMARK    3  A    between atoms: O_11  and  C_12
REMARK    4  A    between atoms: C_12  and  C_13
REMARK    5  A    between atoms: C_16  and  C_17
REMARK    6  A    between atoms: N_25  and  C_26
REMARK    7  A    between atoms: C_31  and  O_32
REMARK                            x       y       z     vdW  Elec       q    Type
REMARK                         _______ _______ _______ _____ _____    ______ ____
ROOT
ATOM      1  C   UNL     1       2.784   5.440  19.027  0.00  0.00    +0.000 A 
ATOM      2  C   UNL     1       1.844   4.499  18.534  0.00  0.00    +0.000 A 
ATOM      3  C   UNL     1       2.113   3.131  18.479  0.00  0.00    +0.000 A 
ATOM      4  C   UNL     1       3.343   2.660  18.895  0.00  0.00    +0.000 A 
ATOM      5  C   UNL     1       4.315   3.560  19.323  0.00  0.00    +0.000 A 
ATOM      6  C   UNL     1       4.074   4.950  19.351  0.00  0.00    +0.000 A 
ENDROOT
BRANCH   1  10
ATOM      7  O   UNL     1       2.031   9.827  17.300  0.00  0.00    +0.000 OA
ATOM      8  C   UNL     1       1.861   9.095  18.269  0.00  0.00    +0.000 A 
ATOM      9  C   UNL     1       2.394   7.711  18.212  0.00  0.00    +0.000 A 
ATOM     10  C   UNL     1       2.322   6.852  19.250  0.00  0.00    +0.000 A 
ATOM     11  C   UNL     1       1.728   7.368  20.473  0.00  0.00    +0.000 A 
ATOM     12  C   UNL     1       1.163   8.581  20.524  0.00  0.00    +0.000 A 
ATOM     13  N   UNL     1       1.185   9.439  19.436  0.00  0.00    +0.000 N 
BRANCH  13  14
ATOM     14  C   UNL     1       0.467  10.733  19.500  0.00  0.00    +0.000 C 
ATOM     15  C   UNL     1       1.428  11.935  19.511  0.00  0.00    +0.000 C 
ATOM     16  C   UNL     1       0.679  13.264  19.577  0.00  0.00    +0.000 C 
ATOM     17  C   UNL     1      -0.349  13.390  18.457  0.00  0.00    +0.000 C 
ATOM     18  C   UNL     1      -1.324  12.219  18.462  0.00  0.00    +0.000 C 
ATOM     19  C   UNL     1      -0.600  10.874  18.376  0.00  0.00    +0.000 C 
BRANCH  19  20
ATOM     20  O   UNL     1      -1.585   9.836  18.457  0.00  0.00    +0.000 OA
ATOM     21  H   UNL     1      -2.031   9.908  19.316  0.00  0.00    +0.000 HD
ENDBRANCH  19  20
ENDBRANCH  13  14
ENDBRANCH   1  10
BRANCH   6  22
ATOM     22  O   UNL     1       5.069   5.841  19.707  0.00  0.00    +0.000 OA
BRANCH  22  23
ATOM     23  C   UNL     1       6.359   5.575  19.130  0.00  0.00    +0.000 C 
BRANCH  23  24
ATOM     24  C   UNL     1       6.330   5.327  17.638  0.00  0.00    +0.000 A 
ATOM     25  C   UNL     1       5.467   6.003  16.773  0.00  0.00    +0.000 A 
ATOM     26  C   UNL     1       5.405   5.649  15.422  0.00  0.00    +0.000 A 
ATOM     27  C   UNL     1       6.218   4.630  14.907  0.00  0.00    +0.000 A 
ATOM     28  C   UNL     1       7.145   4.010  15.755  0.00  0.00    +0.000 A 
ATOM     29  C   UNL     1       7.202   4.360  17.106  0.00  0.00    +0.000 A 
BRANCH  27  30
ATOM     30  C   UNL     1       6.086   4.171  13.477  0.00  0.00    +0.000 C 
ATOM     31  F   UNL     1       4.831   4.323  12.968  0.00  0.00    +0.000 F 
ATOM     32  F   UNL     1       6.916   4.839  12.631  0.00  0.00    +0.000 F 
ATOM     33  F   UNL     1       6.387   2.850  13.328  0.00  0.00    +0.000 F 
ENDBRANCH  27  30
ENDBRANCH  23  24
ENDBRANCH  22  23
ENDBRANCH   6  22
TORSDOF 7
ENDMDL
MODEL 9
REMARK VINA RESULT:      -9.1      1.293      1.597
REMARK  Name = 
REMARK  7 active torsions:
REMARK  status: ('A' for Active; 'I' for Inactive)
REMARK    1  A    between atoms: C_4  and  C_5
REMARK    2  A    between atoms: C_10  and  O_11
REMARK    3  A    between atoms: O_11  and  C_12
REMARK    4  A    between atoms: C_12  and  C_13
REMARK    5  A    between atoms: C_16  and  C_17
REMARK    6  A    between atoms: N_25  and  C_26
REMARK    7  A    between atoms: C_31  and  O_32
REMARK                            x       y       z     vdW  Elec       q    Type
REMARK                         _______ _______ _______ _____ _____    ______ ____
ROOT
ATOM      1  C   UNL     1       2.974   5.306  18.859  0.00  0.00    +0.000 A 
ATOM      2  C   UNL     1       2.101   4.385  18.223  0.00  0.00    +0.000 A 
ATOM      3  C   UNL     1       2.390   3.024  18.127  0.00  0.00    +0.000 A 
ATOM      4  C   UNL     1       3.576   2.540  18.646  0.00  0.00    +0.000 A 
ATOM      5  C   UNL     1       4.487   3.423  19.218  0.00  0.00    +0.000 A 
ATOM      6  C   UNL     1       4.228   4.808  19.291  0.00  0.00    +0.000 A 
ENDROOT
BRANCH   1  10
ATOM      7  O   UNL     1       1.905   9.635  17.152  0.00  0.00    +0.000 OA
ATOM      8  C   UNL     1       1.845   8.910  18.140  0.00  0.00    +0.000 A 
ATOM      9  C   UNL     1       2.426   7.548  18.054  0.00  0.00    +0.000 A 
ATOM     10  C   UNL     1       2.474   6.701  19.104  0.00  0.00    +0.000 A 
ATOM     11  C   UNL     1       1.961   7.210  20.365  0.00  0.00    +0.000 A 
ATOM     12  C   UNL     1       1.353   8.401  20.449  0.00  0.00    +0.000 A 
ATOM     13  N   UNL     1       1.251   9.244  19.355  0.00  0.00    +0.000 N 
BRANCH  13  14
ATOM     14  C   UNL     1       0.489  10.508  19.463  0.00  0.00    +0.000 C 
ATOM     15  C   UNL     1      -0.603  10.441  20.546  0.00  0.00    +0.000 C 
ATOM     16  C   UNL     1      -1.384  11.750  20.651  0.00  0.00    +0.000 C 
ATOM     17  C   UNL     1      -0.460  12.943  20.872  0.00  0.00    +0.000 C 
ATOM     18  C   UNL     1       0.602  13.034  19.783  0.00  0.00    +0.000 C 
ATOM     19  C   UNL     1       1.415  11.742  19.671  0.00  0.00    +0.000 C 
BRANCH  19  20
ATOM     20  O   UNL     1       2.335  11.893  18.584  0.00  0.00    +0.000 OA
ATOM     21  H   UNL     1       2.996  12.558  18.834  0.00  0.00    +0.000 HD
ENDBRANCH  19  20
ENDBRANCH  13  14
ENDBRANCH   1  10
BRANCH   6  22
ATOM     22  O   UNL     1       5.170   5.685  19.794  0.00  0.00    +0.000 OA
BRANCH  22  23
ATOM     23  C   UNL     1       6.459   5.627  19.158  0.00  0.00    +0.000 C 
BRANCH  23  24
ATOM     24  C   UNL     1       6.400   5.368  17.668  0.00  0.00    +0.000 A 
ATOM     25  C   UNL     1       5.522   6.038  16.815  0.00  0.00    +0.000 A 
ATOM     26  C   UNL     1       5.434   5.675  15.468  0.00  0.00    +0.000 A 
ATOM     27  C   UNL     1       6.236   4.651  14.944  0.00  0.00    +0.000 A 
ATOM     28  C   UNL     1       7.178   4.037  15.779  0.00  0.00    +0.000 A 
ATOM     29  C   UNL     1       7.262   4.397  17.126  0.00  0.00    +0.000 A 
BRANCH  27  30
ATOM     30  C   UNL     1       6.077   4.182  13.521  0.00  0.00    +0.000 C 
ATOM     31  F   UNL     1       4.831   4.395  13.011  0.00  0.00    +0.000 F 
ATOM     32  F   UNL     1       6.941   4.794  12.666  0.00  0.00    +0.000 F 
ATOM     33  F   UNL     1       6.306   2.845  13.389  0.00  0.00    +0.000 F 
ENDBRANCH  27  30
ENDBRANCH  23  24
ENDBRANCH  22  23
ENDBRANCH   6  22
TORSDOF 7
ENDMDL
