MODEL 1
REMARK VINA RESULT:      -6.3      0.000      0.000
REMARK  Name = 
REMARK  10 active torsions:
REMARK  status: ('A' for Active; 'I' for Inactive)
REMARK    1  A    between atoms: C_1  and  C_2
REMARK    2  A    between atoms: C_2  and  N_3
REMARK    3  A    between atoms: C_2  and  C_8
REMARK    4  A    between atoms: N_3  and  C_4
REMARK    5  A    between atoms: C_4  and  C_5
REMARK    6  A    between atoms: C_4  and  C_6
REMARK    7  A    between atoms: C_4  and  C_7
REMARK    8  A    between atoms: C_8  and  O_9
REMARK    9  A    between atoms: C_8  and  C_10
REMARK   10  A    between atoms: C_13  and  O_14
REMARK                            x       y       z     vdW  Elec       q    Type
REMARK                         _______ _______ _______ _____ _____    ______ ____
ROOT
ATOM      1  C   UNL     1       2.440   5.449  17.845  0.00  0.00    +0.000 C 
ENDROOT
BRANCH   1   2
ATOM      2  C   UNL     1       3.868   5.253  17.361  0.00  0.00    +0.000 A 
ATOM      3  C   UNL     1       4.240   4.051  16.730  0.00  0.00    +0.000 A 
ATOM      4  C   UNL     1       5.566   3.813  16.347  0.00  0.00    +0.000 A 
ATOM      5  C   UNL     1       6.538   4.779  16.586  0.00  0.00    +0.000 A 
ATOM      6  C   UNL     1       6.185   5.988  17.192  0.00  0.00    +0.000 A 
ATOM      7 CL   UNL     1       7.362   7.212  17.501  0.00  0.00    +0.000 Cl
ATOM      8  C   UNL     1       4.861   6.220  17.579  0.00  0.00    +0.000 A 
BRANCH   5   9
ATOM      9  O   UNL     1       7.842   4.535  16.244  0.00  0.00    +0.000 OA
ATOM     10  H   UNL     1       8.022   3.585  16.327  0.00  0.00    +0.000 HD
ENDBRANCH   5   9
ENDBRANCH   1   2
BRANCH   1  12
ATOM     11  C   UNL     1       2.310   6.886  19.910  0.00  0.00    +0.000 C 
ATOM     12  C   UNL     1       2.142   5.456  19.394  0.00  0.00    +0.000 C 
BRANCH  12  13
ATOM     13  N   UNL     1       2.912   4.411  20.121  0.00  0.00    +0.000 NA
ATOM     14  H   UNL     1       3.227   4.795  21.015  0.00  0.00    +0.000 HD
BRANCH  13  15
ATOM     15  C   UNL     1       2.279   3.086  20.364  0.00  0.00    +0.000 C 
ATOM     16  C   UNL     1       2.527   2.555  21.788  0.00  0.00    +0.000 C 
ATOM     17  C   UNL     1       0.750   3.274  20.210  0.00  0.00    +0.000 C 
ATOM     18  C   UNL     1       2.689   2.007  19.346  0.00  0.00    +0.000 C 
ENDBRANCH  13  15
ENDBRANCH  12  13
ENDBRANCH   1  12
BRANCH   1  19
ATOM     19  O   UNL     1       1.615   4.468  17.185  0.00  0.00    +0.000 OA
ATOM     20  H   UNL     1       0.842   4.976  16.885  0.00  0.00    +0.000 HD
ENDBRANCH   1  19
TORSDOF 6
ENDMDL
MODEL 2
REMARK VINA RESULT:      -6.2      0.090      1.076
REMARK  Name = 
REMARK  10 active torsions:
REMARK  status: ('A' for Active; 'I' for Inactive)
REMARK    1  A    between atoms: C_1  and  C_2
REMARK    2  A    between atoms: C_2  and  N_3
REMARK    3  A    between atoms: C_2  and  C_8
REMARK    4  A    between atoms: N_3  and  C_4
REMARK    5  A    between atoms: C_4  and  C_5
REMARK    6  A    between atoms: C_4  and  C_6
REMARK    7  A    between atoms: C_4  and  C_7
REMARK    8  A    between atoms: C_8  and  O_9
REMARK    9  A    between atoms: C_8  and  C_10
REMARK   10  A    between atoms: C_13  and  O_14
REMARK                            x       y       z     vdW  Elec       q    Type
REMARK                         _______ _______ _______ _____ _____    ______ ____
ROOT
ATOM      1  C   UNL     1       2.447   5.458  17.839  0.00  0.00    +0.000 C 
ENDROOT
BRANCH   1   2
ATOM      2  C   UNL     1       3.878   5.258  17.363  0.00  0.00    +0.000 A 
ATOM      3  C   UNL     1       4.248   4.057  16.728  0.00  0.00    +0.000 A 
ATOM      4  C   UNL     1       5.575   3.815  16.351  0.00  0.00    +0.000 A 
ATOM      5  C   UNL     1       6.550   4.775  16.601  0.00  0.00    +0.000 A 
ATOM      6  C   UNL     1       6.199   5.982  17.212  0.00  0.00    +0.000 A 
ATOM      7 CL   UNL     1       7.379   7.199  17.535  0.00  0.00    +0.000 Cl
ATOM      8  C   UNL     1       4.873   6.219  17.592  0.00  0.00    +0.000 A 
BRANCH   5   9
ATOM      9  O   UNL     1       7.854   4.526  16.267  0.00  0.00    +0.000 OA
ATOM     10  H   UNL     1       7.939   3.607  15.968  0.00  0.00    +0.000 HD
ENDBRANCH   5   9
ENDBRANCH   1   2
BRANCH   1  12
ATOM     11  C   UNL     1       2.318   6.921  19.885  0.00  0.00    +0.000 C 
ATOM     12  C   UNL     1       2.144   5.486  19.386  0.00  0.00    +0.000 C 
BRANCH  12  13
ATOM     13  N   UNL     1       2.905   4.447  20.129  0.00  0.00    +0.000 NA
ATOM     14  H   UNL     1       3.221   4.841  21.018  0.00  0.00    +0.000 HD
BRANCH  13  15
ATOM     15  C   UNL     1       2.263   3.128  20.388  0.00  0.00    +0.000 C 
ATOM     16  C   UNL     1       0.757   3.122  20.069  0.00  0.00    +0.000 C 
ATOM     17  C   UNL     1       2.932   2.100  19.444  0.00  0.00    +0.000 C 
ATOM     18  C   UNL     1       2.476   2.607  21.820  0.00  0.00    +0.000 C 
ENDBRANCH  13  15
ENDBRANCH  12  13
ENDBRANCH   1  12
BRANCH   1  19
ATOM     19  O   UNL     1       1.626   4.466  17.189  0.00  0.00    +0.000 OA
ATOM     20  H   UNL     1       1.298   4.918  16.393  0.00  0.00    +0.000 HD
ENDBRANCH   1  19
TORSDOF 6
ENDMDL
MODEL 3
REMARK VINA RESULT:      -6.1      1.888      2.166
REMARK  Name = 
REMARK  10 active torsions:
REMARK  status: ('A' for Active; 'I' for Inactive)
REMARK    1  A    between atoms: C_1  and  C_2
REMARK    2  A    between atoms: C_2  and  N_3
REMARK    3  A    between atoms: C_2  and  C_8
REMARK    4  A    between atoms: N_3  and  C_4
REMARK    5  A    between atoms: C_4  and  C_5
REMARK    6  A    between atoms: C_4  and  C_6
REMARK    7  A    between atoms: C_4  and  C_7
REMARK    8  A    between atoms: C_8  and  O_9
REMARK    9  A    between atoms: C_8  and  C_10
REMARK   10  A    between atoms: C_13  and  O_14
REMARK                            x       y       z     vdW  Elec       q    Type
REMARK                         _______ _______ _______ _____ _____    ______ ____
ROOT
ATOM      1  C   UNL     1       3.300   6.191  19.339  0.00  0.00    +0.000 C 
ENDROOT
BRANCH   1   2
ATOM      2  C   UNL     1       4.405   6.085  18.301  0.00  0.00    +0.000 A 
ATOM      3  C   UNL     1       4.210   6.604  17.007  0.00  0.00    +0.000 A 
ATOM      4  C   UNL     1       5.180   6.450  16.009  0.00  0.00    +0.000 A 
ATOM      5  C   UNL     1       6.364   5.777  16.295  0.00  0.00    +0.000 A 
ATOM      6  C   UNL     1       6.586   5.273  17.579  0.00  0.00    +0.000 A 
ATOM      7 CL   UNL     1       8.044   4.436  17.973  0.00  0.00    +0.000 Cl
ATOM      8  C   UNL     1       5.612   5.423  18.572  0.00  0.00    +0.000 A 
BRANCH   5   9
ATOM      9  O   UNL     1       7.299   5.594  15.311  0.00  0.00    +0.000 OA
ATOM     10  H   UNL     1       7.656   6.455  15.043  0.00  0.00    +0.000 HD
ENDBRANCH   5   9
ENDBRANCH   1   2
BRANCH   1  12
ATOM     11  C   UNL     1       1.426   5.273  20.751  0.00  0.00    +0.000 C 
ATOM     12  C   UNL     1       2.296   4.988  19.526  0.00  0.00    +0.000 C 
BRANCH  12  13
ATOM     13  N   UNL     1       2.987   3.671  19.517  0.00  0.00    +0.000 NA
ATOM     14  H   UNL     1       2.887   3.239  20.438  0.00  0.00    +0.000 HD
BRANCH  13  15
ATOM     15  C   UNL     1       2.623   2.671  18.475  0.00  0.00    +0.000 C 
ATOM     16  C   UNL     1       3.543   1.437  18.482  0.00  0.00    +0.000 C 
ATOM     17  C   UNL     1       1.193   2.174  18.799  0.00  0.00    +0.000 C 
ATOM     18  C   UNL     1       2.570   3.252  17.051  0.00  0.00    +0.000 C 
ENDBRANCH  13  15
ENDBRANCH  12  13
ENDBRANCH   1  12
BRANCH   1  19
ATOM     19  O   UNL     1       2.572   7.409  19.082  0.00  0.00    +0.000 OA
ATOM     20  H   UNL     1       2.046   7.206  18.290  0.00  0.00    +0.000 HD
ENDBRANCH   1  19
TORSDOF 6
ENDMDL
MODEL 4
REMARK VINA RESULT:      -6.1      1.904      2.209
REMARK  Name = 
REMARK  10 active torsions:
REMARK  status: ('A' for Active; 'I' for Inactive)
REMARK    1  A    between atoms: C_1  and  C_2
REMARK    2  A    between atoms: C_2  and  N_3
REMARK    3  A    between atoms: C_2  and  C_8
REMARK    4  A    between atoms: N_3  and  C_4
REMARK    5  A    between atoms: C_4  and  C_5
REMARK    6  A    between atoms: C_4  and  C_6
REMARK    7  A    between atoms: C_4  and  C_7
REMARK    8  A    between atoms: C_8  and  O_9
REMARK    9  A    between atoms: C_8  and  C_10
REMARK   10  A    between atoms: C_13  and  O_14
REMARK                            x       y       z     vdW  Elec       q    Type
REMARK                         _______ _______ _______ _____ _____    ______ ____
ROOT
ATOM      1  C   UNL     1       3.301   6.151  19.398  0.00  0.00    +0.000 C 
ENDROOT
BRANCH   1   2
ATOM      2  C   UNL     1       4.404   6.074  18.355  0.00  0.00    +0.000 A 
ATOM      3  C   UNL     1       4.204   6.624  17.074  0.00  0.00    +0.000 A 
ATOM      4  C   UNL     1       5.173   6.498  16.071  0.00  0.00    +0.000 A 
ATOM      5  C   UNL     1       6.359   5.821  16.337  0.00  0.00    +0.000 A 
ATOM      6  C   UNL     1       6.586   5.286  17.608  0.00  0.00    +0.000 A 
ATOM      7 CL   UNL     1       8.047   4.444  17.978  0.00  0.00    +0.000 Cl
ATOM      8  C   UNL     1       5.614   5.409  18.607  0.00  0.00    +0.000 A 
BRANCH   5   9
ATOM      9  O   UNL     1       7.293   5.665  15.347  0.00  0.00    +0.000 OA
ATOM     10  H   UNL     1       8.153   5.982  15.665  0.00  0.00    +0.000 HD
ENDBRANCH   5   9
ENDBRANCH   1   2
BRANCH   1  12
ATOM     11  C   UNL     1       1.328   5.265  20.689  0.00  0.00    +0.000 C 
ATOM     12  C   UNL     1       2.270   4.964  19.522  0.00  0.00    +0.000 C 
BRANCH  12  13
ATOM     13  N   UNL     1       2.940   3.637  19.557  0.00  0.00    +0.000 NA
ATOM     14  H   UNL     1       2.846   3.244  20.497  0.00  0.00    +0.000 HD
BRANCH  13  15
ATOM     15  C   UNL     1       2.544   2.602  18.562  0.00  0.00    +0.000 C 
ATOM     16  C   UNL     1       1.118   2.067  18.788  0.00  0.00    +0.000 C 
ATOM     17  C   UNL     1       2.562   3.277  17.169  0.00  0.00    +0.000 C 
ATOM     18  C   UNL     1       3.520   1.415  18.483  0.00  0.00    +0.000 C 
ENDBRANCH  13  15
ENDBRANCH  12  13
ENDBRANCH   1  12
BRANCH   1  19
ATOM     19  O   UNL     1       2.602   7.398  19.206  0.00  0.00    +0.000 OA
ATOM     20  H   UNL     1       3.312   8.042  19.044  0.00  0.00    +0.000 HD
ENDBRANCH   1  19
TORSDOF 6
ENDMDL
MODEL 5
REMARK VINA RESULT:      -6.1      3.142      5.554
REMARK  Name = 
REMARK  10 active torsions:
REMARK  status: ('A' for Active; 'I' for Inactive)
REMARK    1  A    between atoms: C_1  and  C_2
REMARK    2  A    between atoms: C_2  and  N_3
REMARK    3  A    between atoms: C_2  and  C_8
REMARK    4  A    between atoms: N_3  and  C_4
REMARK    5  A    between atoms: C_4  and  C_5
REMARK    6  A    between atoms: C_4  and  C_6
REMARK    7  A    between atoms: C_4  and  C_7
REMARK    8  A    between atoms: C_8  and  O_9
REMARK    9  A    between atoms: C_8  and  C_10
REMARK   10  A    between atoms: C_13  and  O_14
REMARK                            x       y       z     vdW  Elec       q    Type
REMARK                         _______ _______ _______ _____ _____    ______ ____
ROOT
ATOM      1  C   UNL     1       3.306   6.951  17.488  0.00  0.00    +0.000 C 
ENDROOT
BRANCH   1   2
ATOM      2  C   UNL     1       2.609   5.981  18.428  0.00  0.00    +0.000 A 
ATOM      3  C   UNL     1       2.373   6.344  19.768  0.00  0.00    +0.000 A 
ATOM      4  C   UNL     1       1.805   5.441  20.675  0.00  0.00    +0.000 A 
ATOM      5  C   UNL     1       1.461   4.160  20.251  0.00  0.00    +0.000 A 
ATOM      6  C   UNL     1       1.668   3.788  18.920  0.00  0.00    +0.000 A 
ATOM      7 CL   UNL     1       1.250   2.211  18.356  0.00  0.00    +0.000 Cl
ATOM      8  C   UNL     1       2.241   4.691  18.018  0.00  0.00    +0.000 A 
BRANCH   5   9
ATOM      9  O   UNL     1       0.938   3.263  21.144  0.00  0.00    +0.000 OA
ATOM     10  H   UNL     1       0.863   3.685  22.015  0.00  0.00    +0.000 HD
ENDBRANCH   5   9
ENDBRANCH   1   2
BRANCH   1  12
ATOM     11  C   UNL     1       5.023   6.409  15.726  0.00  0.00    +0.000 C 
ATOM     12  C   UNL     1       4.847   6.777  17.200  0.00  0.00    +0.000 C 
BRANCH  12  13
ATOM     13  N   UNL     1       5.504   5.868  18.176  0.00  0.00    +0.000 NA
ATOM     14  H   UNL     1       5.140   4.922  18.043  0.00  0.00    +0.000 HD
BRANCH  13  15
ATOM     15  C   UNL     1       6.992   5.809  18.220  0.00  0.00    +0.000 C 
ATOM     16  C   UNL     1       7.658   7.115  17.748  0.00  0.00    +0.000 C 
ATOM     17  C   UNL     1       7.397   5.602  19.700  0.00  0.00    +0.000 C 
ATOM     18  C   UNL     1       7.588   4.627  17.436  0.00  0.00    +0.000 C 
ENDBRANCH  13  15
ENDBRANCH  12  13
ENDBRANCH   1  12
BRANCH   1  19
ATOM     19  O   UNL     1       3.037   8.288  17.958  0.00  0.00    +0.000 OA
ATOM     20  H   UNL     1       2.276   8.178  18.553  0.00  0.00    +0.000 HD
ENDBRANCH   1  19
TORSDOF 6
ENDMDL
MODEL 6
REMARK VINA RESULT:      -6.1      3.077      5.593
REMARK  Name = 
REMARK  10 active torsions:
REMARK  status: ('A' for Active; 'I' for Inactive)
REMARK    1  A    between atoms: C_1  and  C_2
REMARK    2  A    between atoms: C_2  and  N_3
REMARK    3  A    between atoms: C_2  and  C_8
REMARK    4  A    between atoms: N_3  and  C_4
REMARK    5  A    between atoms: C_4  and  C_5
REMARK    6  A    between atoms: C_4  and  C_6
REMARK    7  A    between atoms: C_4  and  C_7
REMARK    8  A    between atoms: C_8  and  O_9
REMARK    9  A    between atoms: C_8  and  C_10
REMARK   10  A    between atoms: C_13  and  O_14
REMARK                            x       y       z     vdW  Elec       q    Type
REMARK                         _______ _______ _______ _____ _____    ______ ____
ROOT
ATOM      1  C   UNL     1       3.395   6.675  17.483  0.00  0.00    +0.000 C 
ENDROOT
BRANCH   1   2
ATOM      2  C   UNL     1       2.656   5.762  18.449  0.00  0.00    +0.000 A 
ATOM      3  C   UNL     1       2.499   6.139  19.796  0.00  0.00    +0.000 A 
ATOM      4  C   UNL     1       1.893   5.283  20.724  0.00  0.00    +0.000 A 
ATOM      5  C   UNL     1       1.431   4.036  20.314  0.00  0.00    +0.000 A 
ATOM      6  C   UNL     1       1.559   3.651  18.977  0.00  0.00    +0.000 A 
ATOM      7 CL   UNL     1       0.994   2.115  18.429  0.00  0.00    +0.000 Cl
ATOM      8  C   UNL     1       2.170   4.507  18.053  0.00  0.00    +0.000 A 
BRANCH   5   9
ATOM      9  O   UNL     1       0.871   3.182  21.226  0.00  0.00    +0.000 OA
ATOM     10  H   UNL     1      -0.065   3.409  21.345  0.00  0.00    +0.000 HD
ENDBRANCH   5   9
ENDBRANCH   1   2
BRANCH   1  12
ATOM     11  C   UNL     1       4.999   5.695  15.807  0.00  0.00    +0.000 C 
ATOM     12  C   UNL     1       4.914   6.396  17.163  0.00  0.00    +0.000 C 
BRANCH  12  13
ATOM     13  N   UNL     1       5.611   5.716  18.287  0.00  0.00    +0.000 NA
ATOM     14  H   UNL     1       5.334   4.732  18.301  0.00  0.00    +0.000 HD
BRANCH  13  15
ATOM     15  C   UNL     1       7.096   5.798  18.371  0.00  0.00    +0.000 C 
ATOM     16  C   UNL     1       7.624   5.626  19.808  0.00  0.00    +0.000 C 
ATOM     17  C   UNL     1       7.666   4.628  17.534  0.00  0.00    +0.000 C 
ATOM     18  C   UNL     1       7.680   7.089  17.771  0.00  0.00    +0.000 C 
ENDBRANCH  13  15
ENDBRANCH  12  13
ENDBRANCH   1  12
BRANCH   1  19
ATOM     19  O   UNL     1       3.226   8.031  17.945  0.00  0.00    +0.000 OA
ATOM     20  H   UNL     1       3.012   8.528  17.138  0.00  0.00    +0.000 HD
ENDBRANCH   1  19
TORSDOF 6
ENDMDL
MODEL 7
REMARK VINA RESULT:      -6.1      2.272      2.923
REMARK  Name = 
REMARK  10 active torsions:
REMARK  status: ('A' for Active; 'I' for Inactive)
REMARK    1  A    between atoms: C_1  and  C_2
REMARK    2  A    between atoms: C_2  and  N_3
REMARK    3  A    between atoms: C_2  and  C_8
REMARK    4  A    between atoms: N_3  and  C_4
REMARK    5  A    between atoms: C_4  and  C_5
REMARK    6  A    between atoms: C_4  and  C_6
REMARK    7  A    between atoms: C_4  and  C_7
REMARK    8  A    between atoms: C_8  and  O_9
REMARK    9  A    between atoms: C_8  and  C_10
REMARK   10  A    between atoms: C_13  and  O_14
REMARK                            x       y       z     vdW  Elec       q    Type
REMARK                         _______ _______ _______ _____ _____    ______ ____
ROOT
ATOM      1  C   UNL     1       4.567   3.245  17.947  0.00  0.00    +0.000 C 
ENDROOT
BRANCH   1   2
ATOM      2  C   UNL     1       5.491   3.813  16.882  0.00  0.00    +0.000 A 
ATOM      3  C   UNL     1       6.466   4.767  17.230  0.00  0.00    +0.000 A 
ATOM      4  C   UNL     1       7.276   5.364  16.256  0.00  0.00    +0.000 A 
ATOM      5  C   UNL     1       7.125   5.009  14.919  0.00  0.00    +0.000 A 
ATOM      6  C   UNL     1       6.177   4.049  14.556  0.00  0.00    +0.000 A 
ATOM      7 CL   UNL     1       5.963   3.579  12.909  0.00  0.00    +0.000 Cl
ATOM      8  C   UNL     1       5.365   3.458  15.530  0.00  0.00    +0.000 A 
BRANCH   5   9
ATOM      9  O   UNL     1       7.891   5.618  13.961  0.00  0.00    +0.000 OA
ATOM     10  H   UNL     1       7.431   6.409  13.637  0.00  0.00    +0.000 HD
ENDBRANCH   5   9
ENDBRANCH   1   2
BRANCH   1  12
ATOM     11  C   UNL     1       3.367   5.451  17.760  0.00  0.00    +0.000 C 
ATOM     12  C   UNL     1       3.269   4.045  18.352  0.00  0.00    +0.000 C 
BRANCH  12  13
ATOM     13  N   UNL     1       2.996   3.975  19.812  0.00  0.00    +0.000 NA
ATOM     14  H   UNL     1       3.244   4.871  20.238  0.00  0.00    +0.000 HD
BRANCH  13  15
ATOM     15  C   UNL     1       1.636   3.584  20.275  0.00  0.00    +0.000 C 
ATOM     16  C   UNL     1       0.696   4.789  20.461  0.00  0.00    +0.000 C 
ATOM     17  C   UNL     1       1.017   2.691  19.172  0.00  0.00    +0.000 C 
ATOM     18  C   UNL     1       1.638   2.744  21.564  0.00  0.00    +0.000 C 
ENDBRANCH  13  15
ENDBRANCH  12  13
ENDBRANCH   1  12
BRANCH   1  19
ATOM     19  O   UNL     1       5.364   2.967  19.117  0.00  0.00    +0.000 OA
ATOM     20  H   UNL     1       5.158   2.040  19.327  0.00  0.00    +0.000 HD
ENDBRANCH   1  19
TORSDOF 6
ENDMDL
MODEL 8
REMARK VINA RESULT:      -6.0      3.109      5.674
REMARK  Name = 
REMARK  10 active torsions:
REMARK  status: ('A' for Active; 'I' for Inactive)
REMARK    1  A    between atoms: C_1  and  C_2
REMARK    2  A    between atoms: C_2  and  N_3
REMARK    3  A    between atoms: C_2  and  C_8
REMARK    4  A    between atoms: N_3  and  C_4
REMARK    5  A    between atoms: C_4  and  C_5
REMARK    6  A    between atoms: C_4  and  C_6
REMARK    7  A    between atoms: C_4  and  C_7
REMARK    8  A    between atoms: C_8  and  O_9
REMARK    9  A    between atoms: C_8  and  C_10
REMARK   10  A    between atoms: C_13  and  O_14
REMARK                            x       y       z     vdW  Elec       q    Type
REMARK                         _______ _______ _______ _____ _____    ______ ____
ROOT
ATOM      1  C   UNL     1       4.146   6.221  17.047  0.00  0.00    +0.000 C 
ENDROOT
BRANCH   1   2
ATOM      2  C   UNL     1       3.484   4.979  17.622  0.00  0.00    +0.000 A 
ATOM      3  C   UNL     1       3.736   3.717  17.051  0.00  0.00    +0.000 A 
ATOM      4  C   UNL     1       3.079   2.569  17.510  0.00  0.00    +0.000 A 
ATOM      5  C   UNL     1       2.162   2.668  18.553  0.00  0.00    +0.000 A 
ATOM      6  C   UNL     1       1.914   3.908  19.147  0.00  0.00    +0.000 A 
ATOM      7 CL   UNL     1       0.789   4.070  20.446  0.00  0.00    +0.000 Cl
ATOM      8  C   UNL     1       2.568   5.054  18.683  0.00  0.00    +0.000 A 
BRANCH   5   9
ATOM      9  O   UNL     1       1.492   1.553  18.980  0.00  0.00    +0.000 OA
ATOM     10  H   UNL     1       1.334   0.964  18.224  0.00  0.00    +0.000 HD
ENDBRANCH   5   9
ENDBRANCH   1   2
BRANCH   1  12
ATOM     11  C   UNL     1       6.405   7.303  17.319  0.00  0.00    +0.000 C 
ATOM     12  C   UNL     1       5.663   6.162  16.621  0.00  0.00    +0.000 C 
BRANCH  12  13
ATOM     13  N   UNL     1       5.831   6.090  15.145  0.00  0.00    +0.000 NA
ATOM     14  H   UNL     1       6.321   6.929  14.827  0.00  0.00    +0.000 HD
BRANCH  13  15
ATOM     15  C   UNL     1       6.492   4.894  14.551  0.00  0.00    +0.000 C 
ATOM     16  C   UNL     1       7.662   5.258  13.618  0.00  0.00    +0.000 C 
ATOM     17  C   UNL     1       7.083   4.071  15.721  0.00  0.00    +0.000 C 
ATOM     18  C   UNL     1       5.525   3.959  13.805  0.00  0.00    +0.000 C 
ENDBRANCH  13  15
ENDBRANCH  12  13
ENDBRANCH   1  12
BRANCH   1  19
ATOM     19  O   UNL     1       3.934   7.302  17.979  0.00  0.00    +0.000 OA
ATOM     20  H   UNL     1       3.957   8.099  17.422  0.00  0.00    +0.000 HD
ENDBRANCH   1  19
TORSDOF 6
ENDMDL
MODEL 9
REMARK VINA RESULT:      -6.0      1.663      2.013
REMARK  Name = 
REMARK  10 active torsions:
REMARK  status: ('A' for Active; 'I' for Inactive)
REMARK    1  A    between atoms: C_1  and  C_2
REMARK    2  A    between atoms: C_2  and  N_3
REMARK    3  A    between atoms: C_2  and  C_8
REMARK    4  A    between atoms: N_3  and  C_4
REMARK    5  A    between atoms: C_4  and  C_5
REMARK    6  A    between atoms: C_4  and  C_6
REMARK    7  A    between atoms: C_4  and  C_7
REMARK    8  A    between atoms: C_8  and  O_9
REMARK    9  A    between atoms: C_8  and  C_10
REMARK   10  A    between atoms: C_13  and  O_14
REMARK                            x       y       z     vdW  Elec       q    Type
REMARK                         _______ _______ _______ _____ _____    ______ ____
ROOT
ATOM      1  C   UNL     1       3.307   6.593  18.919  0.00  0.00    +0.000 C 
ENDROOT
BRANCH   1   2
ATOM      2  C   UNL     1       4.494   5.860  18.313  0.00  0.00    +0.000 A 
ATOM      3  C   UNL     1       5.651   5.634  19.083  0.00  0.00    +0.000 A 
ATOM      4  C   UNL     1       6.786   5.032  18.526  0.00  0.00    +0.000 A 
ATOM      5  C   UNL     1       6.777   4.643  17.190  0.00  0.00    +0.000 A 
ATOM      6  C   UNL     1       5.631   4.839  16.416  0.00  0.00    +0.000 A 
ATOM      7 CL   UNL     1       5.579   4.364  14.757  0.00  0.00    +0.000 Cl
ATOM      8  C   UNL     1       4.500   5.445  16.973  0.00  0.00    +0.000 A 
BRANCH   5   9
ATOM      9  O   UNL     1       7.898   4.087  16.634  0.00  0.00    +0.000 OA
ATOM     10  H   UNL     1       8.401   4.775  16.170  0.00  0.00    +0.000 HD
ENDBRANCH   5   9
ENDBRANCH   1   2
BRANCH   1  12
ATOM     11  C   UNL     1       1.526   6.750  20.693  0.00  0.00    +0.000 C 
ATOM     12  C   UNL     1       2.237   5.782  19.747  0.00  0.00    +0.000 C 
BRANCH  12  13
ATOM     13  N   UNL     1       2.817   4.568  20.380  0.00  0.00    +0.000 NA
ATOM     14  H   UNL     1       2.641   4.604  21.387  0.00  0.00    +0.000 HD
BRANCH  13  15
ATOM     15  C   UNL     1       2.417   3.226  19.871  0.00  0.00    +0.000 C 
ATOM     16  C   UNL     1       3.623   2.321  19.558  0.00  0.00    +0.000 C 
ATOM     17  C   UNL     1       1.609   2.534  20.995  0.00  0.00    +0.000 C 
ATOM     18  C   UNL     1       1.495   3.280  18.641  0.00  0.00    +0.000 C 
ENDBRANCH  13  15
ENDBRANCH  12  13
ENDBRANCH   1  12
BRANCH   1  19
ATOM     19  O   UNL     1       2.660   7.330  17.861  0.00  0.00    +0.000 OA
ATOM     20  H   UNL     1       1.818   6.863  17.731  0.00  0.00    +0.000 HD
ENDBRANCH   1  19
TORSDOF 6
ENDMDL
