MODEL 1
REMARK VINA RESULT:      -8.2      0.000      0.000
REMARK  Name = 
REMARK  3 active torsions:
REMARK  status: ('A' for Active; 'I' for Inactive)
REMARK    1  A    between atoms: C_1  and  N_2
REMARK    2  A    between atoms: C_7  and  C_8
REMARK    3  A    between atoms: C_16  and  N_17
REMARK                            x       y       z     vdW  Elec       q    Type
REMARK                         _______ _______ _______ _____ _____    ______ ____
ROOT
ATOM      1  C   UNL     1       3.648   6.885  17.231  0.00  0.00    +0.000 A 
ATOM      2  C   UNL     1       4.418   7.539  16.245  0.00  0.00    +0.000 A 
ATOM      3  N   UNL     1       5.333   7.008  15.403  0.00  0.00    +0.000 NA
ATOM      4  C   UNL     1       5.502   5.700  15.614  0.00  0.00    +0.000 A 
ATOM      5  N   UNL     1       6.408   4.956  14.906  0.00  0.00    +0.000 N 
ATOM      6  C   UNL     1       6.377   3.664  15.343  0.00  0.00    +0.000 A 
ATOM      7  C   UNL     1       5.433   3.592  16.340  0.00  0.00    +0.000 A 
ATOM      8  C   UNL     1       4.854   4.887  16.538  0.00  0.00    +0.000 A 
ATOM      9  C   UNL     1       3.857   5.474  17.386  0.00  0.00    +0.000 A 
ATOM     10  H   UNL     1       7.000   5.340  14.188  0.00  0.00    +0.000 HD
ENDROOT
BRANCH   1  17
ATOM     11  C   UNL     1      -0.337  11.187  20.619  0.00  0.00    +0.000 C 
ATOM     12  N   UNL     1       0.311   9.899  20.650  0.00  0.00    +0.000 N 
ATOM     13  N   UNL     1       0.219   9.129  21.753  0.00  0.00    +0.000 NA
ATOM     14  C   UNL     1       1.002   8.085  21.467  0.00  0.00    +0.000 A 
ATOM     15  C   UNL     1       1.596   8.183  20.190  0.00  0.00    +0.000 A 
ATOM     16  C   UNL     1       2.502   7.420  19.428  0.00  0.00    +0.000 A 
ATOM     17  C   UNL     1       2.770   7.751  18.076  0.00  0.00    +0.000 A 
ATOM     18  C   UNL     1       2.099   8.866  17.549  0.00  0.00    +0.000 A 
ATOM     19  C   UNL     1       1.314   9.729  18.328  0.00  0.00    +0.000 A 
ATOM     20  C   UNL     1       1.060   9.342  19.644  0.00  0.00    +0.000 A 
ENDBRANCH   1  17
BRANCH   9  21
ATOM     21  N   UNL     1       3.174   4.693  18.362  0.00  0.00    +0.000 N 
ATOM     22  C   UNL     1       2.329   3.541  18.248  0.00  0.00    +0.000 C 
ATOM     23  C   UNL     1       2.402   3.391  19.773  0.00  0.00    +0.000 C 
ATOM     24  C   UNL     1       2.771   1.986  20.254  0.00  0.00    +0.000 C 
ATOM     25  C   UNL     1       2.150   1.907  21.646  0.00  0.00    +0.000 C 
ATOM     26  N   UNL     1       1.075   2.855  21.655  0.00  0.00    +0.000 N 
ATOM     27  C   UNL     1       1.167   3.797  20.650  0.00  0.00    +0.000 C 
ATOM     28  O   UNL     1       0.400   4.750  20.571  0.00  0.00    +0.000 OA
ATOM     29  C   UNL     1       3.527   4.428  19.720  0.00  0.00    +0.000 C 
ATOM     30  H   UNL     1       0.459   3.032  22.442  0.00  0.00    +0.000 HD
ENDBRANCH   9  21
TORSDOF 2
ENDMDL
MODEL 2
REMARK VINA RESULT:      -8.0      0.577      1.383
REMARK  Name = 
REMARK  3 active torsions:
REMARK  status: ('A' for Active; 'I' for Inactive)
REMARK    1  A    between atoms: C_1  and  N_2
REMARK    2  A    between atoms: C_7  and  C_8
REMARK    3  A    between atoms: C_16  and  N_17
REMARK                            x       y       z     vdW  Elec       q    Type
REMARK                         _______ _______ _______ _____ _____    ______ ____
ROOT
ATOM      1  C   UNL     1       3.625   6.880  17.284  0.00  0.00    +0.000 A 
ATOM      2  C   UNL     1       4.300   7.589  16.266  0.00  0.00    +0.000 A 
ATOM      3  N   UNL     1       5.204   7.125  15.374  0.00  0.00    +0.000 NA
ATOM      4  C   UNL     1       5.469   5.829  15.563  0.00  0.00    +0.000 A 
ATOM      5  N   UNL     1       6.385   5.151  14.805  0.00  0.00    +0.000 N 
ATOM      6  C   UNL     1       6.461   3.858  15.230  0.00  0.00    +0.000 A 
ATOM      7  C   UNL     1       5.575   3.717  16.272  0.00  0.00    +0.000 A 
ATOM      8  C   UNL     1       4.923   4.970  16.512  0.00  0.00    +0.000 A 
ATOM      9  C   UNL     1       3.935   5.484  17.414  0.00  0.00    +0.000 A 
ATOM     10  H   UNL     1       6.913   5.579  14.062  0.00  0.00    +0.000 HD
ENDROOT
BRANCH   1  17
ATOM     11  C   UNL     1      -0.382  10.061  21.721  0.00  0.00    +0.000 C 
ATOM     12  N   UNL     1       0.304  10.168  20.456  0.00  0.00    +0.000 N 
ATOM     13  N   UNL     1       0.156  11.277  19.705  0.00  0.00    +0.000 NA
ATOM     14  C   UNL     1       0.836  10.990  18.592  0.00  0.00    +0.000 A 
ATOM     15  C   UNL     1       1.417   9.703  18.625  0.00  0.00    +0.000 A 
ATOM     16  C   UNL     1       2.172   8.904  17.744  0.00  0.00    +0.000 A 
ATOM     17  C   UNL     1       2.737   7.680  18.180  0.00  0.00    +0.000 A 
ATOM     18  C   UNL     1       2.501   7.309  19.513  0.00  0.00    +0.000 A 
ATOM     19  C   UNL     1       1.627   8.007  20.361  0.00  0.00    +0.000 A 
ATOM     20  C   UNL     1       1.121   9.220  19.892  0.00  0.00    +0.000 A 
ENDBRANCH   1  17
BRANCH   9  21
ATOM     21  N   UNL     1       3.355   4.655  18.415  0.00  0.00    +0.000 N 
ATOM     22  C   UNL     1       2.643   3.413  18.338  0.00  0.00    +0.000 C 
ATOM     23  C   UNL     1       2.750   3.306  19.864  0.00  0.00    +0.000 C 
ATOM     24  C   UNL     1       3.280   1.962  20.370  0.00  0.00    +0.000 C 
ATOM     25  C   UNL     1       2.688   1.845  21.771  0.00  0.00    +0.000 C 
ATOM     26  N   UNL     1       1.513   2.667  21.776  0.00  0.00    +0.000 N 
ATOM     27  C   UNL     1       1.488   3.591  20.750  0.00  0.00    +0.000 C 
ATOM     28  O   UNL     1       0.617   4.450  20.661  0.00  0.00    +0.000 OA
ATOM     29  C   UNL     1       3.751   4.461  19.774  0.00  0.00    +0.000 C 
ATOM     30  H   UNL     1       0.891   2.791  22.567  0.00  0.00    +0.000 HD
ENDBRANCH   9  21
TORSDOF 2
ENDMDL
MODEL 3
REMARK VINA RESULT:      -7.8      2.379      4.843
REMARK  Name = 
REMARK  3 active torsions:
REMARK  status: ('A' for Active; 'I' for Inactive)
REMARK    1  A    between atoms: C_1  and  N_2
REMARK    2  A    between atoms: C_7  and  C_8
REMARK    3  A    between atoms: C_16  and  N_17
REMARK                            x       y       z     vdW  Elec       q    Type
REMARK                         _______ _______ _______ _____ _____    ______ ____
ROOT
ATOM      1  C   UNL     1       2.175   5.366  19.367  0.00  0.00    +0.000 A 
ATOM      2  C   UNL     1       1.136   4.542  19.851  0.00  0.00    +0.000 A 
ATOM      3  N   UNL     1       1.057   3.193  19.836  0.00  0.00    +0.000 NA
ATOM      4  C   UNL     1       2.115   2.639  19.240  0.00  0.00    +0.000 A 
ATOM      5  N   UNL     1       2.235   1.285  19.070  0.00  0.00    +0.000 N 
ATOM      6  C   UNL     1       3.401   1.009  18.420  0.00  0.00    +0.000 A 
ATOM      7  C   UNL     1       4.028   2.208  18.177  0.00  0.00    +0.000 A 
ATOM      8  C   UNL     1       3.224   3.276  18.691  0.00  0.00    +0.000 A 
ATOM      9  C   UNL     1       3.298   4.705  18.764  0.00  0.00    +0.000 A 
ATOM     10  H   UNL     1       1.542   0.625  19.382  0.00  0.00    +0.000 HD
ENDROOT
BRANCH   1  17
ATOM     11  C   UNL     1       1.311  12.080  19.158  0.00  0.00    +0.000 C 
ATOM     12  N   UNL     1       1.191  10.896  19.972  0.00  0.00    +0.000 N 
ATOM     13  N   UNL     1       0.799  11.003  21.257  0.00  0.00    +0.000 NA
ATOM     14  C   UNL     1       0.895   9.752  21.715  0.00  0.00    +0.000 A 
ATOM     15  C   UNL     1       1.348   8.845  20.732  0.00  0.00    +0.000 A 
ATOM     16  C   UNL     1       1.658   7.472  20.680  0.00  0.00    +0.000 A 
ATOM     17  C   UNL     1       1.949   6.842  19.445  0.00  0.00    +0.000 A 
ATOM     18  C   UNL     1       1.920   7.649  18.296  0.00  0.00    +0.000 A 
ATOM     19  C   UNL     1       1.767   9.043  18.341  0.00  0.00    +0.000 A 
ATOM     20  C   UNL     1       1.456   9.608  19.577  0.00  0.00    +0.000 A 
ENDBRANCH   1  17
BRANCH   9  21
ATOM     21  N   UNL     1       4.401   5.412  18.205  0.00  0.00    +0.000 N 
ATOM     22  C   UNL     1       4.507   6.284  17.073  0.00  0.00    +0.000 C 
ATOM     23  C   UNL     1       5.918   6.654  17.545  0.00  0.00    +0.000 C 
ATOM     24  C   UNL     1       6.186   8.160  17.623  0.00  0.00    +0.000 C 
ATOM     25  C   UNL     1       7.697   8.267  17.443  0.00  0.00    +0.000 C 
ATOM     26  N   UNL     1       8.098   7.086  16.734  0.00  0.00    +0.000 N 
ATOM     27  C   UNL     1       7.164   6.071  16.791  0.00  0.00    +0.000 C 
ATOM     28  O   UNL     1       7.382   4.953  16.339  0.00  0.00    +0.000 OA
ATOM     29  C   UNL     1       5.560   5.941  18.851  0.00  0.00    +0.000 C 
ATOM     30  H   UNL     1       9.047   6.868  16.454  0.00  0.00    +0.000 HD
ENDBRANCH   9  21
TORSDOF 2
ENDMDL
MODEL 4
REMARK VINA RESULT:      -7.8      1.247      1.964
REMARK  Name = 
REMARK  3 active torsions:
REMARK  status: ('A' for Active; 'I' for Inactive)
REMARK    1  A    between atoms: C_1  and  N_2
REMARK    2  A    between atoms: C_7  and  C_8
REMARK    3  A    between atoms: C_16  and  N_17
REMARK                            x       y       z     vdW  Elec       q    Type
REMARK                         _______ _______ _______ _____ _____    ______ ____
ROOT
ATOM      1  C   UNL     1       3.674   6.861  17.291  0.00  0.00    +0.000 A 
ATOM      2  C   UNL     1       4.175   7.534  16.156  0.00  0.00    +0.000 A 
ATOM      3  N   UNL     1       5.060   7.088  15.236  0.00  0.00    +0.000 NA
ATOM      4  C   UNL     1       5.499   5.860  15.522  0.00  0.00    +0.000 A 
ATOM      5  N   UNL     1       6.433   5.219  14.753  0.00  0.00    +0.000 N 
ATOM      6  C   UNL     1       6.702   3.995  15.290  0.00  0.00    +0.000 A 
ATOM      7  C   UNL     1       5.923   3.861  16.415  0.00  0.00    +0.000 A 
ATOM      8  C   UNL     1       5.139   5.046  16.592  0.00  0.00    +0.000 A 
ATOM      9  C   UNL     1       4.165   5.532  17.525  0.00  0.00    +0.000 A 
ATOM     10  H   UNL     1       6.845   5.625  13.929  0.00  0.00    +0.000 HD
ENDROOT
BRANCH   1  17
ATOM     11  C   UNL     1      -0.411   9.958  21.717  0.00  0.00    +0.000 C 
ATOM     12  N   UNL     1       0.252  10.067  20.440  0.00  0.00    +0.000 N 
ATOM     13  N   UNL     1       0.042  11.151  19.667  0.00  0.00    +0.000 NA
ATOM     14  C   UNL     1       0.719  10.869  18.550  0.00  0.00    +0.000 A 
ATOM     15  C   UNL     1       1.358   9.611  18.603  0.00  0.00    +0.000 A 
ATOM     16  C   UNL     1       2.136   8.827  17.728  0.00  0.00    +0.000 A 
ATOM     17  C   UNL     1       2.762   7.640  18.183  0.00  0.00    +0.000 A 
ATOM     18  C   UNL     1       2.562   7.289  19.527  0.00  0.00    +0.000 A 
ATOM     19  C   UNL     1       1.670   7.967  20.373  0.00  0.00    +0.000 A 
ATOM     20  C   UNL     1       1.102   9.144  19.885  0.00  0.00    +0.000 A 
ENDBRANCH   1  17
BRANCH   9  21
ATOM     21  N   UNL     1       3.771   4.749  18.647  0.00  0.00    +0.000 N 
ATOM     22  C   UNL     1       3.831   4.996  20.057  0.00  0.00    +0.000 C 
ATOM     23  C   UNL     1       2.959   3.753  20.269  0.00  0.00    +0.000 C 
ATOM     24  C   UNL     1       1.742   3.978  21.170  0.00  0.00    +0.000 C 
ATOM     25  C   UNL     1       1.461   2.595  21.749  0.00  0.00    +0.000 C 
ATOM     26  N   UNL     1       2.703   1.879  21.690  0.00  0.00    +0.000 N 
ATOM     27  C   UNL     1       3.612   2.433  20.810  0.00  0.00    +0.000 C 
ATOM     28  O   UNL     1       4.681   1.896  20.546  0.00  0.00    +0.000 OA
ATOM     29  C   UNL     1       2.723   3.785  18.757  0.00  0.00    +0.000 C 
ATOM     30  H   UNL     1       2.845   0.929  22.012  0.00  0.00    +0.000 HD
ENDBRANCH   9  21
TORSDOF 2
ENDMDL
MODEL 5
REMARK VINA RESULT:      -7.8      1.115      1.406
REMARK  Name = 
REMARK  3 active torsions:
REMARK  status: ('A' for Active; 'I' for Inactive)
REMARK    1  A    between atoms: C_1  and  N_2
REMARK    2  A    between atoms: C_7  and  C_8
REMARK    3  A    between atoms: C_16  and  N_17
REMARK                            x       y       z     vdW  Elec       q    Type
REMARK                         _______ _______ _______ _____ _____    ______ ____
ROOT
ATOM      1  C   UNL     1       3.737   6.892  17.208  0.00  0.00    +0.000 A 
ATOM      2  C   UNL     1       4.274   7.535  16.072  0.00  0.00    +0.000 A 
ATOM      3  N   UNL     1       5.171   7.058  15.181  0.00  0.00    +0.000 NA
ATOM      4  C   UNL     1       5.583   5.828  15.499  0.00  0.00    +0.000 A 
ATOM      5  N   UNL     1       6.522   5.157  14.763  0.00  0.00    +0.000 N 
ATOM      6  C   UNL     1       6.759   3.939  15.329  0.00  0.00    +0.000 A 
ATOM      7  C   UNL     1       5.953   3.839  16.439  0.00  0.00    +0.000 A 
ATOM      8  C   UNL     1       5.186   5.040  16.576  0.00  0.00    +0.000 A 
ATOM      9  C   UNL     1       4.201   5.561  17.478  0.00  0.00    +0.000 A 
ATOM     10  H   UNL     1       6.959   5.540  13.941  0.00  0.00    +0.000 HD
ENDROOT
BRANCH   1  17
ATOM     11  C   UNL     1      -0.450  10.953  20.652  0.00  0.00    +0.000 C 
ATOM     12  N   UNL     1       0.265   9.700  20.668  0.00  0.00    +0.000 N 
ATOM     13  N   UNL     1       0.219   8.917  21.765  0.00  0.00    +0.000 NA
ATOM     14  C   UNL     1       1.054   7.918  21.467  0.00  0.00    +0.000 A 
ATOM     15  C   UNL     1       1.636   8.057  20.187  0.00  0.00    +0.000 A 
ATOM     16  C   UNL     1       2.577   7.349  19.415  0.00  0.00    +0.000 A 
ATOM     17  C   UNL     1       2.819   7.704  18.065  0.00  0.00    +0.000 A 
ATOM     18  C   UNL     1       2.088   8.786  17.550  0.00  0.00    +0.000 A 
ATOM     19  C   UNL     1       1.264   9.601  18.340  0.00  0.00    +0.000 A 
ATOM     20  C   UNL     1       1.038   9.191  19.654  0.00  0.00    +0.000 A 
ENDBRANCH   1  17
BRANCH   9  21
ATOM     21  N   UNL     1       3.769   4.806  18.606  0.00  0.00    +0.000 N 
ATOM     22  C   UNL     1       3.791   5.084  20.011  0.00  0.00    +0.000 C 
ATOM     23  C   UNL     1       2.904   3.852  20.226  0.00  0.00    +0.000 C 
ATOM     24  C   UNL     1       1.664   4.107  21.087  0.00  0.00    +0.000 C 
ATOM     25  C   UNL     1       1.356   2.739  21.688  0.00  0.00    +0.000 C 
ATOM     26  N   UNL     1       2.593   2.013  21.680  0.00  0.00    +0.000 N 
ATOM     27  C   UNL     1       3.530   2.541  20.814  0.00  0.00    +0.000 C 
ATOM     28  O   UNL     1       4.603   1.989  20.593  0.00  0.00    +0.000 OA
ATOM     29  C   UNL     1       2.711   3.852  18.707  0.00  0.00    +0.000 C 
ATOM     30  H   UNL     1       2.718   1.069  22.027  0.00  0.00    +0.000 HD
ENDBRANCH   9  21
TORSDOF 2
ENDMDL
MODEL 6
REMARK VINA RESULT:      -7.6      3.824      9.826
REMARK  Name = 
REMARK  3 active torsions:
REMARK  status: ('A' for Active; 'I' for Inactive)
REMARK    1  A    between atoms: C_1  and  N_2
REMARK    2  A    between atoms: C_7  and  C_8
REMARK    3  A    between atoms: C_16  and  N_17
REMARK                            x       y       z     vdW  Elec       q    Type
REMARK                         _______ _______ _______ _____ _____    ______ ____
ROOT
ATOM      1  C   UNL     1      -0.365  11.410  21.776  0.00  0.00    +0.000 A 
ATOM      2  C   UNL     1      -1.290  11.065  22.787  0.00  0.00    +0.000 A 
ATOM      3  N   UNL     1      -2.037  11.886  23.558  0.00  0.00    +0.000 NA
ATOM      4  C   UNL     1      -1.792  13.173  23.298  0.00  0.00    +0.000 A 
ATOM      5  N   UNL     1      -2.403  14.188  23.985  0.00  0.00    +0.000 N 
ATOM      6  C   UNL     1      -1.951  15.388  23.522  0.00  0.00    +0.000 A 
ATOM      7  C   UNL     1      -1.041  15.126  22.525  0.00  0.00    +0.000 A 
ATOM      8  C   UNL     1      -0.916  13.709  22.359  0.00  0.00    +0.000 A 
ATOM      9  C   UNL     1      -0.170  12.810  21.528  0.00  0.00    +0.000 A 
ATOM     10  H   UNL     1      -3.071  14.033  24.722  0.00  0.00    +0.000 HD
ENDROOT
BRANCH   1  17
ATOM     11  C   UNL     1       3.072   6.064  19.436  0.00  0.00    +0.000 C 
ATOM     12  N   UNL     1       2.390   7.283  19.077  0.00  0.00    +0.000 N 
ATOM     13  N   UNL     1       2.378   7.690  17.792  0.00  0.00    +0.000 NA
ATOM     14  C   UNL     1       1.760   8.873  17.848  0.00  0.00    +0.000 A 
ATOM     15  C   UNL     1       1.379   9.227  19.161  0.00  0.00    +0.000 A 
ATOM     16  C   UNL     1       0.762  10.333  19.779  0.00  0.00    +0.000 A 
ATOM     17  C   UNL     1       0.384  10.282  21.143  0.00  0.00    +0.000 A 
ATOM     18  C   UNL     1       0.659   9.093  21.836  0.00  0.00    +0.000 A 
ATOM     19  C   UNL     1       1.409   8.041  21.288  0.00  0.00    +0.000 A 
ATOM     20  C   UNL     1       1.732   8.129  19.934  0.00  0.00    +0.000 A 
ENDBRANCH   1  17
BRANCH   9  21
ATOM     21  N   UNL     1       0.753  13.302  20.561  0.00  0.00    +0.000 N 
ATOM     22  C   UNL     1       0.571  14.072  19.366  0.00  0.00    +0.000 C 
ATOM     23  C   UNL     1       2.093  14.253  19.303  0.00  0.00    +0.000 C 
ATOM     24  C   UNL     1       2.551  15.702  19.118  0.00  0.00    +0.000 C 
ATOM     25  C   UNL     1       3.911  15.566  18.441  0.00  0.00    +0.000 C 
ATOM     26  N   UNL     1       3.900  14.294  17.778  0.00  0.00    +0.000 N 
ATOM     27  C   UNL     1       2.926  13.439  18.253  0.00  0.00    +0.000 C 
ATOM     28  O   UNL     1       2.839  12.273  17.884  0.00  0.00    +0.000 OA
ATOM     29  C   UNL     1       2.118  13.690  20.726  0.00  0.00    +0.000 C 
ATOM     30  H   UNL     1       4.663  13.916  17.228  0.00  0.00    +0.000 HD
ENDBRANCH   9  21
TORSDOF 2
ENDMDL
MODEL 7
REMARK VINA RESULT:      -7.6      5.609     11.744
REMARK  Name = 
REMARK  3 active torsions:
REMARK  status: ('A' for Active; 'I' for Inactive)
REMARK    1  A    between atoms: C_1  and  N_2
REMARK    2  A    between atoms: C_7  and  C_8
REMARK    3  A    between atoms: C_16  and  N_17
REMARK                            x       y       z     vdW  Elec       q    Type
REMARK                         _______ _______ _______ _____ _____    ______ ____
ROOT
ATOM      1  C   UNL     1      -3.137  13.443  22.969  0.00  0.00    +0.000 A 
ATOM      2  C   UNL     1      -2.719  14.107  24.143  0.00  0.00    +0.000 A 
ATOM      3  N   UNL     1      -3.354  15.083  24.829  0.00  0.00    +0.000 NA
ATOM      4  C   UNL     1      -4.500  15.438  24.243  0.00  0.00    +0.000 A 
ATOM      5  N   UNL     1      -5.295  16.438  24.737  0.00  0.00    +0.000 N 
ATOM      6  C   UNL     1      -6.384  16.593  23.931  0.00  0.00    +0.000 A 
ATOM      7  C   UNL     1      -6.274  15.675  22.913  0.00  0.00    +0.000 A 
ATOM      8  C   UNL     1      -5.071  14.918  23.086  0.00  0.00    +0.000 A 
ATOM      9  C   UNL     1      -4.392  13.854  22.406  0.00  0.00    +0.000 A 
ATOM     10  H   UNL     1      -5.073  16.963  25.566  0.00  0.00    +0.000 HD
ENDROOT
BRANCH   1  17
ATOM     11  C   UNL     1       1.100   9.221  19.793  0.00  0.00    +0.000 C 
ATOM     12  N   UNL     1       0.549   9.609  21.068  0.00  0.00    +0.000 N 
ATOM     13  N   UNL     1       0.881   8.919  22.179  0.00  0.00    +0.000 NA
ATOM     14  C   UNL     1       0.128   9.481  23.128  0.00  0.00    +0.000 A 
ATOM     15  C   UNL     1      -0.685  10.524  22.632  0.00  0.00    +0.000 A 
ATOM     16  C   UNL     1      -1.661  11.392  23.160  0.00  0.00    +0.000 A 
ATOM     17  C   UNL     1      -2.181  12.456  22.382  0.00  0.00    +0.000 A 
ATOM     18  C   UNL     1      -1.684  12.591  21.076  0.00  0.00    +0.000 A 
ATOM     19  C   UNL     1      -0.831  11.651  20.478  0.00  0.00    +0.000 A 
ATOM     20  C   UNL     1      -0.328  10.640  21.296  0.00  0.00    +0.000 A 
ENDBRANCH   1  17
BRANCH   9  21
ATOM     21  N   UNL     1      -4.922  13.295  21.208  0.00  0.00    +0.000 N 
ATOM     22  C   UNL     1      -5.832  12.213  20.976  0.00  0.00    +0.000 C 
ATOM     23  C   UNL     1      -5.909  12.650  19.508  0.00  0.00    +0.000 C 
ATOM     24  C   UNL     1      -7.332  12.806  18.967  0.00  0.00    +0.000 C 
ATOM     25  C   UNL     1      -7.175  12.574  17.467  0.00  0.00    +0.000 C 
ATOM     26  N   UNL     1      -5.990  11.781  17.309  0.00  0.00    +0.000 N 
ATOM     27  C   UNL     1      -5.160  11.815  18.412  0.00  0.00    +0.000 C 
ATOM     28  O   UNL     1      -4.052  11.289  18.415  0.00  0.00    +0.000 OA
ATOM     29  C   UNL     1      -5.189  13.924  19.955  0.00  0.00    +0.000 C 
ATOM     30  H   UNL     1      -5.623  11.452  16.424  0.00  0.00    +0.000 HD
ENDBRANCH   9  21
TORSDOF 2
ENDMDL
MODEL 8
REMARK VINA RESULT:      -7.6      3.988      9.473
REMARK  Name = 
REMARK  3 active torsions:
REMARK  status: ('A' for Active; 'I' for Inactive)
REMARK    1  A    between atoms: C_1  and  N_2
REMARK    2  A    between atoms: C_7  and  C_8
REMARK    3  A    between atoms: C_16  and  N_17
REMARK                            x       y       z     vdW  Elec       q    Type
REMARK                         _______ _______ _______ _____ _____    ______ ____
ROOT
ATOM      1  C   UNL     1      -1.063  11.512  21.299  0.00  0.00    +0.000 A 
ATOM      2  C   UNL     1      -0.781  12.011  22.590  0.00  0.00    +0.000 A 
ATOM      3  N   UNL     1      -1.384  13.024  23.250  0.00  0.00    +0.000 NA
ATOM      4  C   UNL     1      -2.335  13.602  22.512  0.00  0.00    +0.000 A 
ATOM      5  N   UNL     1      -3.055  14.679  22.958  0.00  0.00    +0.000 N 
ATOM      6  C   UNL     1      -3.938  15.067  21.994  0.00  0.00    +0.000 A 
ATOM      7  C   UNL     1      -3.774  14.220  20.923  0.00  0.00    +0.000 A 
ATOM      8  C   UNL     1      -2.748  13.268  21.226  0.00  0.00    +0.000 A 
ATOM      9  C   UNL     1      -2.117  12.160  20.571  0.00  0.00    +0.000 A 
ATOM     10  H   UNL     1      -2.918  15.100  23.861  0.00  0.00    +0.000 HD
ENDROOT
BRANCH   1  17
ATOM     11  C   UNL     1       2.902   6.324  19.502  0.00  0.00    +0.000 C 
ATOM     12  N   UNL     1       2.320   7.573  19.075  0.00  0.00    +0.000 N 
ATOM     13  N   UNL     1       2.625   8.074  17.861  0.00  0.00    +0.000 NA
ATOM     14  C   UNL     1       2.001   9.256  17.849  0.00  0.00    +0.000 A 
ATOM     15  C   UNL     1       1.301   9.515  19.048  0.00  0.00    +0.000 A 
ATOM     16  C   UNL     1       0.538  10.576  19.572  0.00  0.00    +0.000 A 
ATOM     17  C   UNL     1      -0.168  10.428  20.791  0.00  0.00    +0.000 A 
ATOM     18  C   UNL     1      -0.063   9.188  21.441  0.00  0.00    +0.000 A 
ATOM     19  C   UNL     1       0.810   8.173  21.021  0.00  0.00    +0.000 A 
ATOM     20  C   UNL     1       1.460   8.359  19.801  0.00  0.00    +0.000 A 
ENDBRANCH   1  17
BRANCH   9  21
ATOM     21  N   UNL     1      -2.487  11.783  19.249  0.00  0.00    +0.000 N 
ATOM     22  C   UNL     1      -1.987  12.174  17.964  0.00  0.00    +0.000 C 
ATOM     23  C   UNL     1      -2.821  11.047  17.343  0.00  0.00    +0.000 C 
ATOM     24  C   UNL     1      -2.043  10.134  16.392  0.00  0.00    +0.000 C 
ATOM     25  C   UNL     1      -3.117   9.593  15.453  0.00  0.00    +0.000 C 
ATOM     26  N   UNL     1      -4.183  10.552  15.475  0.00  0.00    +0.000 N 
ATOM     27  C   UNL     1      -4.137  11.395  16.566  0.00  0.00    +0.000 C 
ATOM     28  O   UNL     1      -5.028  12.203  16.809  0.00  0.00    +0.000 OA
ATOM     29  C   UNL     1      -3.027  10.548  18.775  0.00  0.00    +0.000 C 
ATOM     30  H   UNL     1      -5.043  10.480  14.941  0.00  0.00    +0.000 HD
ENDBRANCH   9  21
TORSDOF 2
ENDMDL
MODEL 9
REMARK VINA RESULT:      -7.5      5.528     11.730
REMARK  Name = 
REMARK  3 active torsions:
REMARK  status: ('A' for Active; 'I' for Inactive)
REMARK    1  A    between atoms: C_1  and  N_2
REMARK    2  A    between atoms: C_7  and  C_8
REMARK    3  A    between atoms: C_16  and  N_17
REMARK                            x       y       z     vdW  Elec       q    Type
REMARK                         _______ _______ _______ _____ _____    ______ ____
ROOT
ATOM      1  C   UNL     1      -3.020  13.361  23.004  0.00  0.00    +0.000 A 
ATOM      2  C   UNL     1      -2.577  14.020  24.172  0.00  0.00    +0.000 A 
ATOM      3  N   UNL     1      -3.181  15.018  24.854  0.00  0.00    +0.000 NA
ATOM      4  C   UNL     1      -4.320  15.401  24.272  0.00  0.00    +0.000 A 
ATOM      5  N   UNL     1      -5.085  16.426  24.763  0.00  0.00    +0.000 N 
ATOM      6  C   UNL     1      -6.172  16.606  23.961  0.00  0.00    +0.000 A 
ATOM      7  C   UNL     1      -6.094  15.679  22.949  0.00  0.00    +0.000 A 
ATOM      8  C   UNL     1      -4.911  14.890  23.121  0.00  0.00    +0.000 A 
ATOM      9  C   UNL     1      -4.267  13.802  22.445  0.00  0.00    +0.000 A 
ATOM     10  H   UNL     1      -4.843  16.951  25.587  0.00  0.00    +0.000 HD
ENDROOT
BRANCH   1  17
ATOM     11  C   UNL     1       1.260   8.555  20.893  0.00  0.00    +0.000 C 
ATOM     12  N   UNL     1       0.374   9.616  20.481  0.00  0.00    +0.000 N 
ATOM     13  N   UNL     1       0.276   9.937  19.176  0.00  0.00    +0.000 NA
ATOM     14  C   UNL     1      -0.536  10.998  19.179  0.00  0.00    +0.000 A 
ATOM     15  C   UNL     1      -0.957  11.359  20.478  0.00  0.00    +0.000 A 
ATOM     16  C   UNL     1      -1.748  12.377  21.046  0.00  0.00    +0.000 A 
ATOM     17  C   UNL     1      -2.095  12.343  22.419  0.00  0.00    +0.000 A 
ATOM     18  C   UNL     1      -1.610  11.262  23.172  0.00  0.00    +0.000 A 
ATOM     19  C   UNL     1      -0.697  10.324  22.667  0.00  0.00    +0.000 A 
ATOM     20  C   UNL     1      -0.411  10.386  21.304  0.00  0.00    +0.000 A 
ENDBRANCH   1  17
BRANCH   9  21
ATOM     21  N   UNL     1      -4.818  13.250  21.254  0.00  0.00    +0.000 N 
ATOM     22  C   UNL     1      -5.735  12.172  21.032  0.00  0.00    +0.000 C 
ATOM     23  C   UNL     1      -5.836  12.616  19.568  0.00  0.00    +0.000 C 
ATOM     24  C   UNL     1      -7.268  12.779  19.052  0.00  0.00    +0.000 C 
ATOM     25  C   UNL     1      -7.137  12.553  17.549  0.00  0.00    +0.000 C 
ATOM     26  N   UNL     1      -5.957  11.758  17.367  0.00  0.00    +0.000 N 
ATOM     27  C   UNL     1      -5.108  11.785  18.455  0.00  0.00    +0.000 C 
ATOM     28  O   UNL     1      -4.002  11.256  18.437  0.00  0.00    +0.000 OA
ATOM     29  C   UNL     1      -5.105  13.887  20.008  0.00  0.00    +0.000 C 
ATOM     30  H   UNL     1      -5.605  11.432  16.474  0.00  0.00    +0.000 HD
ENDBRANCH   9  21
TORSDOF 2
ENDMDL
