MODEL 1
REMARK VINA RESULT:      -8.7      0.000      0.000
REMARK  Name = 
REMARK  6 active torsions:
REMARK  status: ('A' for Active; 'I' for Inactive)
REMARK    1  A    between atoms: C_1  and  C_2
REMARK    2  A    between atoms: C_2  and  C_3
REMARK    3  A    between atoms: C_3  and  C_4
REMARK    4  A    between atoms: C_4  and  C_5
REMARK    5  A    between atoms: C_10  and  C_11
REMARK    6  A    between atoms: C_18  and  C_19
REMARK                            x       y       z     vdW  Elec       q    Type
REMARK                         _______ _______ _______ _____ _____    ______ ____
ROOT
ATOM      1  C   UNL     1       7.770   7.512  17.811  0.00  0.00    +0.000 C 
ATOM      2  O   UNL     1       8.037   7.636  16.618  0.00  0.00    +0.000 OA
ATOM      3  N   UNL     1       6.745   6.771  18.353  0.00  0.00    +0.000 N 
ATOM      4  C   UNL     1       5.955   5.883  17.631  0.00  0.00    +0.000 A 
ATOM      5  N   UNL     1       6.293   5.565  16.383  0.00  0.00    +0.000 NA
ATOM      6  C   UNL     1       5.537   4.678  15.721  0.00  0.00    +0.000 A 
ATOM      7  C   UNL     1       4.422   4.121  16.303  0.00  0.00    +0.000 A 
ATOM      8  C   UNL     1       4.119   4.500  17.597  0.00  0.00    +0.000 A 
ATOM      9  N   UNL     1       4.904   5.366  18.285  0.00  0.00    +0.000 NA
ATOM     10  H   UNL     1       6.474   6.876  19.316  0.00  0.00    +0.000 HD
ENDROOT
BRANCH   6  11
ATOM     11  C   UNL     1       5.969   4.366  14.348  0.00  0.00    +0.000 A 
ATOM     12  C   UNL     1       7.166   4.874  13.807  0.00  0.00    +0.000 A 
ATOM     13  C   UNL     1       7.573   4.548  12.512  0.00  0.00    +0.000 A 
ATOM     14  C   UNL     1       6.790   3.711  11.723  0.00  0.00    +0.000 A 
ATOM     15  C   UNL     1       5.591   3.209  12.226  0.00  0.00    +0.000 A 
ATOM     16  C   UNL     1       5.185   3.538  13.521  0.00  0.00    +0.000 A 
ENDBRANCH   6  11
BRANCH   8  17
ATOM     17  C   UNL     1       2.929   3.964  18.302  0.00  0.00    +0.000 A 
ATOM     18  C   UNL     1       2.355   4.650  19.385  0.00  0.00    +0.000 A 
ATOM     19  C   UNL     1       1.258   4.126  20.082  0.00  0.00    +0.000 A 
ATOM     20  C   UNL     1       0.709   2.904  19.708  0.00  0.00    +0.000 A 
ATOM     21  C   UNL     1       1.243   2.211  18.630  0.00  0.00    +0.000 A 
ATOM     22  C   UNL     1       2.333   2.739  17.931  0.00  0.00    +0.000 A 
ENDBRANCH   8  17
BRANCH   1  23
ATOM     23  C   UNL     1       8.606   8.244  18.840  0.00  0.00    +0.000 C 
BRANCH  23  24
ATOM     24  C   UNL     1       8.794   9.726  18.523  0.00  0.00    +0.000 C 
BRANCH  24  26
ATOM     25  C   UNL     1      10.446  11.553  19.044  0.00  0.00    +0.000 C 
ATOM     26  C   UNL     1       9.531  10.488  19.629  0.00  0.00    +0.000 C 
ENDBRANCH  24  26
ENDBRANCH  23  24
ENDBRANCH   1  23
TORSDOF 5
ENDMDL
MODEL 2
REMARK VINA RESULT:      -8.6      0.262      1.373
REMARK  Name = 
REMARK  6 active torsions:
REMARK  status: ('A' for Active; 'I' for Inactive)
REMARK    1  A    between atoms: C_1  and  C_2
REMARK    2  A    between atoms: C_2  and  C_3
REMARK    3  A    between atoms: C_3  and  C_4
REMARK    4  A    between atoms: C_4  and  C_5
REMARK    5  A    between atoms: C_10  and  C_11
REMARK    6  A    between atoms: C_18  and  C_19
REMARK                            x       y       z     vdW  Elec       q    Type
REMARK                         _______ _______ _______ _____ _____    ______ ____
ROOT
ATOM      1  C   UNL     1       7.776   7.573  17.774  0.00  0.00    +0.000 C 
ATOM      2  O   UNL     1       8.019   7.680  16.574  0.00  0.00    +0.000 OA
ATOM      3  N   UNL     1       6.775   6.820  18.347  0.00  0.00    +0.000 N 
ATOM      4  C   UNL     1       5.991   5.905  17.654  0.00  0.00    +0.000 A 
ATOM      5  N   UNL     1       6.314   5.571  16.407  0.00  0.00    +0.000 NA
ATOM      6  C   UNL     1       5.564   4.658  15.774  0.00  0.00    +0.000 A 
ATOM      7  C   UNL     1       4.470   4.089  16.385  0.00  0.00    +0.000 A 
ATOM      8  C   UNL     1       4.183   4.486  17.677  0.00  0.00    +0.000 A 
ATOM      9  N   UNL     1       4.963   5.378  18.335  0.00  0.00    +0.000 NA
ATOM     10  H   UNL     1       6.520   6.937  19.313  0.00  0.00    +0.000 HD
ENDROOT
BRANCH   6  11
ATOM     11  C   UNL     1       5.978   4.330  14.398  0.00  0.00    +0.000 A 
ATOM     12  C   UNL     1       5.213   3.487  13.569  0.00  0.00    +0.000 A 
ATOM     13  C   UNL     1       5.607   3.207  12.259  0.00  0.00    +0.000 A 
ATOM     14  C   UNL     1       6.779   3.757  11.749  0.00  0.00    +0.000 A 
ATOM     15  C   UNL     1       7.565   4.579  12.553  0.00  0.00    +0.000 A 
ATOM     16  C   UNL     1       7.170   4.857  13.864  0.00  0.00    +0.000 A 
ENDBRANCH   6  11
BRANCH   8  17
ATOM     17  C   UNL     1       3.016   3.939  18.412  0.00  0.00    +0.000 A 
ATOM     18  C   UNL     1       2.228   2.913  17.867  0.00  0.00    +0.000 A 
ATOM     19  C   UNL     1       1.100   2.424  18.537  0.00  0.00    +0.000 A 
ATOM     20  C   UNL     1       0.735   2.952  19.771  0.00  0.00    +0.000 A 
ATOM     21  C   UNL     1       1.504   3.955  20.346  0.00  0.00    +0.000 A 
ATOM     22  C   UNL     1       2.634   4.436  19.678  0.00  0.00    +0.000 A 
ENDBRANCH   8  17
BRANCH   1  23
ATOM     23  C   UNL     1       8.615   8.339  18.775  0.00  0.00    +0.000 C 
BRANCH  23  24
ATOM     24  C   UNL     1       8.778   9.815  18.423  0.00  0.00    +0.000 C 
BRANCH  24  26
ATOM     25  C   UNL     1       9.572  12.090  19.154  0.00  0.00    +0.000 C 
ATOM     26  C   UNL     1       9.549  10.605  19.485  0.00  0.00    +0.000 C 
ENDBRANCH  24  26
ENDBRANCH  23  24
ENDBRANCH   1  23
TORSDOF 5
ENDMDL
MODEL 3
REMARK VINA RESULT:      -8.6      0.384      1.092
REMARK  Name = 
REMARK  6 active torsions:
REMARK  status: ('A' for Active; 'I' for Inactive)
REMARK    1  A    between atoms: C_1  and  C_2
REMARK    2  A    between atoms: C_2  and  C_3
REMARK    3  A    between atoms: C_3  and  C_4
REMARK    4  A    between atoms: C_4  and  C_5
REMARK    5  A    between atoms: C_10  and  C_11
REMARK    6  A    between atoms: C_18  and  C_19
REMARK                            x       y       z     vdW  Elec       q    Type
REMARK                         _______ _______ _______ _____ _____    ______ ____
ROOT
ATOM      1  C   UNL     1       7.764   7.809  17.794  0.00  0.00    +0.000 C 
ATOM      2  O   UNL     1       8.026   7.897  16.596  0.00  0.00    +0.000 OA
ATOM      3  N   UNL     1       6.764   7.056  18.365  0.00  0.00    +0.000 N 
ATOM      4  C   UNL     1       6.003   6.117  17.678  0.00  0.00    +0.000 A 
ATOM      5  N   UNL     1       6.350   5.763  16.443  0.00  0.00    +0.000 NA
ATOM      6  C   UNL     1       5.623   4.828  15.816  0.00  0.00    +0.000 A 
ATOM      7  C   UNL     1       4.526   4.257  16.420  0.00  0.00    +0.000 A 
ATOM      8  C   UNL     1       4.213   4.675  17.700  0.00  0.00    +0.000 A 
ATOM      9  N   UNL     1       4.970   5.590  18.353  0.00  0.00    +0.000 NA
ATOM     10  H   UNL     1       6.491   7.188  19.324  0.00  0.00    +0.000 HD
ENDROOT
BRANCH   6  11
ATOM     11  C   UNL     1       6.063   4.479  14.454  0.00  0.00    +0.000 A 
ATOM     12  C   UNL     1       5.338   3.587  13.640  0.00  0.00    +0.000 A 
ATOM     13  C   UNL     1       5.756   3.287  12.342  0.00  0.00    +0.000 A 
ATOM     14  C   UNL     1       6.913   3.865  11.829  0.00  0.00    +0.000 A 
ATOM     15  C   UNL     1       7.660   4.736  12.619  0.00  0.00    +0.000 A 
ATOM     16  C   UNL     1       7.241   5.034  13.918  0.00  0.00    +0.000 A 
ENDBRANCH   6  11
BRANCH   8  17
ATOM     17  C   UNL     1       3.041   4.128  18.427  0.00  0.00    +0.000 A 
ATOM     18  C   UNL     1       2.723   4.559  19.725  0.00  0.00    +0.000 A 
ATOM     19  C   UNL     1       1.644   4.013  20.432  0.00  0.00    +0.000 A 
ATOM     20  C   UNL     1       0.856   3.024  19.853  0.00  0.00    +0.000 A 
ATOM     21  C   UNL     1       1.134   2.589  18.564  0.00  0.00    +0.000 A 
ATOM     22  C   UNL     1       2.207   3.140  17.858  0.00  0.00    +0.000 A 
ENDBRANCH   8  17
BRANCH   1  23
ATOM     23  C   UNL     1       8.577   8.606  18.793  0.00  0.00    +0.000 C 
BRANCH  23  24
ATOM     24  C   UNL     1       8.841  10.042  18.350  0.00  0.00    +0.000 C 
BRANCH  24  26
ATOM     25  C   UNL     1       9.345  10.899  20.663  0.00  0.00    +0.000 C 
ATOM     26  C   UNL     1       9.857  10.769  19.237  0.00  0.00    +0.000 C 
ENDBRANCH  24  26
ENDBRANCH  23  24
ENDBRANCH   1  23
TORSDOF 5
ENDMDL
MODEL 4
REMARK VINA RESULT:      -8.0      1.355      5.978
REMARK  Name = 
REMARK  6 active torsions:
REMARK  status: ('A' for Active; 'I' for Inactive)
REMARK    1  A    between atoms: C_1  and  C_2
REMARK    2  A    between atoms: C_2  and  C_3
REMARK    3  A    between atoms: C_3  and  C_4
REMARK    4  A    between atoms: C_4  and  C_5
REMARK    5  A    between atoms: C_10  and  C_11
REMARK    6  A    between atoms: C_18  and  C_19
REMARK                            x       y       z     vdW  Elec       q    Type
REMARK                         _______ _______ _______ _____ _____    ______ ____
ROOT
ATOM      1  C   UNL     1       6.813   4.500  13.640  0.00  0.00    +0.000 C 
ATOM      2  O   UNL     1       7.840   5.075  13.994  0.00  0.00    +0.000 OA
ATOM      3  N   UNL     1       5.693   4.268  14.406  0.00  0.00    +0.000 N 
ATOM      4  C   UNL     1       5.477   4.823  15.663  0.00  0.00    +0.000 A 
ATOM      5  N   UNL     1       6.285   5.782  16.108  0.00  0.00    +0.000 NA
ATOM      6  C   UNL     1       6.033   6.327  17.306  0.00  0.00    +0.000 A 
ATOM      7  C   UNL     1       4.976   5.896  18.075  0.00  0.00    +0.000 A 
ATOM      8  C   UNL     1       4.180   4.891  17.559  0.00  0.00    +0.000 A 
ATOM      9  N   UNL     1       4.407   4.365  16.330  0.00  0.00    +0.000 NA
ATOM     10  H   UNL     1       4.979   3.626  14.108  0.00  0.00    +0.000 HD
ENDROOT
BRANCH   6  11
ATOM     11  C   UNL     1       6.963   7.386  17.738  0.00  0.00    +0.000 A 
ATOM     12  C   UNL     1       8.011   7.135  18.644  0.00  0.00    +0.000 A 
ATOM     13  C   UNL     1       8.898   8.144  19.023  0.00  0.00    +0.000 A 
ATOM     14  C   UNL     1       8.755   9.430  18.511  0.00  0.00    +0.000 A 
ATOM     15  C   UNL     1       7.715   9.710  17.628  0.00  0.00    +0.000 A 
ATOM     16  C   UNL     1       6.827   8.700  17.251  0.00  0.00    +0.000 A 
ENDBRANCH   6  11
BRANCH   8  17
ATOM     17  C   UNL     1       3.027   4.350  18.320  0.00  0.00    +0.000 A 
ATOM     18  C   UNL     1       2.652   4.897  19.558  0.00  0.00    +0.000 A 
ATOM     19  C   UNL     1       1.592   4.363  20.302  0.00  0.00    +0.000 A 
ATOM     20  C   UNL     1       0.881   3.268  19.820  0.00  0.00    +0.000 A 
ATOM     21  C   UNL     1       1.216   2.715  18.592  0.00  0.00    +0.000 A 
ATOM     22  C   UNL     1       2.270   3.256  17.848  0.00  0.00    +0.000 A 
ENDBRANCH   8  17
BRANCH   1  23
ATOM     23  C   UNL     1       6.717   3.948  12.233  0.00  0.00    +0.000 C 
BRANCH  23  24
ATOM     24  C   UNL     1       5.435   3.160  11.979  0.00  0.00    +0.000 C 
BRANCH  24  26
ATOM     25  C   UNL     1       7.171   1.567  11.091  0.00  0.00    +0.000 C 
ATOM     26  C   UNL     1       5.684   1.805  11.311  0.00  0.00    +0.000 C 
ENDBRANCH  24  26
ENDBRANCH  23  24
ENDBRANCH   1  23
TORSDOF 5
ENDMDL
MODEL 5
REMARK VINA RESULT:      -7.9      1.400      6.073
REMARK  Name = 
REMARK  6 active torsions:
REMARK  status: ('A' for Active; 'I' for Inactive)
REMARK    1  A    between atoms: C_1  and  C_2
REMARK    2  A    between atoms: C_2  and  C_3
REMARK    3  A    between atoms: C_3  and  C_4
REMARK    4  A    between atoms: C_4  and  C_5
REMARK    5  A    between atoms: C_10  and  C_11
REMARK    6  A    between atoms: C_18  and  C_19
REMARK                            x       y       z     vdW  Elec       q    Type
REMARK                         _______ _______ _______ _____ _____    ______ ____
ROOT
ATOM      1  C   UNL     1       6.752   4.331  13.632  0.00  0.00    +0.000 C 
ATOM      2  O   UNL     1       7.778   4.920  13.962  0.00  0.00    +0.000 OA
ATOM      3  N   UNL     1       5.654   4.082  14.425  0.00  0.00    +0.000 N 
ATOM      4  C   UNL     1       5.460   4.632  15.687  0.00  0.00    +0.000 A 
ATOM      5  N   UNL     1       6.265   5.602  16.114  0.00  0.00    +0.000 NA
ATOM      6  C   UNL     1       6.034   6.141  17.319  0.00  0.00    +0.000 A 
ATOM      7  C   UNL     1       5.003   5.694  18.112  0.00  0.00    +0.000 A 
ATOM      8  C   UNL     1       4.209   4.678  17.614  0.00  0.00    +0.000 A 
ATOM      9  N   UNL     1       4.414   4.158  16.380  0.00  0.00    +0.000 NA
ATOM     10  H   UNL     1       4.942   3.430  14.143  0.00  0.00    +0.000 HD
ENDROOT
BRANCH   6  11
ATOM     11  C   UNL     1       6.959   7.213  17.730  0.00  0.00    +0.000 A 
ATOM     12  C   UNL     1       6.870   8.518  17.205  0.00  0.00    +0.000 A 
ATOM     13  C   UNL     1       7.738   9.528  17.624  0.00  0.00    +0.000 A 
ATOM     14  C   UNL     1       8.720   9.257  18.572  0.00  0.00    +0.000 A 
ATOM     15  C   UNL     1       8.842   7.971  19.093  0.00  0.00    +0.000 A 
ATOM     16  C   UNL     1       7.974   6.961  18.672  0.00  0.00    +0.000 A 
ENDBRANCH   6  11
BRANCH   8  17
ATOM     17  C   UNL     1       3.083   4.120  18.403  0.00  0.00    +0.000 A 
ATOM     18  C   UNL     1       2.202   3.178  17.847  0.00  0.00    +0.000 A 
ATOM     19  C   UNL     1       1.112   2.682  18.572  0.00  0.00    +0.000 A 
ATOM     20  C   UNL     1       0.879   3.116  19.873  0.00  0.00    +0.000 A 
ATOM     21  C   UNL     1       1.742   4.034  20.457  0.00  0.00    +0.000 A 
ATOM     22  C   UNL     1       2.835   4.522  19.733  0.00  0.00    +0.000 A 
ENDBRANCH   8  17
BRANCH   1  23
ATOM     23  C   UNL     1       6.630   3.780  12.226  0.00  0.00    +0.000 C 
BRANCH  23  24
ATOM     24  C   UNL     1       5.336   3.005  11.991  0.00  0.00    +0.000 C 
BRANCH  24  26
ATOM     25  C   UNL     1       3.297   2.971  10.515  0.00  0.00    +0.000 C 
ATOM     26  C   UNL     1       4.245   3.845  11.320  0.00  0.00    +0.000 C 
ENDBRANCH  24  26
ENDBRANCH  23  24
ENDBRANCH   1  23
TORSDOF 5
ENDMDL
MODEL 6
REMARK VINA RESULT:      -7.9      1.452      6.018
REMARK  Name = 
REMARK  6 active torsions:
REMARK  status: ('A' for Active; 'I' for Inactive)
REMARK    1  A    between atoms: C_1  and  C_2
REMARK    2  A    between atoms: C_2  and  C_3
REMARK    3  A    between atoms: C_3  and  C_4
REMARK    4  A    between atoms: C_4  and  C_5
REMARK    5  A    between atoms: C_10  and  C_11
REMARK    6  A    between atoms: C_18  and  C_19
REMARK                            x       y       z     vdW  Elec       q    Type
REMARK                         _______ _______ _______ _____ _____    ______ ____
ROOT
ATOM      1  C   UNL     1       6.844   4.497  13.568  0.00  0.00    +0.000 C 
ATOM      2  O   UNL     1       7.852   5.126  13.882  0.00  0.00    +0.000 OA
ATOM      3  N   UNL     1       5.782   4.182  14.384  0.00  0.00    +0.000 N 
ATOM      4  C   UNL     1       5.599   4.697  15.663  0.00  0.00    +0.000 A 
ATOM      5  N   UNL     1       6.371   5.694  16.088  0.00  0.00    +0.000 NA
ATOM      6  C   UNL     1       6.149   6.198  17.310  0.00  0.00    +0.000 A 
ATOM      7  C   UNL     1       5.162   5.688  18.122  0.00  0.00    +0.000 A 
ATOM      8  C   UNL     1       4.401   4.647  17.624  0.00  0.00    +0.000 A 
ATOM      9  N   UNL     1       4.595   4.161  16.373  0.00  0.00    +0.000 NA
ATOM     10  H   UNL     1       5.092   3.504  14.108  0.00  0.00    +0.000 HD
ENDROOT
BRANCH   6  11
ATOM     11  C   UNL     1       7.035   7.303  17.719  0.00  0.00    +0.000 A 
ATOM     12  C   UNL     1       6.900   8.603  17.193  0.00  0.00    +0.000 A 
ATOM     13  C   UNL     1       7.731   9.643  17.609  0.00  0.00    +0.000 A 
ATOM     14  C   UNL     1       8.724   9.409  18.557  0.00  0.00    +0.000 A 
ATOM     15  C   UNL     1       8.892   8.129  19.079  0.00  0.00    +0.000 A 
ATOM     16  C   UNL     1       8.060   7.088  18.661  0.00  0.00    +0.000 A 
ENDBRANCH   6  11
BRANCH   8  17
ATOM     17  C   UNL     1       3.324   4.022  18.430  0.00  0.00    +0.000 A 
ATOM     18  C   UNL     1       3.567   3.558  19.734  0.00  0.00    +0.000 A 
ATOM     19  C   UNL     1       2.565   2.927  20.482  0.00  0.00    +0.000 A 
ATOM     20  C   UNL     1       1.295   2.750  19.943  0.00  0.00    +0.000 A 
ATOM     21  C   UNL     1       1.018   3.213  18.664  0.00  0.00    +0.000 A 
ATOM     22  C   UNL     1       2.018   3.849  17.922  0.00  0.00    +0.000 A 
ENDBRANCH   8  17
BRANCH   1  23
ATOM     23  C   UNL     1       6.708   3.969  12.155  0.00  0.00    +0.000 C 
BRANCH  23  24
ATOM     24  C   UNL     1       5.445   3.139  11.939  0.00  0.00    +0.000 C 
BRANCH  24  26
ATOM     25  C   UNL     1       7.211   1.582  11.048  0.00  0.00    +0.000 C 
ATOM     26  C   UNL     1       5.724   1.775  11.301  0.00  0.00    +0.000 C 
ENDBRANCH  24  26
ENDBRANCH  23  24
ENDBRANCH   1  23
TORSDOF 5
ENDMDL
MODEL 7
REMARK VINA RESULT:      -7.8      1.689      6.056
REMARK  Name = 
REMARK  6 active torsions:
REMARK  status: ('A' for Active; 'I' for Inactive)
REMARK    1  A    between atoms: C_1  and  C_2
REMARK    2  A    between atoms: C_2  and  C_3
REMARK    3  A    between atoms: C_3  and  C_4
REMARK    4  A    between atoms: C_4  and  C_5
REMARK    5  A    between atoms: C_10  and  C_11
REMARK    6  A    between atoms: C_18  and  C_19
REMARK                            x       y       z     vdW  Elec       q    Type
REMARK                         _______ _______ _______ _____ _____    ______ ____
ROOT
ATOM      1  C   UNL     1       6.155   3.825  13.787  0.00  0.00    +0.000 C 
ATOM      2  O   UNL     1       7.212   4.411  14.004  0.00  0.00    +0.000 OA
ATOM      3  N   UNL     1       5.140   3.595  14.689  0.00  0.00    +0.000 N 
ATOM      4  C   UNL     1       5.077   4.164  15.956  0.00  0.00    +0.000 A 
ATOM      5  N   UNL     1       5.926   5.134  16.286  0.00  0.00    +0.000 NA
ATOM      6  C   UNL     1       5.820   5.693  17.499  0.00  0.00    +0.000 A 
ATOM      7  C   UNL     1       4.870   5.264  18.398  0.00  0.00    +0.000 A 
ATOM      8  C   UNL     1       4.025   4.247  17.997  0.00  0.00    +0.000 A 
ATOM      9  N   UNL     1       4.102   3.707  16.756  0.00  0.00    +0.000 NA
ATOM     10  H   UNL     1       4.399   2.944  14.489  0.00  0.00    +0.000 HD
ENDROOT
BRANCH   6  11
ATOM     11  C   UNL     1       6.787   6.763  17.800  0.00  0.00    +0.000 A 
ATOM     12  C   UNL     1       6.740   8.015  17.155  0.00  0.00    +0.000 A 
ATOM     13  C   UNL     1       7.648   9.027  17.470  0.00  0.00    +0.000 A 
ATOM     14  C   UNL     1       8.630   8.811  18.432  0.00  0.00    +0.000 A 
ATOM     15  C   UNL     1       8.711   7.576  19.072  0.00  0.00    +0.000 A 
ATOM     16  C   UNL     1       7.802   6.564  18.755  0.00  0.00    +0.000 A 
ENDBRANCH   6  11
BRANCH   8  17
ATOM     17  C   UNL     1       2.980   3.708  18.902  0.00  0.00    +0.000 A 
ATOM     18  C   UNL     1       3.203   3.591  20.284  0.00  0.00    +0.000 A 
ATOM     19  C   UNL     1       2.237   3.042  21.136  0.00  0.00    +0.000 A 
ATOM     20  C   UNL     1       1.021   2.600  20.624  0.00  0.00    +0.000 A 
ATOM     21  C   UNL     1       0.763   2.718  19.265  0.00  0.00    +0.000 A 
ATOM     22  C   UNL     1       1.727   3.273  18.417  0.00  0.00    +0.000 A 
ENDBRANCH   8  17
BRANCH   1  23
ATOM     23  C   UNL     1       5.889   3.255  12.409  0.00  0.00    +0.000 C 
BRANCH  23  24
ATOM     24  C   UNL     1       4.825   4.024  11.631  0.00  0.00    +0.000 C 
BRANCH  24  26
ATOM     25  C   UNL     1       3.061   3.853   9.842  0.00  0.00    +0.000 C 
ATOM     26  C   UNL     1       3.806   3.112  10.942  0.00  0.00    +0.000 C 
ENDBRANCH  24  26
ENDBRANCH  23  24
ENDBRANCH   1  23
TORSDOF 5
ENDMDL
MODEL 8
REMARK VINA RESULT:      -7.8      1.562      6.115
REMARK  Name = 
REMARK  6 active torsions:
REMARK  status: ('A' for Active; 'I' for Inactive)
REMARK    1  A    between atoms: C_1  and  C_2
REMARK    2  A    between atoms: C_2  and  C_3
REMARK    3  A    between atoms: C_3  and  C_4
REMARK    4  A    between atoms: C_4  and  C_5
REMARK    5  A    between atoms: C_10  and  C_11
REMARK    6  A    between atoms: C_18  and  C_19
REMARK                            x       y       z     vdW  Elec       q    Type
REMARK                         _______ _______ _______ _____ _____    ______ ____
ROOT
ATOM      1  C   UNL     1       6.350   4.042  13.598  0.00  0.00    +0.000 C 
ATOM      2  O   UNL     1       7.412   4.567  13.925  0.00  0.00    +0.000 OA
ATOM      3  N   UNL     1       5.259   3.819  14.407  0.00  0.00    +0.000 N 
ATOM      4  C   UNL     1       5.120   4.331  15.692  0.00  0.00    +0.000 A 
ATOM      5  N   UNL     1       5.982   5.243  16.135  0.00  0.00    +0.000 NA
ATOM      6  C   UNL     1       5.805   5.749  17.363  0.00  0.00    +0.000 A 
ATOM      7  C   UNL     1       4.770   5.325  18.164  0.00  0.00    +0.000 A 
ATOM      8  C   UNL     1       3.916   4.368  17.649  0.00  0.00    +0.000 A 
ATOM      9  N   UNL     1       4.067   3.884  16.393  0.00  0.00    +0.000 NA
ATOM     10  H   UNL     1       4.509   3.213  14.120  0.00  0.00    +0.000 HD
ENDROOT
BRANCH   6  11
ATOM     11  C   UNL     1       6.791   6.758  17.789  0.00  0.00    +0.000 A 
ATOM     12  C   UNL     1       7.757   6.488  18.778  0.00  0.00    +0.000 A 
ATOM     13  C   UNL     1       8.700   7.447  19.152  0.00  0.00    +0.000 A 
ATOM     14  C   UNL     1       8.695   8.703  18.553  0.00  0.00    +0.000 A 
ATOM     15  C   UNL     1       7.739   9.004  17.586  0.00  0.00    +0.000 A 
ATOM     16  C   UNL     1       6.796   8.043  17.213  0.00  0.00    +0.000 A 
ENDBRANCH   6  11
BRANCH   8  17
ATOM     17  C   UNL     1       2.781   3.838  18.444  0.00  0.00    +0.000 A 
ATOM     18  C   UNL     1       2.257   2.557  18.201  0.00  0.00    +0.000 A 
ATOM     19  C   UNL     1       1.158   2.070  18.918  0.00  0.00    +0.000 A 
ATOM     20  C   UNL     1       0.557   2.854  19.898  0.00  0.00    +0.000 A 
ATOM     21  C   UNL     1       1.062   4.117  20.174  0.00  0.00    +0.000 A 
ATOM     22  C   UNL     1       2.165   4.599  19.462  0.00  0.00    +0.000 A 
ENDBRANCH   8  17
BRANCH   1  23
ATOM     23  C   UNL     1       6.169   3.549  12.177  0.00  0.00    +0.000 C 
BRANCH  23  24
ATOM     24  C   UNL     1       4.746   3.091  11.873  0.00  0.00    +0.000 C 
BRANCH  24  26
ATOM     25  C   UNL     1       2.972   3.134  10.087  0.00  0.00    +0.000 C 
ATOM     26  C   UNL     1       4.063   3.929  10.788  0.00  0.00    +0.000 C 
ENDBRANCH  24  26
ENDBRANCH  23  24
ENDBRANCH   1  23
TORSDOF 5
ENDMDL
MODEL 9
REMARK VINA RESULT:      -7.7      3.644      7.289
REMARK  Name = 
REMARK  6 active torsions:
REMARK  status: ('A' for Active; 'I' for Inactive)
REMARK    1  A    between atoms: C_1  and  C_2
REMARK    2  A    between atoms: C_2  and  C_3
REMARK    3  A    between atoms: C_3  and  C_4
REMARK    4  A    between atoms: C_4  and  C_5
REMARK    5  A    between atoms: C_10  and  C_11
REMARK    6  A    between atoms: C_18  and  C_19
REMARK                            x       y       z     vdW  Elec       q    Type
REMARK                         _______ _______ _______ _____ _____    ______ ____
ROOT
ATOM      1  C   UNL     1       5.204   5.329  15.954  0.00  0.00    +0.000 C 
ATOM      2  O   UNL     1       4.740   4.232  16.259  0.00  0.00    +0.000 OA
ATOM      3  N   UNL     1       4.731   6.561  16.345  0.00  0.00    +0.000 N 
ATOM      4  C   UNL     1       3.751   6.751  17.313  0.00  0.00    +0.000 A 
ATOM      5  N   UNL     1       3.354   5.723  18.059  0.00  0.00    +0.000 NA
ATOM      6  C   UNL     1       2.436   5.940  19.011  0.00  0.00    +0.000 A 
ATOM      7  C   UNL     1       1.895   7.190  19.205  0.00  0.00    +0.000 A 
ATOM      8  C   UNL     1       2.343   8.213  18.391  0.00  0.00    +0.000 A 
ATOM      9  N   UNL     1       3.301   8.006  17.455  0.00  0.00    +0.000 NA
ATOM     10  H   UNL     1       5.043   7.407  15.900  0.00  0.00    +0.000 HD
ENDROOT
BRANCH   6  11
ATOM     11  C   UNL     1       2.043   4.762  19.805  0.00  0.00    +0.000 A 
ATOM     12  C   UNL     1       1.211   3.753  19.282  0.00  0.00    +0.000 A 
ATOM     13  C   UNL     1       0.869   2.631  20.039  0.00  0.00    +0.000 A 
ATOM     14  C   UNL     1       1.345   2.493  21.339  0.00  0.00    +0.000 A 
ATOM     15  C   UNL     1       2.155   3.485  21.887  0.00  0.00    +0.000 A 
ATOM     16  C   UNL     1       2.495   4.608  21.130  0.00  0.00    +0.000 A 
ENDBRANCH   6  11
BRANCH   8  17
ATOM     17  C   UNL     1       1.808   9.591  18.516  0.00  0.00    +0.000 A 
ATOM     18  C   UNL     1       2.499  10.691  17.981  0.00  0.00    +0.000 A 
ATOM     19  C   UNL     1       2.020  11.998  18.134  0.00  0.00    +0.000 A 
ATOM     20  C   UNL     1       0.837  12.234  18.826  0.00  0.00    +0.000 A 
ATOM     21  C   UNL     1       0.122  11.167  19.351  0.00  0.00    +0.000 A 
ATOM     22  C   UNL     1       0.598   9.862  19.190  0.00  0.00    +0.000 A 
ENDBRANCH   8  17
BRANCH   1  23
ATOM     23  C   UNL     1       6.408   5.398  15.038  0.00  0.00    +0.000 C 
BRANCH  23  24
ATOM     24  C   UNL     1       6.682   4.091  14.299  0.00  0.00    +0.000 C 
BRANCH  24  26
ATOM     25  C   UNL     1       5.706   3.172  12.167  0.00  0.00    +0.000 C 
ATOM     26  C   UNL     1       6.609   4.234  12.776  0.00  0.00    +0.000 C 
ENDBRANCH  24  26
ENDBRANCH  23  24
ENDBRANCH   1  23
TORSDOF 5
ENDMDL
