MODEL 1
REMARK VINA RESULT:      -8.3      0.000      0.000
REMARK  Name = 
REMARK  8 active torsions:
REMARK  status: ('A' for Active; 'I' for Inactive)
REMARK    1  A    between atoms: C_1  and  C_2
REMARK    2  A    between atoms: C_2  and  C_3
REMARK    3  A    between atoms: C_2  and  N_4
REMARK    4  A    between atoms: C_5  and  S_6
REMARK    5  A    between atoms: S_6  and  C_7
REMARK    6  A    between atoms: N_18  and  C_19
REMARK    7  A    between atoms: C_22  and  N_23
REMARK    8  A    between atoms: N_26  and  C_27
REMARK                            x       y       z     vdW  Elec       q    Type
REMARK                         _______ _______ _______ _____ _____    ______ ____
ROOT
ATOM      1  N   UNL     1      -3.418  11.713  18.783  0.00  0.00    +0.000 N 
ATOM      2  C   UNL     1      -4.330  12.584  19.350  0.00  0.00    +0.000 A 
ATOM      3  N   UNL     1      -3.800  13.328  20.299  0.00  0.00    +0.000 NA
ATOM      4  C   UNL     1      -2.502  12.904  20.394  0.00  0.00    +0.000 A 
ATOM      5  C   UNL     1      -1.439  13.281  21.202  0.00  0.00    +0.000 A 
ATOM      6  N   UNL     1      -0.248  12.630  21.096  0.00  0.00    +0.000 NA
ATOM      7  C   UNL     1      -0.128  11.616  20.213  0.00  0.00    +0.000 A 
ATOM      8  N   UNL     1       1.089  10.929  20.232  0.00  0.00    +0.000 N 
ATOM      9  N   UNL     1      -1.087  11.241  19.349  0.00  0.00    +0.000 NA
ATOM     10  C   UNL     1      -2.246  11.894  19.485  0.00  0.00    +0.000 A 
ATOM     11  H   UNL     1       1.735  11.375  20.865  0.00  0.00    +0.000 HD
ENDROOT
BRANCH   8  12
ATOM     12  C   UNL     1       1.381   9.610  19.857  0.00  0.00    +0.000 A 
ATOM     13  C   UNL     1       1.869   9.274  18.595  0.00  0.00    +0.000 A 
ATOM     14  C   UNL     1       2.302   7.980  18.288  0.00  0.00    +0.000 A 
ATOM     15  C   UNL     1       2.262   6.950  19.231  0.00  0.00    +0.000 A 
ATOM     16  C   UNL     1       1.720   7.275  20.482  0.00  0.00    +0.000 A 
ATOM     17  C   UNL     1       1.295   8.580  20.795  0.00  0.00    +0.000 A 
BRANCH  15  18
ATOM     18  N   UNL     1       2.828   5.722  18.941  0.00  0.00    +0.000 N 
ATOM     19  C   UNL     1       3.520   5.487  17.668  0.00  0.00    +0.000 C 
ATOM     20  C   UNL     1       3.371   4.002  17.266  0.00  0.00    +0.000 C 
ATOM     21  N   UNL     1       3.866   3.072  18.307  0.00  0.00    +0.000 NA
ATOM     22  C   UNL     1       3.653   1.689  17.891  0.00  0.00    +0.000 C 
ATOM     23  C   UNL     1       3.160   3.351  19.580  0.00  0.00    +0.000 C 
ATOM     24  C   UNL     1       3.276   4.830  20.028  0.00  0.00    +0.000 C 
ENDBRANCH  15  18
ENDBRANCH   8  12
BRANCH   1  26
ATOM     25  C   UNL     1      -2.879  11.117  16.425  0.00  0.00    +0.000 C 
ATOM     26  C   UNL     1      -3.664  10.765  17.693  0.00  0.00    +0.000 C 
ATOM     27  C   UNL     1      -3.404   9.285  18.010  0.00  0.00    +0.000 C 
ENDBRANCH   1  26
BRANCH   2  28
ATOM     28  S   UNL     1      -5.977  12.755  18.819  0.00  0.00    +0.000 S 
BRANCH  28  29
ATOM     29  C   UNL     1      -6.701  11.370  19.674  0.00  0.00    +0.000 A 
ATOM     30  C   UNL     1      -7.303  11.536  20.925  0.00  0.00    +0.000 A 
ATOM     31  C   UNL     1      -7.908  10.451  21.564  0.00  0.00    +0.000 A 
ATOM     32  C   UNL     1      -7.917   9.199  20.953  0.00  0.00    +0.000 A 
ATOM     33  C   UNL     1      -7.326   9.026  19.701  0.00  0.00    +0.000 A 
ATOM     34  C   UNL     1      -6.728  10.113  19.063  0.00  0.00    +0.000 A 
ENDBRANCH  28  29
ENDBRANCH   2  28
TORSDOF 5
ENDMDL
MODEL 2
REMARK VINA RESULT:      -7.8      2.042      2.829
REMARK  Name = 
REMARK  8 active torsions:
REMARK  status: ('A' for Active; 'I' for Inactive)
REMARK    1  A    between atoms: C_1  and  C_2
REMARK    2  A    between atoms: C_2  and  C_3
REMARK    3  A    between atoms: C_2  and  N_4
REMARK    4  A    between atoms: C_5  and  S_6
REMARK    5  A    between atoms: S_6  and  C_7
REMARK    6  A    between atoms: N_18  and  C_19
REMARK    7  A    between atoms: C_22  and  N_23
REMARK    8  A    between atoms: N_26  and  C_27
REMARK                            x       y       z     vdW  Elec       q    Type
REMARK                         _______ _______ _______ _____ _____    ______ ____
ROOT
ATOM      1  N   UNL     1      -4.082  11.823  18.894  0.00  0.00    +0.000 N 
ATOM      2  C   UNL     1      -5.035  12.625  19.495  0.00  0.00    +0.000 A 
ATOM      3  N   UNL     1      -4.512  13.482  20.348  0.00  0.00    +0.000 NA
ATOM      4  C   UNL     1      -3.172  13.208  20.345  0.00  0.00    +0.000 A 
ATOM      5  C   UNL     1      -2.092  13.749  21.028  0.00  0.00    +0.000 A 
ATOM      6  N   UNL     1      -0.848  13.226  20.847  0.00  0.00    +0.000 NA
ATOM      7  C   UNL     1      -0.691  12.176  20.013  0.00  0.00    +0.000 A 
ATOM      8  N   UNL     1       0.593  11.628  19.955  0.00  0.00    +0.000 N 
ATOM      9  N   UNL     1      -1.672  11.644  19.264  0.00  0.00    +0.000 NA
ATOM     10  C   UNL     1      -2.882  12.176  19.472  0.00  0.00    +0.000 A 
ATOM     11  H   UNL     1       1.237  12.181  20.500  0.00  0.00    +0.000 HD
ENDROOT
BRANCH   8  12
ATOM     12  C   UNL     1       1.000  10.327  19.627  0.00  0.00    +0.000 A 
ATOM     13  C   UNL     1       1.530   9.993  18.381  0.00  0.00    +0.000 A 
ATOM     14  C   UNL     1       2.075   8.731  18.121  0.00  0.00    +0.000 A 
ATOM     15  C   UNL     1       2.111   7.733  19.097  0.00  0.00    +0.000 A 
ATOM     16  C   UNL     1       1.528   8.050  20.331  0.00  0.00    +0.000 A 
ATOM     17  C   UNL     1       0.990   9.324  20.597  0.00  0.00    +0.000 A 
BRANCH  15  18
ATOM     18  N   UNL     1       2.781   6.549  18.853  0.00  0.00    +0.000 N 
ATOM     19  C   UNL     1       3.809   6.460  17.808  0.00  0.00    +0.000 C 
ATOM     20  C   UNL     1       3.835   5.026  17.230  0.00  0.00    +0.000 C 
ATOM     21  N   UNL     1       4.056   3.993  18.268  0.00  0.00    +0.000 NA
ATOM     22  C   UNL     1       4.021   2.661  17.668  0.00  0.00    +0.000 C 
ATOM     23  C   UNL     1       3.013   4.124  19.312  0.00  0.00    +0.000 C 
ATOM     24  C   UNL     1       2.942   5.547  19.924  0.00  0.00    +0.000 C 
ENDBRANCH  15  18
ENDBRANCH   8  12
BRANCH   1  26
ATOM     25  C   UNL     1      -4.351  11.356  16.462  0.00  0.00    +0.000 C 
ATOM     26  C   UNL     1      -4.312  10.787  17.884  0.00  0.00    +0.000 C 
ATOM     27  C   UNL     1      -3.330   9.605  17.890  0.00  0.00    +0.000 C 
ENDBRANCH   1  26
BRANCH   2  28
ATOM     28  S   UNL     1      -6.730  12.581  19.111  0.00  0.00    +0.000 S 
BRANCH  28  29
ATOM     29  C   UNL     1      -6.847  14.077  18.152  0.00  0.00    +0.000 A 
ATOM     30  C   UNL     1      -7.058  14.029  16.771  0.00  0.00    +0.000 A 
ATOM     31  C   UNL     1      -7.194  15.210  16.037  0.00  0.00    +0.000 A 
ATOM     32  C   UNL     1      -7.125  16.443  16.683  0.00  0.00    +0.000 A 
ATOM     33  C   UNL     1      -6.923  16.501  18.062  0.00  0.00    +0.000 A 
ATOM     34  C   UNL     1      -6.793  15.319  18.792  0.00  0.00    +0.000 A 
ENDBRANCH  28  29
ENDBRANCH   2  28
TORSDOF 5
ENDMDL
MODEL 3
REMARK VINA RESULT:      -7.6      1.248      1.821
REMARK  Name = 
REMARK  8 active torsions:
REMARK  status: ('A' for Active; 'I' for Inactive)
REMARK    1  A    between atoms: C_1  and  C_2
REMARK    2  A    between atoms: C_2  and  C_3
REMARK    3  A    between atoms: C_2  and  N_4
REMARK    4  A    between atoms: C_5  and  S_6
REMARK    5  A    between atoms: S_6  and  C_7
REMARK    6  A    between atoms: N_18  and  C_19
REMARK    7  A    between atoms: C_22  and  N_23
REMARK    8  A    between atoms: N_26  and  C_27
REMARK                            x       y       z     vdW  Elec       q    Type
REMARK                         _______ _______ _______ _____ _____    ______ ____
ROOT
ATOM      1  N   UNL     1      -3.728  11.793  18.899  0.00  0.00    +0.000 N 
ATOM      2  C   UNL     1      -4.609  12.675  19.498  0.00  0.00    +0.000 A 
ATOM      3  N   UNL     1      -4.017  13.471  20.366  0.00  0.00    +0.000 NA
ATOM      4  C   UNL     1      -2.708  13.071  20.374  0.00  0.00    +0.000 A 
ATOM      5  C   UNL     1      -1.590  13.501  21.075  0.00  0.00    +0.000 A 
ATOM      6  N   UNL     1      -0.400  12.864  20.901  0.00  0.00    +0.000 NA
ATOM      7  C   UNL     1      -0.333  11.812  20.058  0.00  0.00    +0.000 A 
ATOM      8  N   UNL     1       0.894  11.145  20.008  0.00  0.00    +0.000 N 
ATOM      9  N   UNL     1      -1.351  11.383  19.293  0.00  0.00    +0.000 NA
ATOM     10  C   UNL     1      -2.508  12.024  19.493  0.00  0.00    +0.000 A 
ATOM     11  H   UNL     1       1.581  11.630  20.565  0.00  0.00    +0.000 HD
ENDROOT
BRANCH   8  12
ATOM     12  C   UNL     1       1.180   9.815  19.671  0.00  0.00    +0.000 A 
ATOM     13  C   UNL     1       1.613   9.434  18.402  0.00  0.00    +0.000 A 
ATOM     14  C   UNL     1       2.043   8.132  18.124  0.00  0.00    +0.000 A 
ATOM     15  C   UNL     1       2.054   7.139  19.106  0.00  0.00    +0.000 A 
ATOM     16  C   UNL     1       1.567   7.508  20.368  0.00  0.00    +0.000 A 
ATOM     17  C   UNL     1       1.145   8.821  20.650  0.00  0.00    +0.000 A 
BRANCH  15  18
ATOM     18  N   UNL     1       2.616   5.904  18.838  0.00  0.00    +0.000 N 
ATOM     19  C   UNL     1       2.031   5.007  17.833  0.00  0.00    +0.000 C 
ATOM     20  C   UNL     1       2.300   3.539  18.235  0.00  0.00    +0.000 C 
ATOM     21  N   UNL     1       3.740   3.247  18.418  0.00  0.00    +0.000 NA
ATOM     22  C   UNL     1       3.924   1.862  18.843  0.00  0.00    +0.000 C 
ATOM     23  C   UNL     1       4.299   4.182  19.422  0.00  0.00    +0.000 C 
ATOM     24  C   UNL     1       4.055   5.671  19.069  0.00  0.00    +0.000 C 
ENDBRANCH  15  18
ENDBRANCH   8  12
BRANCH   1  26
ATOM     25  C   UNL     1      -4.148  11.403  16.475  0.00  0.00    +0.000 C 
ATOM     26  C   UNL     1      -4.044  10.792  17.877  0.00  0.00    +0.000 C 
ATOM     27  C   UNL     1      -3.097   9.586  17.793  0.00  0.00    +0.000 C 
ENDBRANCH   1  26
BRANCH   2  28
ATOM     28  S   UNL     1      -6.296  12.796  19.096  0.00  0.00    +0.000 S 
BRANCH  28  29
ATOM     29  C   UNL     1      -6.962  13.062  20.727  0.00  0.00    +0.000 A 
ATOM     30  C   UNL     1      -7.231  11.984  21.575  0.00  0.00    +0.000 A 
ATOM     31  C   UNL     1      -7.710  12.210  22.869  0.00  0.00    +0.000 A 
ATOM     32  C   UNL     1      -7.916  13.512  23.318  0.00  0.00    +0.000 A 
ATOM     33  C   UNL     1      -7.642  14.594  22.481  0.00  0.00    +0.000 A 
ATOM     34  C   UNL     1      -7.159  14.365  21.192  0.00  0.00    +0.000 A 
ENDBRANCH  28  29
ENDBRANCH   2  28
TORSDOF 5
ENDMDL
MODEL 4
REMARK VINA RESULT:      -7.5      3.732      6.234
REMARK  Name = 
REMARK  8 active torsions:
REMARK  status: ('A' for Active; 'I' for Inactive)
REMARK    1  A    between atoms: C_1  and  C_2
REMARK    2  A    between atoms: C_2  and  C_3
REMARK    3  A    between atoms: C_2  and  N_4
REMARK    4  A    between atoms: C_5  and  S_6
REMARK    5  A    between atoms: S_6  and  C_7
REMARK    6  A    between atoms: N_18  and  C_19
REMARK    7  A    between atoms: C_22  and  N_23
REMARK    8  A    between atoms: N_26  and  C_27
REMARK                            x       y       z     vdW  Elec       q    Type
REMARK                         _______ _______ _______ _____ _____    ______ ____
ROOT
ATOM      1  N   UNL     1       1.411  14.242  20.532  0.00  0.00    +0.000 N 
ATOM      2  C   UNL     1       0.640  15.388  20.464  0.00  0.00    +0.000 A 
ATOM      3  N   UNL     1      -0.650  15.128  20.393  0.00  0.00    +0.000 NA
ATOM      4  C   UNL     1      -0.732  13.762  20.369  0.00  0.00    +0.000 A 
ATOM      5  C   UNL     1      -1.800  12.878  20.292  0.00  0.00    +0.000 A 
ATOM      6  N   UNL     1      -1.563  11.538  20.239  0.00  0.00    +0.000 NA
ATOM      7  C   UNL     1      -0.288  11.094  20.249  0.00  0.00    +0.000 A 
ATOM      8  N   UNL     1      -0.119   9.716  20.089  0.00  0.00    +0.000 N 
ATOM      9  N   UNL     1       0.792  11.882  20.392  0.00  0.00    +0.000 NA
ATOM     10  C   UNL     1       0.525  13.191  20.432  0.00  0.00    +0.000 A 
ATOM     11  H   UNL     1      -1.014   9.251  20.081  0.00  0.00    +0.000 HD
ENDROOT
BRANCH   8  12
ATOM     12  C   UNL     1       0.970   8.998  19.576  0.00  0.00    +0.000 A 
ATOM     13  C   UNL     1       1.556   7.929  20.253  0.00  0.00    +0.000 A 
ATOM     14  C   UNL     1       2.537   7.126  19.662  0.00  0.00    +0.000 A 
ATOM     15  C   UNL     1       2.988   7.357  18.361  0.00  0.00    +0.000 A 
ATOM     16  C   UNL     1       2.439   8.465  17.701  0.00  0.00    +0.000 A 
ATOM     17  C   UNL     1       1.443   9.267  18.291  0.00  0.00    +0.000 A 
BRANCH  15  18
ATOM     18  N   UNL     1       3.852   6.462  17.757  0.00  0.00    +0.000 N 
ATOM     19  C   UNL     1       5.069   6.924  17.077  0.00  0.00    +0.000 C 
ATOM     20  C   UNL     1       5.409   5.961  15.917  0.00  0.00    +0.000 C 
ATOM     21  N   UNL     1       5.562   4.557  16.363  0.00  0.00    +0.000 NA
ATOM     22  C   UNL     1       5.834   3.692  15.218  0.00  0.00    +0.000 C 
ATOM     23  C   UNL     1       4.326   4.132  17.060  0.00  0.00    +0.000 C 
ATOM     24  C   UNL     1       3.937   5.068  18.233  0.00  0.00    +0.000 C 
ENDBRANCH  15  18
ENDBRANCH   8  12
BRANCH   1  26
ATOM     25  C   UNL     1       3.577  14.605  19.355  0.00  0.00    +0.000 C 
ATOM     26  C   UNL     1       2.870  14.168  20.643  0.00  0.00    +0.000 C 
ATOM     27  C   UNL     1       3.501  14.942  21.810  0.00  0.00    +0.000 C 
ENDBRANCH   1  26
BRANCH   2  28
ATOM     28  S   UNL     1       1.279  17.002  20.552  0.00  0.00    +0.000 S 
BRANCH  28  29
ATOM     29  C   UNL     1       0.870  17.564  18.912  0.00  0.00    +0.000 A 
ATOM     30  C   UNL     1      -0.371  18.152  18.645  0.00  0.00    +0.000 A 
ATOM     31  C   UNL     1      -0.661  18.631  17.365  0.00  0.00    +0.000 A 
ATOM     32  C   UNL     1       0.288  18.528  16.350  0.00  0.00    +0.000 A 
ATOM     33  C   UNL     1       1.531  17.951  16.610  0.00  0.00    +0.000 A 
ATOM     34  C   UNL     1       1.820  17.479  17.891  0.00  0.00    +0.000 A 
ENDBRANCH  28  29
ENDBRANCH   2  28
TORSDOF 5
ENDMDL
MODEL 5
REMARK VINA RESULT:      -7.4      2.085      2.786
REMARK  Name = 
REMARK  8 active torsions:
REMARK  status: ('A' for Active; 'I' for Inactive)
REMARK    1  A    between atoms: C_1  and  C_2
REMARK    2  A    between atoms: C_2  and  C_3
REMARK    3  A    between atoms: C_2  and  N_4
REMARK    4  A    between atoms: C_5  and  S_6
REMARK    5  A    between atoms: S_6  and  C_7
REMARK    6  A    between atoms: N_18  and  C_19
REMARK    7  A    between atoms: C_22  and  N_23
REMARK    8  A    between atoms: N_26  and  C_27
REMARK                            x       y       z     vdW  Elec       q    Type
REMARK                         _______ _______ _______ _____ _____    ______ ____
ROOT
ATOM      1  N   UNL     1      -4.075  11.759  18.784  0.00  0.00    +0.000 N 
ATOM      2  C   UNL     1      -5.009  12.589  19.376  0.00  0.00    +0.000 A 
ATOM      3  N   UNL     1      -4.464  13.461  20.200  0.00  0.00    +0.000 NA
ATOM      4  C   UNL     1      -3.128  13.169  20.186  0.00  0.00    +0.000 A 
ATOM      5  C   UNL     1      -2.032  13.713  20.842  0.00  0.00    +0.000 A 
ATOM      6  N   UNL     1      -0.798  13.168  20.659  0.00  0.00    +0.000 NA
ATOM      7  C   UNL     1      -0.666  12.095  19.851  0.00  0.00    +0.000 A 
ATOM      8  N   UNL     1       0.610  11.527  19.791  0.00  0.00    +0.000 N 
ATOM      9  N   UNL     1      -1.664  11.557  19.129  0.00  0.00    +0.000 NA
ATOM     10  C   UNL     1      -2.863  12.110  19.338  0.00  0.00    +0.000 A 
ATOM     11  H   UNL     1       1.269  12.086  20.313  0.00  0.00    +0.000 HD
ENDROOT
BRANCH   8  12
ATOM     12  C   UNL     1       0.996  10.213  19.493  0.00  0.00    +0.000 A 
ATOM     13  C   UNL     1       1.510   9.840  18.252  0.00  0.00    +0.000 A 
ATOM     14  C   UNL     1       2.034   8.564  18.019  0.00  0.00    +0.000 A 
ATOM     15  C   UNL     1       2.064   7.590  19.020  0.00  0.00    +0.000 A 
ATOM     16  C   UNL     1       1.496   7.947  20.251  0.00  0.00    +0.000 A 
ATOM     17  C   UNL     1       0.979   9.235  20.488  0.00  0.00    +0.000 A 
BRANCH  15  18
ATOM     18  N   UNL     1       2.715   6.390  18.801  0.00  0.00    +0.000 N 
ATOM     19  C   UNL     1       2.054   5.287  18.092  0.00  0.00    +0.000 C 
ATOM     20  C   UNL     1       2.596   3.938  18.618  0.00  0.00    +0.000 C 
ATOM     21  N   UNL     1       4.067   3.825  18.501  0.00  0.00    +0.000 NA
ATOM     22  C   UNL     1       4.521   2.553  19.057  0.00  0.00    +0.000 C 
ATOM     23  C   UNL     1       4.699   4.963  19.210  0.00  0.00    +0.000 C 
ATOM     24  C   UNL     1       4.188   6.342  18.721  0.00  0.00    +0.000 C 
ENDBRANCH  15  18
ENDBRANCH   8  12
BRANCH   1  26
ATOM     25  C   UNL     1      -4.353  11.226  16.367  0.00  0.00    +0.000 C 
ATOM     26  C   UNL     1      -4.332  10.699  17.806  0.00  0.00    +0.000 C 
ATOM     27  C   UNL     1      -3.384   9.491  17.850  0.00  0.00    +0.000 C 
ENDBRANCH   1  26
BRANCH   2  28
ATOM     28  S   UNL     1      -6.710  12.559  19.015  0.00  0.00    +0.000 S 
BRANCH  28  29
ATOM     29  C   UNL     1      -6.869  14.154  18.240  0.00  0.00    +0.000 A 
ATOM     30  C   UNL     1      -6.788  15.329  18.994  0.00  0.00    +0.000 A 
ATOM     31  C   UNL     1      -6.868  16.574  18.366  0.00  0.00    +0.000 A 
ATOM     32  C   UNL     1      -7.023  16.650  16.984  0.00  0.00    +0.000 A 
ATOM     33  C   UNL     1      -7.096  15.483  16.223  0.00  0.00    +0.000 A 
ATOM     34  C   UNL     1      -7.010  14.240  16.852  0.00  0.00    +0.000 A 
ENDBRANCH  28  29
ENDBRANCH   2  28
TORSDOF 5
ENDMDL
MODEL 6
REMARK VINA RESULT:      -7.2      1.949      2.746
REMARK  Name = 
REMARK  8 active torsions:
REMARK  status: ('A' for Active; 'I' for Inactive)
REMARK    1  A    between atoms: C_1  and  C_2
REMARK    2  A    between atoms: C_2  and  C_3
REMARK    3  A    between atoms: C_2  and  N_4
REMARK    4  A    between atoms: C_5  and  S_6
REMARK    5  A    between atoms: S_6  and  C_7
REMARK    6  A    between atoms: N_18  and  C_19
REMARK    7  A    between atoms: C_22  and  N_23
REMARK    8  A    between atoms: N_26  and  C_27
REMARK                            x       y       z     vdW  Elec       q    Type
REMARK                         _______ _______ _______ _____ _____    ______ ____
ROOT
ATOM      1  N   UNL     1      -1.568  11.983  20.279  0.00  0.00    +0.000 N 
ATOM      2  C   UNL     1      -2.611  12.571  20.971  0.00  0.00    +0.000 A 
ATOM      3  N   UNL     1      -2.638  12.223  22.241  0.00  0.00    +0.000 NA
ATOM      4  C   UNL     1      -1.603  11.339  22.384  0.00  0.00    +0.000 A 
ATOM      5  C   UNL     1      -1.117  10.616  23.465  0.00  0.00    +0.000 A 
ATOM      6  N   UNL     1      -0.074   9.759  23.288  0.00  0.00    +0.000 NA
ATOM      7  C   UNL     1       0.460   9.617  22.056  0.00  0.00    +0.000 A 
ATOM      8  N   UNL     1       1.458   8.647  21.931  0.00  0.00    +0.000 N 
ATOM      9  N   UNL     1       0.091  10.331  20.979  0.00  0.00    +0.000 NA
ATOM     10  C   UNL     1      -0.940  11.158  21.185  0.00  0.00    +0.000 A 
ATOM     11  H   UNL     1       1.686   8.257  22.833  0.00  0.00    +0.000 HD
ENDROOT
BRANCH   8  12
ATOM     12  C   UNL     1       1.858   7.911  20.807  0.00  0.00    +0.000 A 
ATOM     13  C   UNL     1       2.041   8.489  19.551  0.00  0.00    +0.000 A 
ATOM     14  C   UNL     1       2.589   7.777  18.479  0.00  0.00    +0.000 A 
ATOM     15  C   UNL     1       2.976   6.442  18.608  0.00  0.00    +0.000 A 
ATOM     16  C   UNL     1       2.741   5.844  19.854  0.00  0.00    +0.000 A 
ATOM     17  C   UNL     1       2.200   6.564  20.936  0.00  0.00    +0.000 A 
BRANCH  15  18
ATOM     18  N   UNL     1       3.643   5.810  17.574  0.00  0.00    +0.000 N 
ATOM     19  C   UNL     1       3.324   4.426  17.200  0.00  0.00    +0.000 C 
ATOM     20  C   UNL     1       4.591   3.739  16.641  0.00  0.00    +0.000 C 
ATOM     21  N   UNL     1       5.181   4.466  15.494  0.00  0.00    +0.000 NA
ATOM     22  C   UNL     1       6.398   3.796  15.044  0.00  0.00    +0.000 C 
ATOM     23  C   UNL     1       5.471   5.861  15.902  0.00  0.00    +0.000 C 
ATOM     24  C   UNL     1       4.232   6.597  16.474  0.00  0.00    +0.000 C 
ENDBRANCH  15  18
ENDBRANCH   8  12
BRANCH   1  26
ATOM     25  C   UNL     1       0.138  12.829  18.672  0.00  0.00    +0.000 C 
ATOM     26  C   UNL     1      -1.233  12.171  18.865  0.00  0.00    +0.000 C 
ATOM     27  C   UNL     1      -1.276  10.912  17.985  0.00  0.00    +0.000 C 
ENDBRANCH   1  26
BRANCH   2  28
ATOM     28  S   UNL     1      -3.720  13.717  20.277  0.00  0.00    +0.000 S 
BRANCH  28  29
ATOM     29  C   UNL     1      -4.982  12.593  19.716  0.00  0.00    +0.000 A 
ATOM     30  C   UNL     1      -6.141  12.382  20.469  0.00  0.00    +0.000 A 
ATOM     31  C   UNL     1      -7.144  11.533  19.995  0.00  0.00    +0.000 A 
ATOM     32  C   UNL     1      -6.995  10.897  18.764  0.00  0.00    +0.000 A 
ATOM     33  C   UNL     1      -5.846  11.109  18.002  0.00  0.00    +0.000 A 
ATOM     34  C   UNL     1      -4.848  11.961  18.476  0.00  0.00    +0.000 A 
ENDBRANCH  28  29
ENDBRANCH   2  28
TORSDOF 5
ENDMDL
MODEL 7
REMARK VINA RESULT:      -7.2      2.148      3.094
REMARK  Name = 
REMARK  8 active torsions:
REMARK  status: ('A' for Active; 'I' for Inactive)
REMARK    1  A    between atoms: C_1  and  C_2
REMARK    2  A    between atoms: C_2  and  C_3
REMARK    3  A    between atoms: C_2  and  N_4
REMARK    4  A    between atoms: C_5  and  S_6
REMARK    5  A    between atoms: S_6  and  C_7
REMARK    6  A    between atoms: N_18  and  C_19
REMARK    7  A    between atoms: C_22  and  N_23
REMARK    8  A    between atoms: N_26  and  C_27
REMARK                            x       y       z     vdW  Elec       q    Type
REMARK                         _______ _______ _______ _____ _____    ______ ____
ROOT
ATOM      1  N   UNL     1      -4.058  11.473  18.529  0.00  0.00    +0.000 N 
ATOM      2  C   UNL     1      -5.241  12.102  18.872  0.00  0.00    +0.000 A 
ATOM      3  N   UNL     1      -5.100  12.933  19.885  0.00  0.00    +0.000 NA
ATOM      4  C   UNL     1      -3.787  12.816  20.253  0.00  0.00    +0.000 A 
ATOM      5  C   UNL     1      -3.025  13.414  21.248  0.00  0.00    +0.000 A 
ATOM      6  N   UNL     1      -1.721  13.056  21.405  0.00  0.00    +0.000 NA
ATOM      7  C   UNL     1      -1.196  12.112  20.595  0.00  0.00    +0.000 A 
ATOM      8  N   UNL     1       0.116  11.723  20.881  0.00  0.00    +0.000 N 
ATOM      9  N   UNL     1      -1.847  11.541  19.568  0.00  0.00    +0.000 NA
ATOM     10  C   UNL     1      -3.127  11.908  19.446  0.00  0.00    +0.000 A 
ATOM     11  H   UNL     1       0.500  12.295  21.618  0.00  0.00    +0.000 HD
ENDROOT
BRANCH   8  12
ATOM     12  C   UNL     1       0.772  10.513  20.615  0.00  0.00    +0.000 A 
ATOM     13  C   UNL     1       0.913   9.505  21.568  0.00  0.00    +0.000 A 
ATOM     14  C   UNL     1       1.430   8.246  21.245  0.00  0.00    +0.000 A 
ATOM     15  C   UNL     1       1.840   7.933  19.947  0.00  0.00    +0.000 A 
ATOM     16  C   UNL     1       1.750   8.964  19.002  0.00  0.00    +0.000 A 
ATOM     17  C   UNL     1       1.219  10.228  19.324  0.00  0.00    +0.000 A 
BRANCH  15  18
ATOM     18  N   UNL     1       2.212   6.640  19.630  0.00  0.00    +0.000 N 
ATOM     19  C   UNL     1       1.736   5.498  20.421  0.00  0.00    +0.000 C 
ATOM     20  C   UNL     1       2.798   4.375  20.395  0.00  0.00    +0.000 C 
ATOM     21  N   UNL     1       3.149   3.947  19.022  0.00  0.00    +0.000 NA
ATOM     22  C   UNL     1       4.189   2.922  19.063  0.00  0.00    +0.000 C 
ATOM     23  C   UNL     1       3.606   5.126  18.249  0.00  0.00    +0.000 C 
ATOM     24  C   UNL     1       2.577   6.285  18.245  0.00  0.00    +0.000 C 
ENDBRANCH  15  18
ENDBRANCH   8  12
BRANCH   1  26
ATOM     25  C   UNL     1      -3.883  11.179  16.061  0.00  0.00    +0.000 C 
ATOM     26  C   UNL     1      -3.854  10.513  17.441  0.00  0.00    +0.000 C 
ATOM     27  C   UNL     1      -2.580   9.658  17.522  0.00  0.00    +0.000 C 
ENDBRANCH   1  26
BRANCH   2  28
ATOM     28  S   UNL     1      -6.740  11.898  18.013  0.00  0.00    +0.000 S 
BRANCH  28  29
ATOM     29  C   UNL     1      -7.095  13.604  17.644  0.00  0.00    +0.000 A 
ATOM     30  C   UNL     1      -6.943  14.103  16.347  0.00  0.00    +0.000 A 
ATOM     31  C   UNL     1      -7.269  15.431  16.062  0.00  0.00    +0.000 A 
ATOM     32  C   UNL     1      -7.752  16.262  17.070  0.00  0.00    +0.000 A 
ATOM     33  C   UNL     1      -7.915  15.771  18.365  0.00  0.00    +0.000 A 
ATOM     34  C   UNL     1      -7.594  14.442  18.646  0.00  0.00    +0.000 A 
ENDBRANCH  28  29
ENDBRANCH   2  28
TORSDOF 5
ENDMDL
MODEL 8
REMARK VINA RESULT:      -7.2      2.226      2.993
REMARK  Name = 
REMARK  8 active torsions:
REMARK  status: ('A' for Active; 'I' for Inactive)
REMARK    1  A    between atoms: C_1  and  C_2
REMARK    2  A    between atoms: C_2  and  C_3
REMARK    3  A    between atoms: C_2  and  N_4
REMARK    4  A    between atoms: C_5  and  S_6
REMARK    5  A    between atoms: S_6  and  C_7
REMARK    6  A    between atoms: N_18  and  C_19
REMARK    7  A    between atoms: C_22  and  N_23
REMARK    8  A    between atoms: N_26  and  C_27
REMARK                            x       y       z     vdW  Elec       q    Type
REMARK                         _______ _______ _______ _____ _____    ______ ____
ROOT
ATOM      1  N   UNL     1      -4.174  11.799  18.911  0.00  0.00    +0.000 N 
ATOM      2  C   UNL     1      -5.280  12.510  19.339  0.00  0.00    +0.000 A 
ATOM      3  N   UNL     1      -4.989  13.380  20.285  0.00  0.00    +0.000 NA
ATOM      4  C   UNL     1      -3.652  13.207  20.522  0.00  0.00    +0.000 A 
ATOM      5  C   UNL     1      -2.759  13.809  21.398  0.00  0.00    +0.000 A 
ATOM      6  N   UNL     1      -1.466  13.385  21.439  0.00  0.00    +0.000 NA
ATOM      7  C   UNL     1      -1.079  12.373  20.633  0.00  0.00    +0.000 A 
ATOM      8  N   UNL     1       0.233  11.924  20.803  0.00  0.00    +0.000 N 
ATOM      9  N   UNL     1      -1.864  11.791  19.711  0.00  0.00    +0.000 NA
ATOM     10  C   UNL     1      -3.130  12.224  19.702  0.00  0.00    +0.000 A 
ATOM     11  H   UNL     1       0.723  12.509  21.464  0.00  0.00    +0.000 HD
ENDROOT
BRANCH   8  12
ATOM     12  C   UNL     1       0.794  10.668  20.537  0.00  0.00    +0.000 A 
ATOM     13  C   UNL     1       0.928   9.679  21.511  0.00  0.00    +0.000 A 
ATOM     14  C   UNL     1       1.343   8.380  21.198  0.00  0.00    +0.000 A 
ATOM     15  C   UNL     1       1.653   8.006  19.889  0.00  0.00    +0.000 A 
ATOM     16  C   UNL     1       1.572   9.014  18.919  0.00  0.00    +0.000 A 
ATOM     17  C   UNL     1       1.143  10.318  19.232  0.00  0.00    +0.000 A 
BRANCH  15  18
ATOM     18  N   UNL     1       1.923   6.682  19.592  0.00  0.00    +0.000 N 
ATOM     19  C   UNL     1       2.806   6.321  18.475  0.00  0.00    +0.000 C 
ATOM     20  C   UNL     1       2.364   4.959  17.890  0.00  0.00    +0.000 C 
ATOM     21  N   UNL     1       2.337   3.880  18.903  0.00  0.00    +0.000 NA
ATOM     22  C   UNL     1       1.867   2.635  18.301  0.00  0.00    +0.000 C 
ATOM     23  C   UNL     1       1.454   4.287  20.021  0.00  0.00    +0.000 C 
ATOM     24  C   UNL     1       1.851   5.650  20.644  0.00  0.00    +0.000 C 
ENDBRANCH  15  18
ENDBRANCH   8  12
BRANCH   1  26
ATOM     25  C   UNL     1      -4.183  11.382  16.455  0.00  0.00    +0.000 C 
ATOM     26  C   UNL     1      -4.136  10.777  17.862  0.00  0.00    +0.000 C 
ATOM     27  C   UNL     1      -2.953   9.798  17.913  0.00  0.00    +0.000 C 
ENDBRANCH   1  26
BRANCH   2  28
ATOM     28  S   UNL     1      -6.870  12.351  18.653  0.00  0.00    +0.000 S 
BRANCH  28  29
ATOM     29  C   UNL     1      -7.044  13.978  17.950  0.00  0.00    +0.000 A 
ATOM     30  C   UNL     1      -7.030  15.115  18.763  0.00  0.00    +0.000 A 
ATOM     31  C   UNL     1      -7.121  16.388  18.195  0.00  0.00    +0.000 A 
ATOM     32  C   UNL     1      -7.223  16.528  16.813  0.00  0.00    +0.000 A 
ATOM     33  C   UNL     1      -7.230  15.400  15.993  0.00  0.00    +0.000 A 
ATOM     34  C   UNL     1      -7.133  14.130  16.563  0.00  0.00    +0.000 A 
ENDBRANCH  28  29
ENDBRANCH   2  28
TORSDOF 5
ENDMDL
MODEL 9
REMARK VINA RESULT:      -7.1      4.831     11.011
REMARK  Name = 
REMARK  8 active torsions:
REMARK  status: ('A' for Active; 'I' for Inactive)
REMARK    1  A    between atoms: C_1  and  C_2
REMARK    2  A    between atoms: C_2  and  C_3
REMARK    3  A    between atoms: C_2  and  N_4
REMARK    4  A    between atoms: C_5  and  S_6
REMARK    5  A    between atoms: S_6  and  C_7
REMARK    6  A    between atoms: N_18  and  C_19
REMARK    7  A    between atoms: C_22  and  N_23
REMARK    8  A    between atoms: N_26  and  C_27
REMARK                            x       y       z     vdW  Elec       q    Type
REMARK                         _______ _______ _______ _____ _____    ______ ____
ROOT
ATOM      1  N   UNL     1       5.225   5.886  18.234  0.00  0.00    +0.000 N 
ATOM      2  C   UNL     1       6.016   4.754  18.312  0.00  0.00    +0.000 A 
ATOM      3  N   UNL     1       5.475   3.807  19.052  0.00  0.00    +0.000 NA
ATOM      4  C   UNL     1       4.307   4.349  19.516  0.00  0.00    +0.000 A 
ATOM      5  C   UNL     1       3.301   3.866  20.342  0.00  0.00    +0.000 A 
ATOM      6  N   UNL     1       2.256   4.673  20.673  0.00  0.00    +0.000 NA
ATOM      7  C   UNL     1       2.224   5.937  20.200  0.00  0.00    +0.000 A 
ATOM      8  N   UNL     1       1.176   6.737  20.663  0.00  0.00    +0.000 N 
ATOM      9  N   UNL     1       3.121   6.452  19.342  0.00  0.00    +0.000 NA
ATOM     10  C   UNL     1       4.139   5.637  19.044  0.00  0.00    +0.000 A 
ATOM     11  H   UNL     1       0.541   6.193  21.227  0.00  0.00    +0.000 HD
ENDROOT
BRANCH   8  12
ATOM     12  C   UNL     1       1.100   8.130  20.794  0.00  0.00    +0.000 A 
ATOM     13  C   UNL     1       1.112   8.993  19.698  0.00  0.00    +0.000 A 
ATOM     14  C   UNL     1       0.880  10.366  19.832  0.00  0.00    +0.000 A 
ATOM     15  C   UNL     1       0.629  10.949  21.077  0.00  0.00    +0.000 A 
ATOM     16  C   UNL     1       0.672  10.090  22.184  0.00  0.00    +0.000 A 
ATOM     17  C   UNL     1       0.894   8.707  22.048  0.00  0.00    +0.000 A 
BRANCH  15  18
ATOM     18  N   UNL     1       0.264  12.280  21.158  0.00  0.00    +0.000 N 
ATOM     19  C   UNL     1       0.394  13.174  20.001  0.00  0.00    +0.000 C 
ATOM     20  C   UNL     1       0.670  14.614  20.491  0.00  0.00    +0.000 C 
ATOM     21  N   UNL     1      -0.369  15.113  21.421  0.00  0.00    +0.000 NA
ATOM     22  C   UNL     1      -0.027  16.456  21.885  0.00  0.00    +0.000 C 
ATOM     23  C   UNL     1      -0.485  14.178  22.564  0.00  0.00    +0.000 C 
ATOM     24  C   UNL     1      -0.760  12.716  22.127  0.00  0.00    +0.000 C 
ENDBRANCH  15  18
ENDBRANCH   8  12
BRANCH   1  26
ATOM     25  C   UNL     1       7.003   7.461  17.481  0.00  0.00    +0.000 C 
ATOM     26  C   UNL     1       5.511   7.110  17.481  0.00  0.00    +0.000 C 
ATOM     27  C   UNL     1       5.023   7.138  16.024  0.00  0.00    +0.000 C 
ENDBRANCH   1  26
BRANCH   2  28
ATOM     28  S   UNL     1       7.518   4.551  17.460  0.00  0.00    +0.000 S 
BRANCH  28  29
ATOM     29  C   UNL     1       6.884   4.306  15.813  0.00  0.00    +0.000 A 
ATOM     30  C   UNL     1       5.697   3.600  15.600  0.00  0.00    +0.000 A 
ATOM     31  C   UNL     1       5.186   3.455  14.308  0.00  0.00    +0.000 A 
ATOM     32  C   UNL     1       5.858   4.019  13.226  0.00  0.00    +0.000 A 
ATOM     33  C   UNL     1       7.039   4.734  13.430  0.00  0.00    +0.000 A 
ATOM     34  C   UNL     1       7.543   4.881  14.723  0.00  0.00    +0.000 A 
ENDBRANCH  28  29
ENDBRANCH   2  28
TORSDOF 5
ENDMDL
