MODEL 1
REMARK VINA RESULT:      -7.4      0.000      0.000
REMARK  Name = 
REMARK  7 active torsions:
REMARK  status: ('A' for Active; 'I' for Inactive)
REMARK    1  A    between atoms: C_1  and  C_2
REMARK    2  A    between atoms: C_2  and  C_3
REMARK    3  A    between atoms: C_3  and  C_4
REMARK    4  A    between atoms: C_4  and  N_5
REMARK    5  A    between atoms: C_6  and  O_7
REMARK    6  A    between atoms: C_8  and  N_9
REMARK    7  A    between atoms: N_10  and  C_11
REMARK                            x       y       z     vdW  Elec       q    Type
REMARK                         _______ _______ _______ _____ _____    ______ ____
ROOT
ATOM      1  N   UNL     1       3.437   4.894  19.607  0.00  0.00    +0.000 N 
ATOM      2  C   UNL     1       4.211   4.408  18.567  0.00  0.00    +0.000 A 
ATOM      3  C   UNL     1       4.137   5.342  17.551  0.00  0.00    +0.000 A 
ATOM      4  C   UNL     1       3.367   6.449  17.989  0.00  0.00    +0.000 A 
ATOM      5  C   UNL     1       2.971   7.668  17.400  0.00  0.00    +0.000 A 
ATOM      6  C   UNL     1       2.188   8.567  18.129  0.00  0.00    +0.000 A 
ATOM      7  C   UNL     1       1.815   8.278  19.434  0.00  0.00    +0.000 A 
ATOM      8  C   UNL     1       2.210   7.086  20.048  0.00  0.00    +0.000 A 
ATOM      9  C   UNL     1       2.970   6.168  19.299  0.00  0.00    +0.000 A 
ENDROOT
BRANCH   2  10
ATOM     10  O   UNL     1       4.878   3.254  18.591  0.00  0.00    +0.000 OA
ATOM     11  H   UNL     1       5.794   3.370  18.873  0.00  0.00    +0.000 HD
ENDBRANCH   2  10
BRANCH   3  12
ATOM     12  N   UNL     1       4.737   5.311  16.282  0.00  0.00    +0.000 NA
ATOM     13  N   UNL     1       5.634   4.451  16.164  0.00  0.00    +0.000 NA
BRANCH  13  14
ATOM     14  C   UNL     1       6.207   4.441  14.878  0.00  0.00    +0.000 A 
ATOM     15  C   UNL     1       5.727   3.665  13.820  0.00  0.00    +0.000 A 
ATOM     16  C   UNL     1       6.359   3.737  12.580  0.00  0.00    +0.000 A 
ATOM     17  C   UNL     1       7.443   4.590  12.422  0.00  0.00    +0.000 A 
ATOM     18  C   UNL     1       7.848   5.338  13.514  0.00  0.00    +0.000 A 
ATOM     19  N   UNL     1       7.258   5.283  14.726  0.00  0.00    +0.000 NA
ENDBRANCH  13  14
ENDBRANCH   3  12
BRANCH   1  20
ATOM     20  C   UNL     1       3.119   4.211  20.857  0.00  0.00    +0.000 C 
BRANCH  20  21
ATOM     21  C   UNL     1       2.268   2.956  20.643  0.00  0.00    +0.000 C 
BRANCH  21  23
ATOM     22  C   UNL     1       0.750   2.579  18.681  0.00  0.00    +0.000 C 
ATOM     23  C   UNL     1       0.913   3.286  20.019  0.00  0.00    +0.000 C 
ENDBRANCH  21  23
ENDBRANCH  20  21
ENDBRANCH   1  20
TORSDOF 6
ENDMDL
MODEL 2
REMARK VINA RESULT:      -7.2      0.740      1.105
REMARK  Name = 
REMARK  7 active torsions:
REMARK  status: ('A' for Active; 'I' for Inactive)
REMARK    1  A    between atoms: C_1  and  C_2
REMARK    2  A    between atoms: C_2  and  C_3
REMARK    3  A    between atoms: C_3  and  C_4
REMARK    4  A    between atoms: C_4  and  N_5
REMARK    5  A    between atoms: C_6  and  O_7
REMARK    6  A    between atoms: C_8  and  N_9
REMARK    7  A    between atoms: N_10  and  C_11
REMARK                            x       y       z     vdW  Elec       q    Type
REMARK                         _______ _______ _______ _____ _____    ______ ____
ROOT
ATOM      1  N   UNL     1       3.409   4.898  19.484  0.00  0.00    +0.000 N 
ATOM      2  C   UNL     1       4.244   4.428  18.483  0.00  0.00    +0.000 A 
ATOM      3  C   UNL     1       4.257   5.394  17.495  0.00  0.00    +0.000 A 
ATOM      4  C   UNL     1       3.480   6.503  17.915  0.00  0.00    +0.000 A 
ATOM      5  C   UNL     1       3.148   7.748  17.341  0.00  0.00    +0.000 A 
ATOM      6  C   UNL     1       2.334   8.640  18.043  0.00  0.00    +0.000 A 
ATOM      7  C   UNL     1       1.868   8.319  19.311  0.00  0.00    +0.000 A 
ATOM      8  C   UNL     1       2.197   7.101  19.910  0.00  0.00    +0.000 A 
ATOM      9  C   UNL     1       2.989   6.190  19.186  0.00  0.00    +0.000 A 
ENDROOT
BRANCH   2  10
ATOM     10  O   UNL     1       4.886   3.260  18.514  0.00  0.00    +0.000 OA
ATOM     11  H   UNL     1       5.440   3.171  19.300  0.00  0.00    +0.000 HD
ENDBRANCH   2  10
BRANCH   3  12
ATOM     12  N   UNL     1       4.942   5.390  16.270  0.00  0.00    +0.000 NA
ATOM     13  N   UNL     1       5.264   4.252  15.871  0.00  0.00    +0.000 NA
BRANCH  13  14
ATOM     14  C   UNL     1       5.940   4.283  14.636  0.00  0.00    +0.000 A 
ATOM     15  C   UNL     1       7.100   5.025  14.402  0.00  0.00    +0.000 A 
ATOM     16  C   UNL     1       7.699   4.978  13.145  0.00  0.00    +0.000 A 
ATOM     17  C   UNL     1       7.136   4.181  12.157  0.00  0.00    +0.000 A 
ATOM     18  C   UNL     1       5.995   3.463  12.472  0.00  0.00    +0.000 A 
ATOM     19  N   UNL     1       5.391   3.496  13.678  0.00  0.00    +0.000 NA
ENDBRANCH  13  14
ENDBRANCH   3  12
BRANCH   1  20
ATOM     20  C   UNL     1       2.994   4.184  20.686  0.00  0.00    +0.000 C 
BRANCH  20  21
ATOM     21  C   UNL     1       1.502   3.837  20.680  0.00  0.00    +0.000 C 
BRANCH  21  23
ATOM     22  C   UNL     1       0.914   2.474  18.658  0.00  0.00    +0.000 C 
ATOM     23  C   UNL     1       1.246   2.430  20.142  0.00  0.00    +0.000 C 
ENDBRANCH  21  23
ENDBRANCH  20  21
ENDBRANCH   1  20
TORSDOF 6
ENDMDL
MODEL 3
REMARK VINA RESULT:      -7.1      2.233      7.095
REMARK  Name = 
REMARK  7 active torsions:
REMARK  status: ('A' for Active; 'I' for Inactive)
REMARK    1  A    between atoms: C_1  and  C_2
REMARK    2  A    between atoms: C_2  and  C_3
REMARK    3  A    between atoms: C_3  and  C_4
REMARK    4  A    between atoms: C_4  and  N_5
REMARK    5  A    between atoms: C_6  and  O_7
REMARK    6  A    between atoms: C_8  and  N_9
REMARK    7  A    between atoms: N_10  and  C_11
REMARK                            x       y       z     vdW  Elec       q    Type
REMARK                         _______ _______ _______ _____ _____    ______ ____
ROOT
ATOM      1  N   UNL     1       4.469   4.718  17.135  0.00  0.00    +0.000 N 
ATOM      2  C   UNL     1       4.189   6.038  17.441  0.00  0.00    +0.000 A 
ATOM      3  C   UNL     1       2.973   6.042  18.097  0.00  0.00    +0.000 A 
ATOM      4  C   UNL     1       2.525   4.707  18.259  0.00  0.00    +0.000 A 
ATOM      5  C   UNL     1       1.387   4.113  18.845  0.00  0.00    +0.000 A 
ATOM      6  C   UNL     1       1.249   2.723  18.835  0.00  0.00    +0.000 A 
ATOM      7  C   UNL     1       2.234   1.921  18.274  0.00  0.00    +0.000 A 
ATOM      8  C   UNL     1       3.380   2.483  17.705  0.00  0.00    +0.000 A 
ATOM      9  C   UNL     1       3.500   3.885  17.685  0.00  0.00    +0.000 A 
ENDROOT
BRANCH   2  10
ATOM     10  O   UNL     1       4.975   7.073  17.138  0.00  0.00    +0.000 OA
ATOM     11  H   UNL     1       5.892   6.803  17.000  0.00  0.00    +0.000 HD
ENDBRANCH   2  10
BRANCH   3  12
ATOM     12  N   UNL     1       2.249   7.134  18.603  0.00  0.00    +0.000 NA
ATOM     13  N   UNL     1       2.271   7.226  19.847  0.00  0.00    +0.000 NA
BRANCH  13  14
ATOM     14  C   UNL     1       1.544   8.336  20.320  0.00  0.00    +0.000 A 
ATOM     15  C   UNL     1       1.204   8.528  21.661  0.00  0.00    +0.000 A 
ATOM     16  C   UNL     1       0.493   9.668  22.028  0.00  0.00    +0.000 A 
ATOM     17  C   UNL     1       0.150  10.595  21.052  0.00  0.00    +0.000 A 
ATOM     18  C   UNL     1       0.538  10.341  19.748  0.00  0.00    +0.000 A 
ATOM     19  N   UNL     1       1.221   9.242  19.365  0.00  0.00    +0.000 NA
ENDBRANCH  13  14
ENDBRANCH   3  12
BRANCH   1  20
ATOM     20  C   UNL     1       5.593   4.219  16.349  0.00  0.00    +0.000 C 
BRANCH  20  21
ATOM     21  C   UNL     1       5.326   4.269  14.842  0.00  0.00    +0.000 C 
BRANCH  21  23
ATOM     22  C   UNL     1       6.389   3.652  12.655  0.00  0.00    +0.000 C 
ATOM     23  C   UNL     1       6.622   4.252  14.033  0.00  0.00    +0.000 C 
ENDBRANCH  21  23
ENDBRANCH  20  21
ENDBRANCH   1  20
TORSDOF 6
ENDMDL
MODEL 4
REMARK VINA RESULT:      -7.1      2.573      6.632
REMARK  Name = 
REMARK  7 active torsions:
REMARK  status: ('A' for Active; 'I' for Inactive)
REMARK    1  A    between atoms: C_1  and  C_2
REMARK    2  A    between atoms: C_2  and  C_3
REMARK    3  A    between atoms: C_3  and  C_4
REMARK    4  A    between atoms: C_4  and  N_5
REMARK    5  A    between atoms: C_6  and  O_7
REMARK    6  A    between atoms: C_8  and  N_9
REMARK    7  A    between atoms: N_10  and  C_11
REMARK                            x       y       z     vdW  Elec       q    Type
REMARK                         _______ _______ _______ _____ _____    ______ ____
ROOT
ATOM      1  N   UNL     1       5.047   5.137  17.222  0.00  0.00    +0.000 N 
ATOM      2  C   UNL     1       4.717   6.452  17.504  0.00  0.00    +0.000 A 
ATOM      3  C   UNL     1       3.395   6.449  17.907  0.00  0.00    +0.000 A 
ATOM      4  C   UNL     1       2.919   5.115  17.940  0.00  0.00    +0.000 A 
ATOM      5  C   UNL     1       1.686   4.516  18.273  0.00  0.00    +0.000 A 
ATOM      6  C   UNL     1       1.547   3.128  18.198  0.00  0.00    +0.000 A 
ATOM      7  C   UNL     1       2.620   2.332  17.820  0.00  0.00    +0.000 A 
ATOM      8  C   UNL     1       3.858   2.898  17.503  0.00  0.00    +0.000 A 
ATOM      9  C   UNL     1       3.985   4.299  17.547  0.00  0.00    +0.000 A 
ENDROOT
BRANCH   2  10
ATOM     10  O   UNL     1       5.551   7.486  17.391  0.00  0.00    +0.000 OA
ATOM     11  H   UNL     1       6.078   7.441  16.583  0.00  0.00    +0.000 HD
ENDBRANCH   2  10
BRANCH   3  12
ATOM     12  N   UNL     1       2.590   7.533  18.290  0.00  0.00    +0.000 NA
ATOM     13  N   UNL     1       2.595   8.483  17.480  0.00  0.00    +0.000 NA
BRANCH  13  14
ATOM     14  C   UNL     1       1.770   9.548  17.890  0.00  0.00    +0.000 A 
ATOM     15  C   UNL     1       0.393   9.432  18.091  0.00  0.00    +0.000 A 
ATOM     16  C   UNL     1      -0.332  10.546  18.510  0.00  0.00    +0.000 A 
ATOM     17  C   UNL     1       0.336  11.743  18.732  0.00  0.00    +0.000 A 
ATOM     18  C   UNL     1       1.704  11.773  18.527  0.00  0.00    +0.000 A 
ATOM     19  N   UNL     1       2.429  10.711  18.115  0.00  0.00    +0.000 NA
ENDBRANCH  13  14
ENDBRANCH   3  12
BRANCH   1  20
ATOM     20  C   UNL     1       6.301   4.649  16.659  0.00  0.00    +0.000 C 
BRANCH  20  21
ATOM     21  C   UNL     1       6.427   4.938  15.161  0.00  0.00    +0.000 C 
BRANCH  21  23
ATOM     22  C   UNL     1       6.410   3.824  12.913  0.00  0.00    +0.000 C 
ATOM     23  C   UNL     1       5.810   3.828  14.311  0.00  0.00    +0.000 C 
ENDBRANCH  21  23
ENDBRANCH  20  21
ENDBRANCH   1  20
TORSDOF 6
ENDMDL
MODEL 5
REMARK VINA RESULT:      -7.0      2.261      6.937
REMARK  Name = 
REMARK  7 active torsions:
REMARK  status: ('A' for Active; 'I' for Inactive)
REMARK    1  A    between atoms: C_1  and  C_2
REMARK    2  A    between atoms: C_2  and  C_3
REMARK    3  A    between atoms: C_3  and  C_4
REMARK    4  A    between atoms: C_4  and  N_5
REMARK    5  A    between atoms: C_6  and  O_7
REMARK    6  A    between atoms: C_8  and  N_9
REMARK    7  A    between atoms: N_10  and  C_11
REMARK                            x       y       z     vdW  Elec       q    Type
REMARK                         _______ _______ _______ _____ _____    ______ ____
ROOT
ATOM      1  N   UNL     1       4.506   4.780  17.166  0.00  0.00    +0.000 N 
ATOM      2  C   UNL     1       4.204   6.062  17.593  0.00  0.00    +0.000 A 
ATOM      3  C   UNL     1       2.995   5.983  18.258  0.00  0.00    +0.000 A 
ATOM      4  C   UNL     1       2.575   4.630  18.304  0.00  0.00    +0.000 A 
ATOM      5  C   UNL     1       1.456   3.963  18.844  0.00  0.00    +0.000 A 
ATOM      6  C   UNL     1       1.344   2.577  18.710  0.00  0.00    +0.000 A 
ATOM      7  C   UNL     1       2.338   1.849  18.070  0.00  0.00    +0.000 A 
ATOM      8  C   UNL     1       3.466   2.482  17.543  0.00  0.00    +0.000 A 
ATOM      9  C   UNL     1       3.559   3.883  17.649  0.00  0.00    +0.000 A 
ENDROOT
BRANCH   2  10
ATOM     10  O   UNL     1       4.967   7.135  17.378  0.00  0.00    +0.000 OA
ATOM     11  H   UNL     1       5.807   7.084  17.850  0.00  0.00    +0.000 HD
ENDBRANCH   2  10
BRANCH   3  12
ATOM     12  N   UNL     1       2.256   7.009  18.867  0.00  0.00    +0.000 NA
ATOM     13  N   UNL     1       2.233   8.074  18.217  0.00  0.00    +0.000 NA
BRANCH  13  14
ATOM     14  C   UNL     1       1.476   9.078  18.850  0.00  0.00    +0.000 A 
ATOM     15  C   UNL     1       0.885  10.149  18.175  0.00  0.00    +0.000 A 
ATOM     16  C   UNL     1       0.144  11.084  18.894  0.00  0.00    +0.000 A 
ATOM     17  C   UNL     1      -0.002  10.921  20.266  0.00  0.00    +0.000 A 
ATOM     18  C   UNL     1       0.599   9.825  20.859  0.00  0.00    +0.000 A 
ATOM     19  N   UNL     1       1.327   8.908  20.187  0.00  0.00    +0.000 NA
ENDBRANCH  13  14
ENDBRANCH   3  12
BRANCH   1  20
ATOM     20  C   UNL     1       5.630   4.377  16.328  0.00  0.00    +0.000 C 
BRANCH  20  21
ATOM     21  C   UNL     1       5.492   4.864  14.883  0.00  0.00    +0.000 C 
BRANCH  21  23
ATOM     22  C   UNL     1       5.949   3.551  12.794  0.00  0.00    +0.000 C 
ATOM     23  C   UNL     1       6.573   4.276  13.977  0.00  0.00    +0.000 C 
ENDBRANCH  21  23
ENDBRANCH  20  21
ENDBRANCH   1  20
TORSDOF 6
ENDMDL
MODEL 6
REMARK VINA RESULT:      -7.0      2.678      6.712
REMARK  Name = 
REMARK  7 active torsions:
REMARK  status: ('A' for Active; 'I' for Inactive)
REMARK    1  A    between atoms: C_1  and  C_2
REMARK    2  A    between atoms: C_2  and  C_3
REMARK    3  A    between atoms: C_3  and  C_4
REMARK    4  A    between atoms: C_4  and  N_5
REMARK    5  A    between atoms: C_6  and  O_7
REMARK    6  A    between atoms: C_8  and  N_9
REMARK    7  A    between atoms: N_10  and  C_11
REMARK                            x       y       z     vdW  Elec       q    Type
REMARK                         _______ _______ _______ _____ _____    ______ ____
ROOT
ATOM      1  N   UNL     1       3.698   4.390  19.328  0.00  0.00    +0.000 N 
ATOM      2  C   UNL     1       2.862   5.240  20.030  0.00  0.00    +0.000 A 
ATOM      3  C   UNL     1       2.879   6.450  19.363  0.00  0.00    +0.000 A 
ATOM      4  C   UNL     1       3.679   6.331  18.199  0.00  0.00    +0.000 A 
ATOM      5  C   UNL     1       4.045   7.212  17.160  0.00  0.00    +0.000 A 
ATOM      6  C   UNL     1       4.874   6.762  16.130  0.00  0.00    +0.000 A 
ATOM      7  C   UNL     1       5.322   5.448  16.110  0.00  0.00    +0.000 A 
ATOM      8  C   UNL     1       4.959   4.549  17.116  0.00  0.00    +0.000 A 
ATOM      9  C   UNL     1       4.152   5.016  18.171  0.00  0.00    +0.000 A 
ENDROOT
BRANCH   2  10
ATOM     10  O   UNL     1       2.191   4.907  21.134  0.00  0.00    +0.000 OA
ATOM     11  H   UNL     1       1.950   3.973  21.144  0.00  0.00    +0.000 HD
ENDBRANCH   2  10
BRANCH   3  12
ATOM     12  N   UNL     1       2.205   7.640  19.681  0.00  0.00    +0.000 NA
ATOM     13  N   UNL     1       1.598   7.605  20.771  0.00  0.00    +0.000 NA
BRANCH  13  14
ATOM     14  C   UNL     1       0.941   8.817  21.063  0.00  0.00    +0.000 A 
ATOM     15  C   UNL     1       0.336   9.096  22.290  0.00  0.00    +0.000 A 
ATOM     16  C   UNL     1      -0.277  10.332  22.483  0.00  0.00    +0.000 A 
ATOM     17  C   UNL     1      -0.259  11.264  21.453  0.00  0.00    +0.000 A 
ATOM     18  C   UNL     1       0.376  10.918  20.273  0.00  0.00    +0.000 A 
ATOM     19  N   UNL     1       0.972   9.726  20.058  0.00  0.00    +0.000 NA
ENDBRANCH  13  14
ENDBRANCH   3  12
BRANCH   1  20
ATOM     20  C   UNL     1       4.087   3.034  19.703  0.00  0.00    +0.000 C 
BRANCH  20  21
ATOM     21  C   UNL     1       3.274   1.964  18.968  0.00  0.00    +0.000 C 
BRANCH  21  23
ATOM     22  C   UNL     1       0.828   2.431  18.663  0.00  0.00    +0.000 C 
ATOM     23  C   UNL     1       1.878   1.798  19.565  0.00  0.00    +0.000 C 
ENDBRANCH  21  23
ENDBRANCH  20  21
ENDBRANCH   1  20
TORSDOF 6
ENDMDL
MODEL 7
REMARK VINA RESULT:      -6.9      2.619      7.206
REMARK  Name = 
REMARK  7 active torsions:
REMARK  status: ('A' for Active; 'I' for Inactive)
REMARK    1  A    between atoms: C_1  and  C_2
REMARK    2  A    between atoms: C_2  and  C_3
REMARK    3  A    between atoms: C_3  and  C_4
REMARK    4  A    between atoms: C_4  and  N_5
REMARK    5  A    between atoms: C_6  and  O_7
REMARK    6  A    between atoms: C_8  and  N_9
REMARK    7  A    between atoms: N_10  and  C_11
REMARK                            x       y       z     vdW  Elec       q    Type
REMARK                         _______ _______ _______ _____ _____    ______ ____
ROOT
ATOM      1  N   UNL     1       4.234   5.051  17.241  0.00  0.00    +0.000 N 
ATOM      2  C   UNL     1       3.879   6.244  17.848  0.00  0.00    +0.000 A 
ATOM      3  C   UNL     1       2.966   5.928  18.836  0.00  0.00    +0.000 A 
ATOM      4  C   UNL     1       2.804   4.521  18.889  0.00  0.00    +0.000 A 
ATOM      5  C   UNL     1       2.029   3.647  19.681  0.00  0.00    +0.000 A 
ATOM      6  C   UNL     1       2.105   2.269  19.468  0.00  0.00    +0.000 A 
ATOM      7  C   UNL     1       2.953   1.751  18.499  0.00  0.00    +0.000 A 
ATOM      8  C   UNL     1       3.745   2.593  17.714  0.00  0.00    +0.000 A 
ATOM      9  C   UNL     1       3.641   3.983  17.907  0.00  0.00    +0.000 A 
ENDROOT
BRANCH   2  10
ATOM     10  O   UNL     1       4.355   7.442  17.506  0.00  0.00    +0.000 OA
ATOM     11  H   UNL     1       3.954   7.773  16.693  0.00  0.00    +0.000 HD
ENDBRANCH   2  10
BRANCH   3  12
ATOM     12  N   UNL     1       2.299   6.785  19.725  0.00  0.00    +0.000 NA
ATOM     13  N   UNL     1       2.028   7.905  19.245  0.00  0.00    +0.000 NA
BRANCH  13  14
ATOM     14  C   UNL     1       1.351   8.736  20.158  0.00  0.00    +0.000 A 
ATOM     15  C   UNL     1       1.161   8.418  21.505  0.00  0.00    +0.000 A 
ATOM     16  C   UNL     1       0.487   9.316  22.330  0.00  0.00    +0.000 A 
ATOM     17  C   UNL     1       0.033  10.514  21.796  0.00  0.00    +0.000 A 
ATOM     18  C   UNL     1       0.276  10.764  20.457  0.00  0.00    +0.000 A 
ATOM     19  N   UNL     1       0.920   9.909  19.634  0.00  0.00    +0.000 NA
ENDBRANCH  13  14
ENDBRANCH   3  12
BRANCH   1  20
ATOM     20  C   UNL     1       5.091   4.882  16.072  0.00  0.00    +0.000 C 
BRANCH  20  21
ATOM     21  C   UNL     1       6.503   5.433  16.293  0.00  0.00    +0.000 C 
BRANCH  21  23
ATOM     22  C   UNL     1       7.605   5.542  18.544  0.00  0.00    +0.000 C 
ATOM     23  C   UNL     1       7.261   4.648  17.362  0.00  0.00    +0.000 C 
ENDBRANCH  21  23
ENDBRANCH  20  21
ENDBRANCH   1  20
TORSDOF 6
ENDMDL
MODEL 8
REMARK VINA RESULT:      -6.9      2.677      6.761
REMARK  Name = 
REMARK  7 active torsions:
REMARK  status: ('A' for Active; 'I' for Inactive)
REMARK    1  A    between atoms: C_1  and  C_2
REMARK    2  A    between atoms: C_2  and  C_3
REMARK    3  A    between atoms: C_3  and  C_4
REMARK    4  A    between atoms: C_4  and  N_5
REMARK    5  A    between atoms: C_6  and  O_7
REMARK    6  A    between atoms: C_8  and  N_9
REMARK    7  A    between atoms: N_10  and  C_11
REMARK                            x       y       z     vdW  Elec       q    Type
REMARK                         _______ _______ _______ _____ _____    ______ ____
ROOT
ATOM      1  N   UNL     1       3.745   4.356  19.357  0.00  0.00    +0.000 N 
ATOM      2  C   UNL     1       2.934   5.209  20.087  0.00  0.00    +0.000 A 
ATOM      3  C   UNL     1       2.944   6.423  19.426  0.00  0.00    +0.000 A 
ATOM      4  C   UNL     1       3.711   6.304  18.241  0.00  0.00    +0.000 A 
ATOM      5  C   UNL     1       4.057   7.188  17.197  0.00  0.00    +0.000 A 
ATOM      6  C   UNL     1       4.855   6.738  16.143  0.00  0.00    +0.000 A 
ATOM      7  C   UNL     1       5.291   5.420  16.103  0.00  0.00    +0.000 A 
ATOM      8  C   UNL     1       4.948   4.519  17.114  0.00  0.00    +0.000 A 
ATOM      9  C   UNL     1       4.173   4.985  18.193  0.00  0.00    +0.000 A 
ENDROOT
BRANCH   2  10
ATOM     10  O   UNL     1       2.291   4.875  21.206  0.00  0.00    +0.000 OA
ATOM     11  H   UNL     1       2.836   5.008  21.991  0.00  0.00    +0.000 HD
ENDBRANCH   2  10
BRANCH   3  12
ATOM     12  N   UNL     1       2.288   7.616  19.768  0.00  0.00    +0.000 NA
ATOM     13  N   UNL     1       1.485   7.502  20.717  0.00  0.00    +0.000 NA
BRANCH  13  14
ATOM     14  C   UNL     1       0.853   8.718  21.041  0.00  0.00    +0.000 A 
ATOM     15  C   UNL     1       0.520   9.695  20.100  0.00  0.00    +0.000 A 
ATOM     16  C   UNL     1      -0.116  10.860  20.522  0.00  0.00    +0.000 A 
ATOM     17  C   UNL     1      -0.418  11.016  21.868  0.00  0.00    +0.000 A 
ATOM     18  C   UNL     1      -0.071   9.995  22.736  0.00  0.00    +0.000 A 
ATOM     19  N   UNL     1       0.551   8.860  22.354  0.00  0.00    +0.000 NA
ENDBRANCH  13  14
ENDBRANCH   3  12
BRANCH   1  20
ATOM     20  C   UNL     1       4.132   2.995  19.714  0.00  0.00    +0.000 C 
BRANCH  20  21
ATOM     21  C   UNL     1       3.313   1.936  18.972  0.00  0.00    +0.000 C 
BRANCH  21  23
ATOM     22  C   UNL     1       0.882   2.465  18.647  0.00  0.00    +0.000 C 
ATOM     23  C   UNL     1       1.905   1.795  19.551  0.00  0.00    +0.000 C 
ENDBRANCH  21  23
ENDBRANCH  20  21
ENDBRANCH   1  20
TORSDOF 6
ENDMDL
MODEL 9
REMARK VINA RESULT:      -6.9      2.987      7.720
REMARK  Name = 
REMARK  7 active torsions:
REMARK  status: ('A' for Active; 'I' for Inactive)
REMARK    1  A    between atoms: C_1  and  C_2
REMARK    2  A    between atoms: C_2  and  C_3
REMARK    3  A    between atoms: C_3  and  C_4
REMARK    4  A    between atoms: C_4  and  N_5
REMARK    5  A    between atoms: C_6  and  O_7
REMARK    6  A    between atoms: C_8  and  N_9
REMARK    7  A    between atoms: N_10  and  C_11
REMARK                            x       y       z     vdW  Elec       q    Type
REMARK                         _______ _______ _______ _____ _____    ______ ____
ROOT
ATOM      1  N   UNL     1       3.519   5.642  18.235  0.00  0.00    +0.000 N 
ATOM      2  C   UNL     1       2.964   6.833  18.670  0.00  0.00    +0.000 A 
ATOM      3  C   UNL     1       2.300   6.552  19.849  0.00  0.00    +0.000 A 
ATOM      4  C   UNL     1       2.501   5.190  20.185  0.00  0.00    +0.000 A 
ATOM      5  C   UNL     1       2.082   4.365  21.250  0.00  0.00    +0.000 A 
ATOM      6  C   UNL     1       2.469   3.023  21.280  0.00  0.00    +0.000 A 
ATOM      7  C   UNL     1       3.280   2.501  20.281  0.00  0.00    +0.000 A 
ATOM      8  C   UNL     1       3.725   3.301  19.225  0.00  0.00    +0.000 A 
ATOM      9  C   UNL     1       3.305   4.644  19.180  0.00  0.00    +0.000 A 
ENDROOT
BRANCH   2  10
ATOM     10  O   UNL     1       3.076   8.001  18.036  0.00  0.00    +0.000 OA
ATOM     11  H   UNL     1       3.984   8.180  17.763  0.00  0.00    +0.000 HD
ENDBRANCH   2  10
BRANCH   3  12
ATOM     12  N   UNL     1       1.567   7.419  20.675  0.00  0.00    +0.000 NA
ATOM     13  N   UNL     1       1.414   8.564  20.203  0.00  0.00    +0.000 NA
BRANCH  13  14
ATOM     14  C   UNL     1       0.667   9.404  21.051  0.00  0.00    +0.000 A 
ATOM     15  C   UNL     1       0.058   8.973  22.232  0.00  0.00    +0.000 A 
ATOM     16  C   UNL     1      -0.650   9.887  23.008  0.00  0.00    +0.000 A 
ATOM     17  C   UNL     1      -0.720  11.212  22.597  0.00  0.00    +0.000 A 
ATOM     18  C   UNL     1      -0.076  11.564  21.424  0.00  0.00    +0.000 A 
ATOM     19  N   UNL     1       0.611  10.697  20.650  0.00  0.00    +0.000 NA
ENDBRANCH  13  14
ENDBRANCH   3  12
BRANCH   1  20
ATOM     20  C   UNL     1       4.225   5.411  16.979  0.00  0.00    +0.000 C 
BRANCH  20  21
ATOM     21  C   UNL     1       5.715   5.750  17.070  0.00  0.00    +0.000 C 
BRANCH  21  23
ATOM     22  C   UNL     1       6.013   3.897  15.405  0.00  0.00    +0.000 C 
ATOM     23  C   UNL     1       6.484   5.277  15.837  0.00  0.00    +0.000 C 
ENDBRANCH  21  23
ENDBRANCH  20  21
ENDBRANCH   1  20
TORSDOF 6
ENDMDL
