MODEL 1
REMARK VINA RESULT:      -7.9      0.000      0.000
REMARK  Name = 
REMARK  3 active torsions:
REMARK  status: ('A' for Active; 'I' for Inactive)
REMARK    1  A    between atoms: C_1  and  O_2
REMARK    2  A    between atoms: O_2  and  C_3
REMARK    3  A    between atoms: C_16  and  C_17
REMARK                            x       y       z     vdW  Elec       q    Type
REMARK                         _______ _______ _______ _____ _____    ______ ____
ROOT
ATOM      1  C   UNL     1       3.261   5.709  18.221  0.00  0.00    +0.000 A 
ATOM      2  C   UNL     1       2.897   5.154  19.450  0.00  0.00    +0.000 A 
ATOM      3  C   UNL     1       2.200   5.914  20.403  0.00  0.00    +0.000 A 
ATOM      4  C   UNL     1       1.858   7.250  20.114  0.00  0.00    +0.000 A 
ATOM      5  C   UNL     1       2.217   7.763  18.871  0.00  0.00    +0.000 A 
ATOM      6  C   UNL     1       2.932   7.031  17.920  0.00  0.00    +0.000 A 
ATOM      7  N   UNL     1       1.726   9.037  18.809  0.00  0.00    +0.000 N 
ATOM      8  C   UNL     1       1.117   9.408  19.984  0.00  0.00    +0.000 A 
ATOM      9  C   UNL     1       0.483  10.615  20.332  0.00  0.00    +0.000 A 
ATOM     10  N   UNL     1       0.351  11.679  19.471  0.00  0.00    +0.000 N 
ATOM     11  C   UNL     1       1.382  12.098  18.544  0.00  0.00    +0.000 C 
ATOM     12  C   UNL     1       1.385  13.613  18.648  0.00  0.00    +0.000 C 
ATOM     13  C   UNL     1      -0.054  13.970  18.983  0.00  0.00    +0.000 C 
ATOM     14  C   UNL     1      -0.597  12.753  19.765  0.00  0.00    +0.000 C 
ATOM     15  N   UNL     1      -0.066  10.664  21.576  0.00  0.00    +0.000 NA
ATOM     16  C   UNL     1       0.018   9.601  22.412  0.00  0.00    +0.000 A 
ATOM     17  C   UNL     1       0.613   8.393  22.100  0.00  0.00    +0.000 A 
ATOM     18  C   UNL     1       1.181   8.297  20.826  0.00  0.00    +0.000 A 
ATOM     19  H   UNL     1       1.792   9.627  17.997  0.00  0.00    +0.000 HD
ENDROOT
BRANCH  14  20
ATOM     20  C   UNL     1      -1.987  12.366  19.277  0.00  0.00    +0.000 A 
ATOM     21  C   UNL     1      -3.131  12.626  20.057  0.00  0.00    +0.000 A 
ATOM     22  C   UNL     1      -4.404  12.270  19.613  0.00  0.00    +0.000 A 
ATOM     23  C   UNL     1      -4.549  11.653  18.374  0.00  0.00    +0.000 A 
ATOM     24 CL   UNL     1      -6.117  11.210  17.824  0.00  0.00    +0.000 Cl
ATOM     25  C   UNL     1      -3.433  11.395  17.580  0.00  0.00    +0.000 A 
ATOM     26  C   UNL     1      -2.156  11.751  18.028  0.00  0.00    +0.000 A 
ENDBRANCH  14  20
BRANCH   1  28
ATOM     27  C   UNL     1       4.025   3.654  17.330  0.00  0.00    +0.000 C 
ATOM     28  O   UNL     1       3.976   5.072  17.243  0.00  0.00    +0.000 OA
ENDBRANCH   1  28
TORSDOF 2
ENDMDL
MODEL 2
REMARK VINA RESULT:      -7.9      0.704      1.168
REMARK  Name = 
REMARK  3 active torsions:
REMARK  status: ('A' for Active; 'I' for Inactive)
REMARK    1  A    between atoms: C_1  and  O_2
REMARK    2  A    between atoms: O_2  and  C_3
REMARK    3  A    between atoms: C_16  and  C_17
REMARK                            x       y       z     vdW  Elec       q    Type
REMARK                         _______ _______ _______ _____ _____    ______ ____
ROOT
ATOM      1  C   UNL     1       3.585   5.749  17.740  0.00  0.00    +0.000 A 
ATOM      2  C   UNL     1       3.213   5.120  18.930  0.00  0.00    +0.000 A 
ATOM      3  C   UNL     1       2.502   5.817  19.920  0.00  0.00    +0.000 A 
ATOM      4  C   UNL     1       2.154   7.166  19.707  0.00  0.00    +0.000 A 
ATOM      5  C   UNL     1       2.522   7.755  18.500  0.00  0.00    +0.000 A 
ATOM      6  C   UNL     1       3.250   7.085  17.515  0.00  0.00    +0.000 A 
ATOM      7  N   UNL     1       2.023   9.027  18.510  0.00  0.00    +0.000 N 
ATOM      8  C   UNL     1       1.401   9.324  19.699  0.00  0.00    +0.000 A 
ATOM      9  C   UNL     1       0.757  10.505  20.113  0.00  0.00    +0.000 A 
ATOM     10  N   UNL     1       0.626  11.617  19.315  0.00  0.00    +0.000 N 
ATOM     11  C   UNL     1       1.663  12.097  18.424  0.00  0.00    +0.000 C 
ATOM     12  C   UNL     1       1.656  13.603  18.619  0.00  0.00    +0.000 C 
ATOM     13  C   UNL     1       0.211  13.931  18.961  0.00  0.00    +0.000 C 
ATOM     14  C   UNL     1      -0.332  12.667  19.663  0.00  0.00    +0.000 C 
ATOM     15  N   UNL     1       0.196  10.476  21.351  0.00  0.00    +0.000 NA
ATOM     16  C   UNL     1       0.278   9.365  22.123  0.00  0.00    +0.000 A 
ATOM     17  C   UNL     1       0.883   8.181  21.746  0.00  0.00    +0.000 A 
ATOM     18  C   UNL     1       1.464   8.165  20.474  0.00  0.00    +0.000 A 
ATOM     19  H   UNL     1       2.094   9.666  17.736  0.00  0.00    +0.000 HD
ENDROOT
BRANCH  14  20
ATOM     20  C   UNL     1      -1.714  12.301  19.139  0.00  0.00    +0.000 A 
ATOM     21  C   UNL     1      -1.880  11.721  17.866  0.00  0.00    +0.000 A 
ATOM     22  C   UNL     1      -3.145  11.387  17.384  0.00  0.00    +0.000 A 
ATOM     23  C   UNL     1      -4.264  11.624  18.176  0.00  0.00    +0.000 A 
ATOM     24 CL   UNL     1      -5.826  11.217  17.583  0.00  0.00    +0.000 Cl
ATOM     25  C   UNL     1      -4.124  12.187  19.444  0.00  0.00    +0.000 A 
ATOM     26  C   UNL     1      -2.854  12.523  19.925  0.00  0.00    +0.000 A 
ENDBRANCH  14  20
BRANCH   1  28
ATOM     27  C   UNL     1       5.194   6.043  16.030  0.00  0.00    +0.000 C 
ATOM     28  O   UNL     1       4.313   5.176  16.732  0.00  0.00    +0.000 OA
ENDBRANCH   1  28
TORSDOF 2
ENDMDL
MODEL 3
REMARK VINA RESULT:      -7.9      0.905      1.306
REMARK  Name = 
REMARK  3 active torsions:
REMARK  status: ('A' for Active; 'I' for Inactive)
REMARK    1  A    between atoms: C_1  and  O_2
REMARK    2  A    between atoms: O_2  and  C_3
REMARK    3  A    between atoms: C_16  and  C_17
REMARK                            x       y       z     vdW  Elec       q    Type
REMARK                         _______ _______ _______ _____ _____    ______ ____
ROOT
ATOM      1  C   UNL     1       3.077   6.323  18.425  0.00  0.00    +0.000 A 
ATOM      2  C   UNL     1       2.763   5.715  19.643  0.00  0.00    +0.000 A 
ATOM      3  C   UNL     1       2.022   6.402  20.618  0.00  0.00    +0.000 A 
ATOM      4  C   UNL     1       1.584   7.717  20.363  0.00  0.00    +0.000 A 
ATOM      5  C   UNL     1       1.896   8.282  19.129  0.00  0.00    +0.000 A 
ATOM      6  C   UNL     1       2.652   7.624  18.157  0.00  0.00    +0.000 A 
ATOM      7  N   UNL     1       1.315   9.520  19.101  0.00  0.00    +0.000 N 
ATOM      8  C   UNL     1       0.692   9.820  20.288  0.00  0.00    +0.000 A 
ATOM      9  C   UNL     1      -0.022  10.971  20.669  0.00  0.00    +0.000 A 
ATOM     10  N   UNL     1      -0.236  12.042  19.834  0.00  0.00    +0.000 N 
ATOM     11  C   UNL     1       0.755  12.554  18.909  0.00  0.00    +0.000 C 
ATOM     12  C   UNL     1       0.652  14.063  19.049  0.00  0.00    +0.000 C 
ATOM     13  C   UNL     1      -0.806  14.310  19.402  0.00  0.00    +0.000 C 
ATOM     14  C   UNL     1      -1.255  13.040  20.159  0.00  0.00    +0.000 C 
ATOM     15  N   UNL     1      -0.562  10.953  21.917  0.00  0.00    +0.000 NA
ATOM     16  C   UNL     1      -0.398   9.879  22.727  0.00  0.00    +0.000 A 
ATOM     17  C   UNL     1       0.278   8.723  22.384  0.00  0.00    +0.000 A 
ATOM     18  C   UNL     1       0.842   8.697  21.104  0.00  0.00    +0.000 A 
ATOM     19  H   UNL     1       1.333  10.132  18.303  0.00  0.00    +0.000 HD
ENDROOT
BRANCH  14  20
ATOM     20  C   UNL     1      -2.618  12.566  19.672  0.00  0.00    +0.000 A 
ATOM     21  C   UNL     1      -2.744  11.797  18.498  0.00  0.00    +0.000 A 
ATOM     22  C   UNL     1      -3.991  11.364  18.050  0.00  0.00    +0.000 A 
ATOM     23  C   UNL     1      -5.132  11.691  18.776  0.00  0.00    +0.000 A 
ATOM     24 CL   UNL     1      -6.672  11.162  18.224  0.00  0.00    +0.000 Cl
ATOM     25  C   UNL     1      -5.031  12.443  19.946  0.00  0.00    +0.000 A 
ATOM     26  C   UNL     1      -3.779  12.877  20.394  0.00  0.00    +0.000 A 
ENDBRANCH  14  20
BRANCH   1  28
ATOM     27  C   UNL     1       4.856   6.577  16.886  0.00  0.00    +0.000 C 
ATOM     28  O   UNL     1       3.826   5.760  17.427  0.00  0.00    +0.000 OA
ENDBRANCH   1  28
TORSDOF 2
ENDMDL
MODEL 4
REMARK VINA RESULT:      -7.6      1.148      1.393
REMARK  Name = 
REMARK  3 active torsions:
REMARK  status: ('A' for Active; 'I' for Inactive)
REMARK    1  A    between atoms: C_1  and  O_2
REMARK    2  A    between atoms: O_2  and  C_3
REMARK    3  A    between atoms: C_16  and  C_17
REMARK                            x       y       z     vdW  Elec       q    Type
REMARK                         _______ _______ _______ _____ _____    ______ ____
ROOT
ATOM      1  C   UNL     1       2.828   6.838  18.501  0.00  0.00    +0.000 A 
ATOM      2  C   UNL     1       2.578   6.158  19.695  0.00  0.00    +0.000 A 
ATOM      3  C   UNL     1       1.848   6.766  20.729  0.00  0.00    +0.000 A 
ATOM      4  C   UNL     1       1.354   8.075  20.557  0.00  0.00    +0.000 A 
ATOM      5  C   UNL     1       1.604   8.714  19.345  0.00  0.00    +0.000 A 
ATOM      6  C   UNL     1       2.349   8.135  18.316  0.00  0.00    +0.000 A 
ATOM      7  N   UNL     1       0.979   9.929  19.400  0.00  0.00    +0.000 N 
ATOM      8  C   UNL     1       0.387  10.144  20.621  0.00  0.00    +0.000 A 
ATOM      9  C   UNL     1      -0.354  11.248  21.085  0.00  0.00    +0.000 A 
ATOM     10  N   UNL     1      -0.635  12.351  20.314  0.00  0.00    +0.000 N 
ATOM     11  C   UNL     1       0.305  12.946  19.385  0.00  0.00    +0.000 C 
ATOM     12  C   UNL     1       0.154  14.441  19.607  0.00  0.00    +0.000 C 
ATOM     13  C   UNL     1      -1.298  14.615  20.020  0.00  0.00    +0.000 C 
ATOM     14  C   UNL     1      -1.676  13.293  20.724  0.00  0.00    +0.000 C 
ATOM     15  N   UNL     1      -0.850  11.146  22.347  0.00  0.00    +0.000 NA
ATOM     16  C   UNL     1      -0.619  10.039  23.094  0.00  0.00    +0.000 A 
ATOM     17  C   UNL     1       0.085   8.928  22.669  0.00  0.00    +0.000 A 
ATOM     18  C   UNL     1       0.604   8.988  21.371  0.00  0.00    +0.000 A 
ATOM     19  H   UNL     1       0.948  10.581  18.635  0.00  0.00    +0.000 HD
ENDROOT
BRANCH  14  20
ATOM     20  C   UNL     1      -3.037  12.794  20.257  0.00  0.00    +0.000 A 
ATOM     21  C   UNL     1      -4.189  12.972  21.050  0.00  0.00    +0.000 A 
ATOM     22  C   UNL     1      -5.435  12.515  20.625  0.00  0.00    +0.000 A 
ATOM     23  C   UNL     1      -5.548  11.878  19.394  0.00  0.00    +0.000 A 
ATOM     24 CL   UNL     1      -7.083  11.310  18.868  0.00  0.00    +0.000 Cl
ATOM     25  C   UNL     1      -4.425  11.700  18.587  0.00  0.00    +0.000 A 
ATOM     26  C   UNL     1      -3.175  12.158  19.015  0.00  0.00    +0.000 A 
ENDBRANCH  14  20
BRANCH   1  28
ATOM     27  C   UNL     1       4.764   5.677  17.791  0.00  0.00    +0.000 C 
ATOM     28  O   UNL     1       3.562   6.355  17.451  0.00  0.00    +0.000 OA
ENDBRANCH   1  28
TORSDOF 2
ENDMDL
MODEL 5
REMARK VINA RESULT:      -7.5      3.949      8.021
REMARK  Name = 
REMARK  3 active torsions:
REMARK  status: ('A' for Active; 'I' for Inactive)
REMARK    1  A    between atoms: C_1  and  O_2
REMARK    2  A    between atoms: O_2  and  C_3
REMARK    3  A    between atoms: C_16  and  C_17
REMARK                            x       y       z     vdW  Elec       q    Type
REMARK                         _______ _______ _______ _____ _____    ______ ____
ROOT
ATOM      1  C   UNL     1      -7.145  12.347  21.096  0.00  0.00    +0.000 A 
ATOM      2  C   UNL     1      -7.632  11.722  19.946  0.00  0.00    +0.000 A 
ATOM      3  C   UNL     1      -6.772  11.397  18.885  0.00  0.00    +0.000 A 
ATOM      4  C   UNL     1      -5.398  11.699  18.984  0.00  0.00    +0.000 A 
ATOM      5  C   UNL     1      -4.945  12.302  20.154  0.00  0.00    +0.000 A 
ATOM      6  C   UNL     1      -5.789  12.655  21.209  0.00  0.00    +0.000 A 
ATOM      7  N   UNL     1      -3.589  12.434  20.034  0.00  0.00    +0.000 N 
ATOM      8  C   UNL     1      -3.141  12.006  18.808  0.00  0.00    +0.000 A 
ATOM      9  C   UNL     1      -1.834  11.963  18.287  0.00  0.00    +0.000 A 
ATOM     10  N   UNL     1      -0.722  12.356  18.994  0.00  0.00    +0.000 N 
ATOM     11  C   UNL     1      -0.693  13.504  19.877  0.00  0.00    +0.000 C 
ATOM     12  C   UNL     1       0.633  14.178  19.570  0.00  0.00    +0.000 C 
ATOM     13  C   UNL     1       1.550  13.037  19.161  0.00  0.00    +0.000 C 
ATOM     14  C   UNL     1       0.615  11.975  18.539  0.00  0.00    +0.000 C 
ATOM     15  N   UNL     1      -1.706  11.442  17.037  0.00  0.00    +0.000 NA
ATOM     16  C   UNL     1      -2.792  11.006  16.354  0.00  0.00    +0.000 A 
ATOM     17  C   UNL     1      -4.087  11.012  16.837  0.00  0.00    +0.000 A 
ATOM     18  C   UNL     1      -4.262  11.532  18.124  0.00  0.00    +0.000 A 
ATOM     19  H   UNL     1      -2.992  12.791  20.760  0.00  0.00    +0.000 HD
ENDROOT
BRANCH  14  20
ATOM     20  C   UNL     1       0.957  10.581  19.046  0.00  0.00    +0.000 A 
ATOM     21  C   UNL     1       1.593   9.639  18.213  0.00  0.00    +0.000 A 
ATOM     22  C   UNL     1       1.905   8.361  18.675  0.00  0.00    +0.000 A 
ATOM     23  C   UNL     1       1.591   8.011  19.984  0.00  0.00    +0.000 A 
ATOM     24 CL   UNL     1       1.972   6.435  20.557  0.00  0.00    +0.000 Cl
ATOM     25  C   UNL     1       0.972   8.929  20.831  0.00  0.00    +0.000 A 
ATOM     26  C   UNL     1       0.658  10.210  20.365  0.00  0.00    +0.000 A 
ENDBRANCH  14  20
BRANCH   1  28
ATOM     27  C   UNL     1      -7.495  12.247  23.434  0.00  0.00    +0.000 C 
ATOM     28  O   UNL     1      -7.902  12.743  22.166  0.00  0.00    +0.000 OA
ENDBRANCH   1  28
TORSDOF 2
ENDMDL
MODEL 6
REMARK VINA RESULT:      -7.2      1.354      1.791
REMARK  Name = 
REMARK  3 active torsions:
REMARK  status: ('A' for Active; 'I' for Inactive)
REMARK    1  A    between atoms: C_1  and  O_2
REMARK    2  A    between atoms: O_2  and  C_3
REMARK    3  A    between atoms: C_16  and  C_17
REMARK                            x       y       z     vdW  Elec       q    Type
REMARK                         _______ _______ _______ _____ _____    ______ ____
ROOT
ATOM      1  C   UNL     1       4.443   4.998  16.900  0.00  0.00    +0.000 A 
ATOM      2  C   UNL     1       4.040   4.258  18.013  0.00  0.00    +0.000 A 
ATOM      3  C   UNL     1       3.292   4.855  19.041  0.00  0.00    +0.000 A 
ATOM      4  C   UNL     1       2.938   6.216  18.943  0.00  0.00    +0.000 A 
ATOM      5  C   UNL     1       3.339   6.917  17.809  0.00  0.00    +0.000 A 
ATOM      6  C   UNL     1       4.103   6.346  16.789  0.00  0.00    +0.000 A 
ATOM      7  N   UNL     1       2.828   8.180  17.921  0.00  0.00    +0.000 N 
ATOM      8  C   UNL     1       2.167   8.360  19.111  0.00  0.00    +0.000 A 
ATOM      9  C   UNL     1       1.499   9.494  19.612  0.00  0.00    +0.000 A 
ATOM     10  N   UNL     1       1.383  10.675  18.918  0.00  0.00    +0.000 N 
ATOM     11  C   UNL     1       2.443  11.241  18.109  0.00  0.00    +0.000 C 
ATOM     12  C   UNL     1       2.415  12.724  18.442  0.00  0.00    +0.000 C 
ATOM     13  C   UNL     1       0.958  13.009  18.767  0.00  0.00    +0.000 C 
ATOM     14  C   UNL     1       0.405  11.681  19.331  0.00  0.00    +0.000 C 
ATOM     15  N   UNL     1       0.900   9.346  20.824  0.00  0.00    +0.000 NA
ATOM     16  C   UNL     1       0.967   8.169  21.492  0.00  0.00    +0.000 A 
ATOM     17  C   UNL     1       1.595   7.029  21.026  0.00  0.00    +0.000 A 
ATOM     18  C   UNL     1       2.216   7.135  19.777  0.00  0.00    +0.000 A 
ATOM     19  H   UNL     1       2.917   8.888  17.212  0.00  0.00    +0.000 HD
ENDROOT
BRANCH  14  20
ATOM     20  C   UNL     1      -0.957  11.358  18.732  0.00  0.00    +0.000 A 
ATOM     21  C   UNL     1      -2.111  12.066  19.122  0.00  0.00    +0.000 A 
ATOM     22  C   UNL     1      -3.359  11.770  18.575  0.00  0.00    +0.000 A 
ATOM     23  C   UNL     1      -3.467  10.761  17.622  0.00  0.00    +0.000 A 
ATOM     24 CL   UNL     1      -5.005  10.391  16.949  0.00  0.00    +0.000 Cl
ATOM     25  C   UNL     1      -2.338  10.054  17.213  0.00  0.00    +0.000 A 
ATOM     26  C   UNL     1      -1.087  10.351  17.763  0.00  0.00    +0.000 A 
ENDBRANCH  14  20
BRANCH   1  28
ATOM     27  C   UNL     1       6.609   4.477  16.101  0.00  0.00    +0.000 C 
ATOM     28  O   UNL     1       5.208   4.525  15.867  0.00  0.00    +0.000 OA
ENDBRANCH   1  28
TORSDOF 2
ENDMDL
MODEL 7
REMARK VINA RESULT:      -6.9      3.938      7.976
REMARK  Name = 
REMARK  3 active torsions:
REMARK  status: ('A' for Active; 'I' for Inactive)
REMARK    1  A    between atoms: C_1  and  O_2
REMARK    2  A    between atoms: O_2  and  C_3
REMARK    3  A    between atoms: C_16  and  C_17
REMARK                            x       y       z     vdW  Elec       q    Type
REMARK                         _______ _______ _______ _____ _____    ______ ____
ROOT
ATOM      1  C   UNL     1      -5.657  13.447  22.570  0.00  0.00    +0.000 A 
ATOM      2  C   UNL     1      -6.504  12.869  21.622  0.00  0.00    +0.000 A 
ATOM      3  C   UNL     1      -5.991  12.357  20.419  0.00  0.00    +0.000 A 
ATOM      4  C   UNL     1      -4.605  12.422  20.168  0.00  0.00    +0.000 A 
ATOM      5  C   UNL     1      -3.790  12.986  21.146  0.00  0.00    +0.000 A 
ATOM      6  C   UNL     1      -4.284  13.522  22.337  0.00  0.00    +0.000 A 
ATOM      7  N   UNL     1      -2.502  12.877  20.700  0.00  0.00    +0.000 N 
ATOM      8  C   UNL     1      -2.441  12.328  19.442  0.00  0.00    +0.000 A 
ATOM      9  C   UNL     1      -1.325  12.040  18.634  0.00  0.00    +0.000 A 
ATOM     10  N   UNL     1      -0.026  12.264  19.026  0.00  0.00    +0.000 N 
ATOM     11  C   UNL     1       0.398  13.425  19.781  0.00  0.00    +0.000 C 
ATOM     12  C   UNL     1       1.698  13.848  19.117  0.00  0.00    +0.000 C 
ATOM     13  C   UNL     1       2.295  12.550  18.599  0.00  0.00    +0.000 C 
ATOM     14  C   UNL     1       1.081  11.640  18.303  0.00  0.00    +0.000 C 
ATOM     15  N   UNL     1      -1.591  11.453  17.436  0.00  0.00    +0.000 NA
ATOM     16  C   UNL     1      -2.866  11.183  17.065  0.00  0.00    +0.000 A 
ATOM     17  C   UNL     1      -3.985  11.432  17.837  0.00  0.00    +0.000 A 
ATOM     18  C   UNL     1      -3.755  12.026  19.082  0.00  0.00    +0.000 A 
ATOM     19  H   UNL     1      -1.696  13.156  21.234  0.00  0.00    +0.000 HD
ENDROOT
BRANCH  14  20
ATOM     20  C   UNL     1       1.314  10.230  18.827  0.00  0.00    +0.000 A 
ATOM     21  C   UNL     1       0.864   9.845  20.107  0.00  0.00    +0.000 A 
ATOM     22  C   UNL     1       1.078   8.555  20.589  0.00  0.00    +0.000 A 
ATOM     23  C   UNL     1       1.741   7.627  19.793  0.00  0.00    +0.000 A 
ATOM     24 CL   UNL     1       2.010   6.036  20.386  0.00  0.00    +0.000 Cl
ATOM     25  C   UNL     1       2.187   7.980  18.520  0.00  0.00    +0.000 A 
ATOM     26  C   UNL     1       1.972   9.276  18.037  0.00  0.00    +0.000 A 
ENDBRANCH  14  20
BRANCH   1  28
ATOM     27  C   UNL     1      -7.437  13.885  24.067  0.00  0.00    +0.000 C 
ATOM     28  O   UNL     1      -6.057  14.012  23.752  0.00  0.00    +0.000 OA
ENDBRANCH   1  28
TORSDOF 2
ENDMDL
MODEL 8
REMARK VINA RESULT:      -6.8      4.499      6.691
REMARK  Name = 
REMARK  3 active torsions:
REMARK  status: ('A' for Active; 'I' for Inactive)
REMARK    1  A    between atoms: C_1  and  O_2
REMARK    2  A    between atoms: O_2  and  C_3
REMARK    3  A    between atoms: C_16  and  C_17
REMARK                            x       y       z     vdW  Elec       q    Type
REMARK                         _______ _______ _______ _____ _____    ______ ____
ROOT
ATOM      1  C   UNL     1       1.383  12.918  20.633  0.00  0.00    +0.000 A 
ATOM      2  C   UNL     1       1.691  12.241  19.451  0.00  0.00    +0.000 A 
ATOM      3  C   UNL     1       0.672  11.743  18.622  0.00  0.00    +0.000 A 
ATOM      4  C   UNL     1      -0.677  11.934  18.984  0.00  0.00    +0.000 A 
ATOM      5  C   UNL     1      -0.946  12.632  20.158  0.00  0.00    +0.000 A 
ATOM      6  C   UNL     1       0.053  13.114  21.007  0.00  0.00    +0.000 A 
ATOM      7  N   UNL     1      -2.306  12.738  20.255  0.00  0.00    +0.000 N 
ATOM      8  C   UNL     1      -2.943  12.080  19.231  0.00  0.00    +0.000 A 
ATOM      9  C   UNL     1      -4.318  11.950  18.957  0.00  0.00    +0.000 A 
ATOM     10  N   UNL     1      -5.303  12.527  19.724  0.00  0.00    +0.000 N 
ATOM     11  C   UNL     1      -5.255  12.605  21.170  0.00  0.00    +0.000 C 
ATOM     12  C   UNL     1      -6.666  12.251  21.609  0.00  0.00    +0.000 C 
ATOM     13  C   UNL     1      -7.548  12.743  20.474  0.00  0.00    +0.000 C 
ATOM     14  C   UNL     1      -6.666  12.644  19.209  0.00  0.00    +0.000 C 
ATOM     15  N   UNL     1      -4.639  11.260  17.829  0.00  0.00    +0.000 NA
ATOM     16  C   UNL     1      -3.672  10.732  17.041  0.00  0.00    +0.000 A 
ATOM     17  C   UNL     1      -2.313  10.854  17.265  0.00  0.00    +0.000 A 
ATOM     18  C   UNL     1      -1.939  11.566  18.409  0.00  0.00    +0.000 A 
ATOM     19  H   UNL     1      -2.781  13.245  20.982  0.00  0.00    +0.000 HD
ENDROOT
BRANCH  14  20
ATOM     20  C   UNL     1      -6.791  13.899  18.355  0.00  0.00    +0.000 A 
ATOM     21  C   UNL     1      -7.121  13.819  16.987  0.00  0.00    +0.000 A 
ATOM     22  C   UNL     1      -7.234  14.966  16.204  0.00  0.00    +0.000 A 
ATOM     23  C   UNL     1      -7.025  16.214  16.782  0.00  0.00    +0.000 A 
ATOM     24 CL   UNL     1      -7.160  17.631  15.818  0.00  0.00    +0.000 Cl
ATOM     25  C   UNL     1      -6.708  16.319  18.136  0.00  0.00    +0.000 A 
ATOM     26  C   UNL     1      -6.593  15.167  18.920  0.00  0.00    +0.000 A 
ENDBRANCH  14  20
BRANCH   1  28
ATOM     27  C   UNL     1       2.753  14.730  21.295  0.00  0.00    +0.000 C 
ATOM     28  O   UNL     1       2.295  13.405  21.530  0.00  0.00    +0.000 OA
ENDBRANCH   1  28
TORSDOF 2
ENDMDL
MODEL 9
REMARK VINA RESULT:      -6.7      3.927      8.005
REMARK  Name = 
REMARK  3 active torsions:
REMARK  status: ('A' for Active; 'I' for Inactive)
REMARK    1  A    between atoms: C_1  and  O_2
REMARK    2  A    between atoms: O_2  and  C_3
REMARK    3  A    between atoms: C_16  and  C_17
REMARK                            x       y       z     vdW  Elec       q    Type
REMARK                         _______ _______ _______ _____ _____    ______ ____
ROOT
ATOM      1  C   UNL     1      -5.187  13.659  22.747  0.00  0.00    +0.000 A 
ATOM      2  C   UNL     1      -6.111  13.066  21.884  0.00  0.00    +0.000 A 
ATOM      3  C   UNL     1      -5.695  12.497  20.669  0.00  0.00    +0.000 A 
ATOM      4  C   UNL     1      -4.330  12.518  20.320  0.00  0.00    +0.000 A 
ATOM      5  C   UNL     1      -3.435  13.099  21.216  0.00  0.00    +0.000 A 
ATOM      6  C   UNL     1      -3.833  13.691  22.416  0.00  0.00    +0.000 A 
ATOM      7  N   UNL     1      -2.185  12.941  20.686  0.00  0.00    +0.000 N 
ATOM      8  C   UNL     1      -2.224  12.344  19.450  0.00  0.00    +0.000 A 
ATOM      9  C   UNL     1      -1.175  11.998  18.578  0.00  0.00    +0.000 A 
ATOM     10  N   UNL     1       0.153  12.205  18.870  0.00  0.00    +0.000 N 
ATOM     11  C   UNL     1       0.655  13.383  19.547  0.00  0.00    +0.000 C 
ATOM     12  C   UNL     1       1.913  13.748  18.778  0.00  0.00    +0.000 C 
ATOM     13  C   UNL     1       2.444  12.417  18.271  0.00  0.00    +0.000 C 
ATOM     14  C   UNL     1       1.193  11.527  18.096  0.00  0.00    +0.000 C 
ATOM     15  N   UNL     1      -1.537  11.372  17.426  0.00  0.00    +0.000 NA
ATOM     16  C   UNL     1      -2.840  11.120  17.155  0.00  0.00    +0.000 A 
ATOM     17  C   UNL     1      -3.897  11.425  17.992  0.00  0.00    +0.000 A 
ATOM     18  C   UNL     1      -3.567  12.060  19.194  0.00  0.00    +0.000 A 
ATOM     19  H   UNL     1      -1.338  13.220  21.151  0.00  0.00    +0.000 HD
ENDROOT
BRANCH  14  20
ATOM     20  C   UNL     1       1.432  10.133  18.659  0.00  0.00    +0.000 A 
ATOM     21  C   UNL     1       2.042   9.128  17.881  0.00  0.00    +0.000 A 
ATOM     22  C   UNL     1       2.259   7.850  18.395  0.00  0.00    +0.000 A 
ATOM     23  C   UNL     1       1.874   7.561  19.700  0.00  0.00    +0.000 A 
ATOM     24 CL   UNL     1       2.138   5.986  20.335  0.00  0.00    +0.000 Cl
ATOM     25  C   UNL     1       1.279   8.542  20.492  0.00  0.00    +0.000 A 
ATOM     26  C   UNL     1       1.060   9.823  19.976  0.00  0.00    +0.000 A 
ENDBRANCH  14  20
BRANCH   1  28
ATOM     27  C   UNL     1      -6.254  15.473  23.831  0.00  0.00    +0.000 C 
ATOM     28  O   UNL     1      -5.491  14.278  23.930  0.00  0.00    +0.000 OA
ENDBRANCH   1  28
TORSDOF 2
ENDMDL
