MODEL 1
REMARK VINA RESULT:      -6.4      0.000      0.000
REMARK  Name = 
REMARK  8 active torsions:
REMARK  status: ('A' for Active; 'I' for Inactive)
REMARK    1  A    between atoms: C_1  and  C_2
REMARK    2  A    between atoms: C_2  and  C_3
REMARK    3  A    between atoms: C_3  and  C_4
REMARK    4  A    between atoms: C_4  and  C_5
REMARK    5  A    between atoms: C_5  and  N_6
REMARK    6  A    between atoms: C_12  and  C_13
REMARK    7  A    between atoms: C_17  and  O_18
REMARK    8  A    between atoms: O_18  and  C_19
REMARK                            x       y       z     vdW  Elec       q    Type
REMARK                         _______ _______ _______ _____ _____    ______ ____
ROOT
ATOM      1  N   UNL     1       6.577   5.752  15.165  0.00  0.00    +0.000 NA
ATOM      2  C   UNL     1       5.420   5.663  15.732  0.00  0.00    +0.000 C 
ATOM      3  N   UNL     1       4.586   4.591  15.692  0.00  0.00    +0.000 N 
ATOM      4  N   UNL     1       4.893   6.750  16.372  0.00  0.00    +0.000 N 
ATOM      5  C   UNL     1       4.098   6.808  17.468  0.00  0.00    +0.000 A 
ATOM      6  N   UNL     1       3.284   7.807  17.729  0.00  0.00    +0.000 NA
ATOM      7  C   UNL     1       2.560   7.561  18.886  0.00  0.00    +0.000 A 
ATOM      8  C   UNL     1       2.902   6.403  19.553  0.00  0.00    +0.000 A 
ATOM      9  S   UNL     1       4.106   5.568  18.683  0.00  0.00    +0.000 S 
ATOM     10  H   UNL     1       4.979   3.703  15.423  0.00  0.00    +0.000 HD
ATOM     11  H   UNL     1       3.899   4.517  16.431  0.00  0.00    +0.000 HD
ATOM     12  H   UNL     1       5.327   7.625  16.107  0.00  0.00    +0.000 HD
ENDROOT
BRANCH   7  13
ATOM     13  C   UNL     1       1.516   8.467  19.340  0.00  0.00    +0.000 A 
ATOM     14  C   UNL     1       1.188   8.529  20.699  0.00  0.00    +0.000 A 
ATOM     15  C   UNL     1       0.179   9.385  21.141  0.00  0.00    +0.000 A 
ATOM     16  C   UNL     1      -0.512  10.176  20.222  0.00  0.00    +0.000 A 
ATOM     17  C   UNL     1      -0.194  10.131  18.864  0.00  0.00    +0.000 A 
ATOM     18  C   UNL     1       0.824   9.282  18.429  0.00  0.00    +0.000 A 
BRANCH  17  19
ATOM     19  O   UNL     1      -0.948  10.945  18.062  0.00  0.00    +0.000 OA
ATOM     20  C   UNL     1      -1.956  10.318  17.279  0.00  0.00    +0.000 C 
ENDBRANCH  17  19
ENDBRANCH   7  13
BRANCH   1  21
ATOM     21  C   UNL     1       7.079   4.552  14.489  0.00  0.00    +0.000 C 
BRANCH  21  22
ATOM     22  C   UNL     1       7.730   4.923  13.160  0.00  0.00    +0.000 C 
BRANCH  22  23
ATOM     23  C   UNL     1       7.041   4.255  11.968  0.00  0.00    +0.000 C 
BRANCH  23  25
ATOM     24  C   UNL     1       5.840   2.082  11.576  0.00  0.00    +0.000 C 
ATOM     25  C   UNL     1       5.899   3.346  12.418  0.00  0.00    +0.000 C 
ENDBRANCH  23  25
ENDBRANCH  22  23
ENDBRANCH  21  22
ENDBRANCH   1  21
TORSDOF 6
ENDMDL
MODEL 2
REMARK VINA RESULT:      -6.3      2.067      3.075
REMARK  Name = 
REMARK  8 active torsions:
REMARK  status: ('A' for Active; 'I' for Inactive)
REMARK    1  A    between atoms: C_1  and  C_2
REMARK    2  A    between atoms: C_2  and  C_3
REMARK    3  A    between atoms: C_3  and  C_4
REMARK    4  A    between atoms: C_4  and  C_5
REMARK    5  A    between atoms: C_5  and  N_6
REMARK    6  A    between atoms: C_12  and  C_13
REMARK    7  A    between atoms: C_17  and  O_18
REMARK    8  A    between atoms: O_18  and  C_19
REMARK                            x       y       z     vdW  Elec       q    Type
REMARK                         _______ _______ _______ _____ _____    ______ ____
ROOT
ATOM      1  N   UNL     1       4.477   4.590  17.706  0.00  0.00    +0.000 NA
ATOM      2  C   UNL     1       4.317   5.805  18.114  0.00  0.00    +0.000 C 
ATOM      3  N   UNL     1       5.160   6.846  17.887  0.00  0.00    +0.000 N 
ATOM      4  N   UNL     1       3.263   6.114  18.928  0.00  0.00    +0.000 N 
ATOM      5  C   UNL     1       2.537   7.256  19.009  0.00  0.00    +0.000 A 
ATOM      6  N   UNL     1       1.884   7.632  20.086  0.00  0.00    +0.000 NA
ATOM      7  C   UNL     1       1.283   8.866  19.889  0.00  0.00    +0.000 A 
ATOM      8  C   UNL     1       1.409   9.379  18.615  0.00  0.00    +0.000 A 
ATOM      9  S   UNL     1       2.355   8.333  17.660  0.00  0.00    +0.000 S 
ATOM     10  H   UNL     1       5.832   6.749  17.143  0.00  0.00    +0.000 HD
ATOM     11  H   UNL     1       4.769   7.776  17.954  0.00  0.00    +0.000 HD
ATOM     12  H   UNL     1       2.851   5.307  19.380  0.00  0.00    +0.000 HD
ENDROOT
BRANCH   7  13
ATOM     13  C   UNL     1       0.582   9.553  20.963  0.00  0.00    +0.000 A 
ATOM     14  C   UNL     1       0.081   8.825  22.049  0.00  0.00    +0.000 A 
ATOM     15  C   UNL     1      -0.604   9.474  23.076  0.00  0.00    +0.000 A 
ATOM     16  C   UNL     1      -0.799  10.854  23.016  0.00  0.00    +0.000 A 
ATOM     17  C   UNL     1      -0.301  11.597  21.944  0.00  0.00    +0.000 A 
ATOM     18  C   UNL     1       0.393  10.945  20.926  0.00  0.00    +0.000 A 
BRANCH  17  19
ATOM     19  O   UNL     1      -0.564  12.939  21.995  0.00  0.00    +0.000 OA
ATOM     20  C   UNL     1       0.462  13.812  21.537  0.00  0.00    +0.000 C 
ENDBRANCH  17  19
ENDBRANCH   7  13
BRANCH   1  21
ATOM     21  C   UNL     1       5.632   4.326  16.843  0.00  0.00    +0.000 C 
BRANCH  21  22
ATOM     22  C   UNL     1       5.196   4.238  15.383  0.00  0.00    +0.000 C 
BRANCH  22  23
ATOM     23  C   UNL     1       6.381   4.054  14.432  0.00  0.00    +0.000 C 
BRANCH  23  25
ATOM     24  C   UNL     1       7.006   3.880  12.004  0.00  0.00    +0.000 C 
ATOM     25  C   UNL     1       5.921   3.631  13.039  0.00  0.00    +0.000 C 
ENDBRANCH  23  25
ENDBRANCH  22  23
ENDBRANCH  21  22
ENDBRANCH   1  21
TORSDOF 6
ENDMDL
MODEL 3
REMARK VINA RESULT:      -6.3      4.155      9.966
REMARK  Name = 
REMARK  8 active torsions:
REMARK  status: ('A' for Active; 'I' for Inactive)
REMARK    1  A    between atoms: C_1  and  C_2
REMARK    2  A    between atoms: C_2  and  C_3
REMARK    3  A    between atoms: C_3  and  C_4
REMARK    4  A    between atoms: C_4  and  C_5
REMARK    5  A    between atoms: C_5  and  N_6
REMARK    6  A    between atoms: C_12  and  C_13
REMARK    7  A    between atoms: C_17  and  O_18
REMARK    8  A    between atoms: O_18  and  C_19
REMARK                            x       y       z     vdW  Elec       q    Type
REMARK                         _______ _______ _______ _____ _____    ______ ____
ROOT
ATOM      1  N   UNL     1       0.281  11.389  21.958  0.00  0.00    +0.000 NA
ATOM      2  C   UNL     1       0.193  10.606  20.934  0.00  0.00    +0.000 C 
ATOM      3  N   UNL     1      -0.748  10.665  19.956  0.00  0.00    +0.000 N 
ATOM      4  N   UNL     1       1.048   9.546  20.817  0.00  0.00    +0.000 N 
ATOM      5  C   UNL     1       1.576   8.978  19.705  0.00  0.00    +0.000 A 
ATOM      6  N   UNL     1       1.988   7.731  19.645  0.00  0.00    +0.000 NA
ATOM      7  C   UNL     1       2.425   7.419  18.367  0.00  0.00    +0.000 A 
ATOM      8  C   UNL     1       2.427   8.473  17.478  0.00  0.00    +0.000 A 
ATOM      9  S   UNL     1       1.808   9.870  18.233  0.00  0.00    +0.000 S 
ATOM     10  H   UNL     1      -1.272  11.520  19.863  0.00  0.00    +0.000 HD
ATOM     11  H   UNL     1      -0.513  10.241  19.068  0.00  0.00    +0.000 HD
ATOM     12  H   UNL     1       1.498   9.290  21.687  0.00  0.00    +0.000 HD
ENDROOT
BRANCH   7  13
ATOM     13  C   UNL     1       2.838   6.070  18.010  0.00  0.00    +0.000 A 
ATOM     14  C   UNL     1       4.141   5.836  17.555  0.00  0.00    +0.000 A 
ATOM     15  C   UNL     1       4.541   4.549  17.197  0.00  0.00    +0.000 A 
ATOM     16  C   UNL     1       3.635   3.491  17.286  0.00  0.00    +0.000 A 
ATOM     17  C   UNL     1       2.335   3.705  17.745  0.00  0.00    +0.000 A 
ATOM     18  C   UNL     1       1.943   4.992  18.112  0.00  0.00    +0.000 A 
BRANCH  17  19
ATOM     19  O   UNL     1       1.539   2.591  17.778  0.00  0.00    +0.000 OA
ATOM     20  C   UNL     1       1.057   2.186  19.053  0.00  0.00    +0.000 C 
ENDBRANCH  17  19
ENDBRANCH   7  13
BRANCH   1  21
ATOM     21  C   UNL     1      -0.672  12.502  22.026  0.00  0.00    +0.000 C 
BRANCH  21  22
ATOM     22  C   UNL     1      -1.493  12.421  23.309  0.00  0.00    +0.000 C 
BRANCH  22  23
ATOM     23  C   UNL     1      -2.655  13.417  23.319  0.00  0.00    +0.000 C 
BRANCH  23  25
ATOM     24  C   UNL     1      -4.475  12.411  24.731  0.00  0.00    +0.000 C 
ATOM     25  C   UNL     1      -4.005  12.704  23.315  0.00  0.00    +0.000 C 
ENDBRANCH  23  25
ENDBRANCH  22  23
ENDBRANCH  21  22
ENDBRANCH   1  21
TORSDOF 6
ENDMDL
MODEL 4
REMARK VINA RESULT:      -6.2      3.446      9.169
REMARK  Name = 
REMARK  8 active torsions:
REMARK  status: ('A' for Active; 'I' for Inactive)
REMARK    1  A    between atoms: C_1  and  C_2
REMARK    2  A    between atoms: C_2  and  C_3
REMARK    3  A    between atoms: C_3  and  C_4
REMARK    4  A    between atoms: C_4  and  C_5
REMARK    5  A    between atoms: C_5  and  N_6
REMARK    6  A    between atoms: C_12  and  C_13
REMARK    7  A    between atoms: C_17  and  O_18
REMARK    8  A    between atoms: O_18  and  C_19
REMARK                            x       y       z     vdW  Elec       q    Type
REMARK                         _______ _______ _______ _____ _____    ______ ____
ROOT
ATOM      1  N   UNL     1      -0.392  12.449  18.613  0.00  0.00    +0.000 NA
ATOM      2  C   UNL     1       0.623  11.702  18.899  0.00  0.00    +0.000 C 
ATOM      3  N   UNL     1       1.584  11.972  19.821  0.00  0.00    +0.000 N 
ATOM      4  N   UNL     1       0.851  10.563  18.180  0.00  0.00    +0.000 N 
ATOM      5  C   UNL     1       1.384   9.381  18.574  0.00  0.00    +0.000 A 
ATOM      6  N   UNL     1       1.982   8.540  17.760  0.00  0.00    +0.000 NA
ATOM      7  C   UNL     1       2.475   7.447  18.458  0.00  0.00    +0.000 A 
ATOM      8  C   UNL     1       2.161   7.423  19.801  0.00  0.00    +0.000 A 
ATOM      9  S   UNL     1       1.290   8.828  20.217  0.00  0.00    +0.000 S 
ATOM     10  H   UNL     1       1.380  12.671  20.518  0.00  0.00    +0.000 HD
ATOM     11  H   UNL     1       2.105  11.185  20.184  0.00  0.00    +0.000 HD
ATOM     12  H   UNL     1       0.367  10.543  17.290  0.00  0.00    +0.000 HD
ENDROOT
BRANCH   7  13
ATOM     13  C   UNL     1       3.268   6.418  17.803  0.00  0.00    +0.000 A 
ATOM     14  C   UNL     1       2.884   5.075  17.897  0.00  0.00    +0.000 A 
ATOM     15  C   UNL     1       3.647   4.081  17.284  0.00  0.00    +0.000 A 
ATOM     16  C   UNL     1       4.801   4.427  16.580  0.00  0.00    +0.000 A 
ATOM     17  C   UNL     1       5.194   5.761  16.471  0.00  0.00    +0.000 A 
ATOM     18  C   UNL     1       4.423   6.752  17.076  0.00  0.00    +0.000 A 
BRANCH  17  19
ATOM     19  O   UNL     1       6.348   5.971  15.765  0.00  0.00    +0.000 OA
ATOM     20  C   UNL     1       6.863   4.865  15.033  0.00  0.00    +0.000 C 
ENDBRANCH  17  19
ENDBRANCH   7  13
BRANCH   1  21
ATOM     21  C   UNL     1      -0.573  13.660  19.419  0.00  0.00    +0.000 C 
BRANCH  21  22
ATOM     22  C   UNL     1      -1.831  13.547  20.274  0.00  0.00    +0.000 C 
BRANCH  22  23
ATOM     23  C   UNL     1      -1.910  12.212  21.018  0.00  0.00    +0.000 C 
BRANCH  23  25
ATOM     24  C   UNL     1      -0.876  10.886  22.886  0.00  0.00    +0.000 C 
ATOM     25  C   UNL     1      -1.194  12.278  22.366  0.00  0.00    +0.000 C 
ENDBRANCH  23  25
ENDBRANCH  22  23
ENDBRANCH  21  22
ENDBRANCH   1  21
TORSDOF 6
ENDMDL
MODEL 5
REMARK VINA RESULT:      -6.2      1.457      1.763
REMARK  Name = 
REMARK  8 active torsions:
REMARK  status: ('A' for Active; 'I' for Inactive)
REMARK    1  A    between atoms: C_1  and  C_2
REMARK    2  A    between atoms: C_2  and  C_3
REMARK    3  A    between atoms: C_3  and  C_4
REMARK    4  A    between atoms: C_4  and  C_5
REMARK    5  A    between atoms: C_5  and  N_6
REMARK    6  A    between atoms: C_12  and  C_13
REMARK    7  A    between atoms: C_17  and  O_18
REMARK    8  A    between atoms: O_18  and  C_19
REMARK                            x       y       z     vdW  Elec       q    Type
REMARK                         _______ _______ _______ _____ _____    ______ ____
ROOT
ATOM      1  N   UNL     1       5.313   4.977  16.595  0.00  0.00    +0.000 NA
ATOM      2  C   UNL     1       4.157   5.137  17.148  0.00  0.00    +0.000 C 
ATOM      3  N   UNL     1       3.106   4.278  17.075  0.00  0.00    +0.000 N 
ATOM      4  N   UNL     1       3.875   6.300  17.808  0.00  0.00    +0.000 N 
ATOM      5  C   UNL     1       3.096   6.512  18.897  0.00  0.00    +0.000 A 
ATOM      6  N   UNL     1       2.521   7.661  19.173  0.00  0.00    +0.000 NA
ATOM      7  C   UNL     1       1.743   7.559  20.316  0.00  0.00    +0.000 A 
ATOM      8  C   UNL     1       1.810   6.341  20.960  0.00  0.00    +0.000 A 
ATOM      9  S   UNL     1       2.811   5.276  20.083  0.00  0.00    +0.000 S 
ATOM     10  H   UNL     1       3.296   3.331  16.790  0.00  0.00    +0.000 HD
ATOM     11  H   UNL     1       2.409   4.344  17.805  0.00  0.00    +0.000 HD
ATOM     12  H   UNL     1       4.497   7.063  17.567  0.00  0.00    +0.000 HD
ENDROOT
BRANCH   7  13
ATOM     13  C   UNL     1       0.920   8.666  20.780  0.00  0.00    +0.000 A 
ATOM     14  C   UNL     1       0.776   8.901  22.153  0.00  0.00    +0.000 A 
ATOM     15  C   UNL     1      -0.022   9.951  22.606  0.00  0.00    +0.000 A 
ATOM     16  C   UNL     1      -0.687  10.765  21.688  0.00  0.00    +0.000 A 
ATOM     17  C   UNL     1      -0.549  10.548  20.316  0.00  0.00    +0.000 A 
ATOM     18  C   UNL     1       0.260   9.504  19.867  0.00  0.00    +0.000 A 
BRANCH  17  19
ATOM     19  O   UNL     1      -1.257  11.406  19.518  0.00  0.00    +0.000 OA
ATOM     20  C   UNL     1      -1.258  11.130  18.122  0.00  0.00    +0.000 C 
ENDBRANCH  17  19
ENDBRANCH   7  13
BRANCH   1  21
ATOM     21  C   UNL     1       5.546   3.709  15.896  0.00  0.00    +0.000 C 
BRANCH  21  22
ATOM     22  C   UNL     1       6.313   3.949  14.599  0.00  0.00    +0.000 C 
BRANCH  22  23
ATOM     23  C   UNL     1       5.383   4.225  13.416  0.00  0.00    +0.000 C 
BRANCH  23  25
ATOM     24  C   UNL     1       4.407   3.147  11.366  0.00  0.00    +0.000 C 
ATOM     25  C   UNL     1       5.623   3.241  12.273  0.00  0.00    +0.000 C 
ENDBRANCH  23  25
ENDBRANCH  22  23
ENDBRANCH  21  22
ENDBRANCH   1  21
TORSDOF 6
ENDMDL
MODEL 6
REMARK VINA RESULT:      -6.2      4.059     10.044
REMARK  Name = 
REMARK  8 active torsions:
REMARK  status: ('A' for Active; 'I' for Inactive)
REMARK    1  A    between atoms: C_1  and  C_2
REMARK    2  A    between atoms: C_2  and  C_3
REMARK    3  A    between atoms: C_3  and  C_4
REMARK    4  A    between atoms: C_4  and  C_5
REMARK    5  A    between atoms: C_5  and  N_6
REMARK    6  A    between atoms: C_12  and  C_13
REMARK    7  A    between atoms: C_17  and  O_18
REMARK    8  A    between atoms: O_18  and  C_19
REMARK                            x       y       z     vdW  Elec       q    Type
REMARK                         _______ _______ _______ _____ _____    ______ ____
ROOT
ATOM      1  N   UNL     1       0.209  11.146  21.778  0.00  0.00    +0.000 NA
ATOM      2  C   UNL     1       0.172  10.344  20.766  0.00  0.00    +0.000 C 
ATOM      3  N   UNL     1      -0.730  10.376  19.749  0.00  0.00    +0.000 N 
ATOM      4  N   UNL     1       1.043   9.293  20.700  0.00  0.00    +0.000 N 
ATOM      5  C   UNL     1       1.621   8.713  19.620  0.00  0.00    +0.000 A 
ATOM      6  N   UNL     1       2.050   7.471  19.599  0.00  0.00    +0.000 NA
ATOM      7  C   UNL     1       2.541   7.142  18.344  0.00  0.00    +0.000 A 
ATOM      8  C   UNL     1       2.567   8.182  17.438  0.00  0.00    +0.000 A 
ATOM      9  S   UNL     1       1.902   9.583  18.144  0.00  0.00    +0.000 S 
ATOM     10  H   UNL     1      -1.260  11.223  19.621  0.00  0.00    +0.000 HD
ATOM     11  H   UNL     1      -0.455   9.940  18.879  0.00  0.00    +0.000 HD
ATOM     12  H   UNL     1       1.460   9.058  21.592  0.00  0.00    +0.000 HD
ENDROOT
BRANCH   7  13
ATOM     13  C   UNL     1       2.983   5.793  18.028  0.00  0.00    +0.000 A 
ATOM     14  C   UNL     1       2.216   4.694  18.429  0.00  0.00    +0.000 A 
ATOM     15  C   UNL     1       2.640   3.396  18.142  0.00  0.00    +0.000 A 
ATOM     16  C   UNL     1       3.840   3.194  17.458  0.00  0.00    +0.000 A 
ATOM     17  C   UNL     1       4.614   4.279  17.045  0.00  0.00    +0.000 A 
ATOM     18  C   UNL     1       4.180   5.574  17.325  0.00  0.00    +0.000 A 
BRANCH  17  19
ATOM     19  O   UNL     1       5.772   3.952  16.392  0.00  0.00    +0.000 OA
ATOM     20  C   UNL     1       6.969   4.557  16.867  0.00  0.00    +0.000 C 
ENDBRANCH  17  19
ENDBRANCH   7  13
BRANCH   1  21
ATOM     21  C   UNL     1      -0.758  12.247  21.789  0.00  0.00    +0.000 C 
BRANCH  21  22
ATOM     22  C   UNL     1      -1.567  12.233  23.083  0.00  0.00    +0.000 C 
BRANCH  22  23
ATOM     23  C   UNL     1      -1.821  13.641  23.626  0.00  0.00    +0.000 C 
BRANCH  23  25
ATOM     24  C   UNL     1      -3.938  12.446  24.264  0.00  0.00    +0.000 C 
ATOM     25  C   UNL     1      -3.253  13.797  24.132  0.00  0.00    +0.000 C 
ENDBRANCH  23  25
ENDBRANCH  22  23
ENDBRANCH  21  22
ENDBRANCH   1  21
TORSDOF 6
ENDMDL
MODEL 7
REMARK VINA RESULT:      -6.2      3.876      9.546
REMARK  Name = 
REMARK  8 active torsions:
REMARK  status: ('A' for Active; 'I' for Inactive)
REMARK    1  A    between atoms: C_1  and  C_2
REMARK    2  A    between atoms: C_2  and  C_3
REMARK    3  A    between atoms: C_3  and  C_4
REMARK    4  A    between atoms: C_4  and  C_5
REMARK    5  A    between atoms: C_5  and  N_6
REMARK    6  A    between atoms: C_12  and  C_13
REMARK    7  A    between atoms: C_17  and  O_18
REMARK    8  A    between atoms: O_18  and  C_19
REMARK                            x       y       z     vdW  Elec       q    Type
REMARK                         _______ _______ _______ _____ _____    ______ ____
ROOT
ATOM      1  N   UNL     1       0.389   9.650  22.913  0.00  0.00    +0.000 NA
ATOM      2  C   UNL     1       0.339   9.013  21.791  0.00  0.00    +0.000 C 
ATOM      3  N   UNL     1      -0.757   8.860  21.002  0.00  0.00    +0.000 N 
ATOM      4  N   UNL     1       1.439   8.334  21.347  0.00  0.00    +0.000 N 
ATOM      5  C   UNL     1       1.872   8.119  20.080  0.00  0.00    +0.000 A 
ATOM      6  N   UNL     1       2.633   7.107  19.729  0.00  0.00    +0.000 NA
ATOM      7  C   UNL     1       2.866   7.119  18.362  0.00  0.00    +0.000 A 
ATOM      8  C   UNL     1       2.348   8.208  17.692  0.00  0.00    +0.000 A 
ATOM      9  S   UNL     1       1.494   9.205  18.778  0.00  0.00    +0.000 S 
ATOM     10  H   UNL     1      -1.531   9.487  21.152  0.00  0.00    +0.000 HD
ATOM     11  H   UNL     1      -0.594   8.652  20.026  0.00  0.00    +0.000 HD
ATOM     12  H   UNL     1       2.120   8.147  22.073  0.00  0.00    +0.000 HD
ENDROOT
BRANCH   7  13
ATOM     13  C   UNL     1       3.598   6.048  17.703  0.00  0.00    +0.000 A 
ATOM     14  C   UNL     1       4.591   6.355  16.765  0.00  0.00    +0.000 A 
ATOM     15  C   UNL     1       5.288   5.334  16.119  0.00  0.00    +0.000 A 
ATOM     16  C   UNL     1       4.987   4.001  16.403  0.00  0.00    +0.000 A 
ATOM     17  C   UNL     1       4.005   3.677  17.340  0.00  0.00    +0.000 A 
ATOM     18  C   UNL     1       3.319   4.702  17.992  0.00  0.00    +0.000 A 
BRANCH  17  19
ATOM     19  O   UNL     1       3.795   2.337  17.523  0.00  0.00    +0.000 OA
ATOM     20  C   UNL     1       3.526   1.906  18.852  0.00  0.00    +0.000 C 
ENDBRANCH  17  19
ENDBRANCH   7  13
BRANCH   1  21
ATOM     21  C   UNL     1      -0.829  10.350  23.334  0.00  0.00    +0.000 C 
BRANCH  21  22
ATOM     22  C   UNL     1      -0.881  11.745  22.717  0.00  0.00    +0.000 C 
BRANCH  22  23
ATOM     23  C   UNL     1      -2.178  12.482  23.056  0.00  0.00    +0.000 C 
BRANCH  23  25
ATOM     24  C   UNL     1      -2.187  12.478  20.543  0.00  0.00    +0.000 C 
ATOM     25  C   UNL     1      -2.894  12.966  21.796  0.00  0.00    +0.000 C 
ENDBRANCH  23  25
ENDBRANCH  22  23
ENDBRANCH  21  22
ENDBRANCH   1  21
TORSDOF 6
ENDMDL
MODEL 8
REMARK VINA RESULT:      -6.2      3.761      9.866
REMARK  Name = 
REMARK  8 active torsions:
REMARK  status: ('A' for Active; 'I' for Inactive)
REMARK    1  A    between atoms: C_1  and  C_2
REMARK    2  A    between atoms: C_2  and  C_3
REMARK    3  A    between atoms: C_3  and  C_4
REMARK    4  A    between atoms: C_4  and  C_5
REMARK    5  A    between atoms: C_5  and  N_6
REMARK    6  A    between atoms: C_12  and  C_13
REMARK    7  A    between atoms: C_17  and  O_18
REMARK    8  A    between atoms: O_18  and  C_19
REMARK                            x       y       z     vdW  Elec       q    Type
REMARK                         _______ _______ _______ _____ _____    ______ ____
ROOT
ATOM      1  N   UNL     1       0.405   9.593  22.869  0.00  0.00    +0.000 NA
ATOM      2  C   UNL     1       0.360   8.976  21.735  0.00  0.00    +0.000 C 
ATOM      3  N   UNL     1      -0.739   8.816  20.951  0.00  0.00    +0.000 N 
ATOM      4  N   UNL     1       1.470   8.329  21.270  0.00  0.00    +0.000 N 
ATOM      5  C   UNL     1       1.898   8.148  19.996  0.00  0.00    +0.000 A 
ATOM      6  N   UNL     1       2.677   7.159  19.620  0.00  0.00    +0.000 NA
ATOM      7  C   UNL     1       2.899   7.201  18.252  0.00  0.00    +0.000 A 
ATOM      8  C   UNL     1       2.354   8.291  17.607  0.00  0.00    +0.000 A 
ATOM      9  S   UNL     1       1.488   9.250  18.718  0.00  0.00    +0.000 S 
ATOM     10  H   UNL     1      -1.525   9.423  21.118  0.00  0.00    +0.000 HD
ATOM     11  H   UNL     1      -0.579   8.630  19.970  0.00  0.00    +0.000 HD
ATOM     12  H   UNL     1       2.160   8.143  21.987  0.00  0.00    +0.000 HD
ENDROOT
BRANCH   7  13
ATOM     13  C   UNL     1       3.648   6.158  17.568  0.00  0.00    +0.000 A 
ATOM     14  C   UNL     1       3.237   4.824  17.665  0.00  0.00    +0.000 A 
ATOM     15  C   UNL     1       3.957   3.816  17.024  0.00  0.00    +0.000 A 
ATOM     16  C   UNL     1       5.099   4.140  16.289  0.00  0.00    +0.000 A 
ATOM     17  C   UNL     1       5.520   5.465  16.176  0.00  0.00    +0.000 A 
ATOM     18  C   UNL     1       4.789   6.471  16.810  0.00  0.00    +0.000 A 
BRANCH  17  19
ATOM     19  O   UNL     1       6.657   5.654  15.438  0.00  0.00    +0.000 OA
ATOM     20  C   UNL     1       6.934   4.689  14.430  0.00  0.00    +0.000 C 
ENDBRANCH  17  19
ENDBRANCH   7  13
BRANCH   1  21
ATOM     21  C   UNL     1      -0.824  10.259  23.312  0.00  0.00    +0.000 C 
BRANCH  21  22
ATOM     22  C   UNL     1      -0.882  11.684  22.768  0.00  0.00    +0.000 C 
BRANCH  22  23
ATOM     23  C   UNL     1      -2.031  12.491  23.376  0.00  0.00    +0.000 C 
BRANCH  23  25
ATOM     24  C   UNL     1      -1.477  14.921  23.700  0.00  0.00    +0.000 C 
ATOM     25  C   UNL     1      -2.109  13.894  22.776  0.00  0.00    +0.000 C 
ENDBRANCH  23  25
ENDBRANCH  22  23
ENDBRANCH  21  22
ENDBRANCH   1  21
TORSDOF 6
ENDMDL
MODEL 9
REMARK VINA RESULT:      -6.2      4.588      9.465
REMARK  Name = 
REMARK  8 active torsions:
REMARK  status: ('A' for Active; 'I' for Inactive)
REMARK    1  A    between atoms: C_1  and  C_2
REMARK    2  A    between atoms: C_2  and  C_3
REMARK    3  A    between atoms: C_3  and  C_4
REMARK    4  A    between atoms: C_4  and  C_5
REMARK    5  A    between atoms: C_5  and  N_6
REMARK    6  A    between atoms: C_12  and  C_13
REMARK    7  A    between atoms: C_17  and  O_18
REMARK    8  A    between atoms: O_18  and  C_19
REMARK                            x       y       z     vdW  Elec       q    Type
REMARK                         _______ _______ _______ _____ _____    ______ ____
ROOT
ATOM      1  N   UNL     1      -0.040  13.228  18.470  0.00  0.00    +0.000 NA
ATOM      2  C   UNL     1       0.828  12.364  18.878  0.00  0.00    +0.000 C 
ATOM      3  N   UNL     1       1.665  12.506  19.940  0.00  0.00    +0.000 N 
ATOM      4  N   UNL     1       1.031  11.217  18.164  0.00  0.00    +0.000 N 
ATOM      5  C   UNL     1       1.362   9.975  18.595  0.00  0.00    +0.000 A 
ATOM      6  N   UNL     1       1.976   9.082  17.852  0.00  0.00    +0.000 NA
ATOM      7  C   UNL     1       2.231   7.929  18.579  0.00  0.00    +0.000 A 
ATOM      8  C   UNL     1       1.719   7.922  19.860  0.00  0.00    +0.000 A 
ATOM      9  S   UNL     1       0.960   9.412  20.188  0.00  0.00    +0.000 S 
ATOM     10  H   UNL     1       1.439  13.214  20.621  0.00  0.00    +0.000 HD
ATOM     11  H   UNL     1       2.032  11.658  20.351  0.00  0.00    +0.000 HD
ATOM     12  H   UNL     1       0.688  11.266  17.213  0.00  0.00    +0.000 HD
ENDROOT
BRANCH   7  13
ATOM     13  C   UNL     1       2.992   6.824  18.015  0.00  0.00    +0.000 A 
ATOM     14  C   UNL     1       4.205   7.072  17.363  0.00  0.00    +0.000 A 
ATOM     15  C   UNL     1       4.933   6.020  16.808  0.00  0.00    +0.000 A 
ATOM     16  C   UNL     1       4.446   4.715  16.896  0.00  0.00    +0.000 A 
ATOM     17  C   UNL     1       3.241   4.450  17.549  0.00  0.00    +0.000 A 
ATOM     18  C   UNL     1       2.522   5.504  18.112  0.00  0.00    +0.000 A 
BRANCH  17  19
ATOM     19  O   UNL     1       2.864   3.134  17.560  0.00  0.00    +0.000 OA
ATOM     20  C   UNL     1       3.323   2.345  18.652  0.00  0.00    +0.000 C 
ENDBRANCH  17  19
ENDBRANCH   7  13
BRANCH   1  21
ATOM     21  C   UNL     1      -0.202  14.440  19.278  0.00  0.00    +0.000 C 
BRANCH  21  22
ATOM     22  C   UNL     1       0.517  15.617  18.624  0.00  0.00    +0.000 C 
BRANCH  22  23
ATOM     23  C   UNL     1      -0.431  16.776  18.309  0.00  0.00    +0.000 C 
BRANCH  23  25
ATOM     24  C   UNL     1       0.164  18.425  16.508  0.00  0.00    +0.000 C 
ATOM     25  C   UNL     1       0.337  18.052  17.972  0.00  0.00    +0.000 C 
ENDBRANCH  23  25
ENDBRANCH  22  23
ENDBRANCH  21  22
ENDBRANCH   1  21
TORSDOF 6
ENDMDL
