MODEL 1
REMARK VINA RESULT:      -6.9      0.000      0.000
REMARK  Name = 
REMARK  11 active torsions:
REMARK  status: ('A' for Active; 'I' for Inactive)
REMARK    1  A    between atoms: C_1  and  C_2
REMARK    2  A    between atoms: C_2  and  O_3
REMARK    3  A    between atoms: O_3  and  C_4
REMARK    4  A    between atoms: C_4  and  C_6
REMARK    5  A    between atoms: C_6  and  C_7
REMARK    6  A    between atoms: C_8  and  C_9
REMARK    7  A    between atoms: C_12  and  C_13
REMARK    8  A    between atoms: C_16  and  O_17
REMARK    9  A    between atoms: O_17  and  C_18
REMARK   10  A    between atoms: C_21  and  C_22
REMARK   11  A    between atoms: C_25  and  C_26
REMARK                            x       y       z     vdW  Elec       q    Type
REMARK                         _______ _______ _______ _____ _____    ______ ____
ROOT
ATOM      1  C   UNL     1       0.909   9.711  19.875  0.00  0.00    +0.000 A 
ATOM      2  C   UNL     1       1.850   9.426  18.726  0.00  0.00    +0.000 A 
ATOM      3  C   UNL     1       2.141  10.473  17.671  0.00  0.00    +0.000 C 
ATOM      4  N   UNL     1       2.464   8.298  18.544  0.00  0.00    +0.000 NA
ATOM      5  C   UNL     1       2.215   7.286  19.423  0.00  0.00    +0.000 A 
ATOM      6  C   UNL     1       2.665   5.977  19.455  0.00  0.00    +0.000 A 
ATOM      7  C   UNL     1       2.054   5.423  20.611  0.00  0.00    +0.000 A 
ATOM      8  C   UNL     1       2.148   4.044  21.158  0.00  0.00    +0.000 C 
ATOM      9  N   UNL     1       1.277   6.311  21.247  0.00  0.00    +0.000 NA
ATOM     10  N   UNL     1       1.355   7.449  20.507  0.00  0.00    +0.000 N 
ATOM     11  C   UNL     1       0.699   8.675  20.726  0.00  0.00    +0.000 A 
ATOM     12  C   UNL     1      -0.235   8.775  21.903  0.00  0.00    +0.000 C 
ENDROOT
BRANCH   6  13
ATOM     13  C   UNL     1       3.537   5.404  18.437  0.00  0.00    +0.000 A 
ATOM     14  C   UNL     1       4.829   5.900  18.227  0.00  0.00    +0.000 A 
ATOM     15  C   UNL     1       5.671   5.306  17.282  0.00  0.00    +0.000 A 
ATOM     16  C   UNL     1       5.232   4.226  16.515  0.00  0.00    +0.000 A 
ATOM     17  C   UNL     1       3.929   3.765  16.672  0.00  0.00    +0.000 A 
ATOM     18  C   UNL     1       3.098   4.338  17.639  0.00  0.00    +0.000 A 
BRANCH  16  19
ATOM     19  O   UNL     1       6.137   3.722  15.625  0.00  0.00    +0.000 OA
ATOM     20  C   UNL     1       6.502   4.607  14.571  0.00  0.00    +0.000 C 
ENDBRANCH  16  19
ENDBRANCH   6  13
BRANCH   1  21
ATOM     21  C   UNL     1       0.298  11.069  20.033  0.00  0.00    +0.000 C 
BRANCH  21  22
ATOM     22  C   UNL     1      -0.693  11.363  18.922  0.00  0.00    +0.000 C 
ATOM     23  O   UNL     1      -0.838  12.447  18.373  0.00  0.00    +0.000 OA
BRANCH  22  24
ATOM     24  O   UNL     1      -1.478  10.267  18.736  0.00  0.00    +0.000 OA
BRANCH  24  26
ATOM     25  C   UNL     1      -3.306   9.844  17.272  0.00  0.00    +0.000 C 
ATOM     26  C   UNL     1      -1.793   9.964  17.371  0.00  0.00    +0.000 C 
ENDBRANCH  24  26
ENDBRANCH  22  24
ENDBRANCH  21  22
ENDBRANCH   1  21
TORSDOF 6
ENDMDL
MODEL 2
REMARK VINA RESULT:      -6.8      1.626      2.183
REMARK  Name = 
REMARK  11 active torsions:
REMARK  status: ('A' for Active; 'I' for Inactive)
REMARK    1  A    between atoms: C_1  and  C_2
REMARK    2  A    between atoms: C_2  and  O_3
REMARK    3  A    between atoms: O_3  and  C_4
REMARK    4  A    between atoms: C_4  and  C_6
REMARK    5  A    between atoms: C_6  and  C_7
REMARK    6  A    between atoms: C_8  and  C_9
REMARK    7  A    between atoms: C_12  and  C_13
REMARK    8  A    between atoms: C_16  and  O_17
REMARK    9  A    between atoms: O_17  and  C_18
REMARK   10  A    between atoms: C_21  and  C_22
REMARK   11  A    between atoms: C_25  and  C_26
REMARK                            x       y       z     vdW  Elec       q    Type
REMARK                         _______ _______ _______ _____ _____    ______ ____
ROOT
ATOM      1  C   UNL     1       0.834   9.376  19.873  0.00  0.00    +0.000 A 
ATOM      2  C   UNL     1       1.897   9.196  18.813  0.00  0.00    +0.000 A 
ATOM      3  C   UNL     1       2.203  10.293  17.814  0.00  0.00    +0.000 C 
ATOM      4  N   UNL     1       2.612   8.123  18.665  0.00  0.00    +0.000 NA
ATOM      5  C   UNL     1       2.361   7.070  19.494  0.00  0.00    +0.000 A 
ATOM      6  C   UNL     1       2.906   5.798  19.539  0.00  0.00    +0.000 A 
ATOM      7  C   UNL     1       2.235   5.166  20.618  0.00  0.00    +0.000 A 
ATOM      8  C   UNL     1       2.385   3.782  21.141  0.00  0.00    +0.000 C 
ATOM      9  N   UNL     1       1.336   5.974  21.197  0.00  0.00    +0.000 NA
ATOM     10  N   UNL     1       1.393   7.136  20.493  0.00  0.00    +0.000 N 
ATOM     11  C   UNL     1       0.627   8.302  20.676  0.00  0.00    +0.000 A 
ATOM     12  C   UNL     1      -0.417   8.296  21.761  0.00  0.00    +0.000 C 
ENDROOT
BRANCH   6  13
ATOM     13  C   UNL     1       3.912   5.323  18.596  0.00  0.00    +0.000 A 
ATOM     14  C   UNL     1       3.545   4.772  17.363  0.00  0.00    +0.000 A 
ATOM     15  C   UNL     1       4.524   4.368  16.449  0.00  0.00    +0.000 A 
ATOM     16  C   UNL     1       5.879   4.483  16.758  0.00  0.00    +0.000 A 
ATOM     17  C   UNL     1       6.254   4.972  18.005  0.00  0.00    +0.000 A 
ATOM     18  C   UNL     1       5.277   5.405  18.906  0.00  0.00    +0.000 A 
BRANCH  16  19
ATOM     19  O   UNL     1       6.747   4.061  15.792  0.00  0.00    +0.000 OA
ATOM     20  C   UNL     1       6.619   4.721  14.537  0.00  0.00    +0.000 C 
ENDBRANCH  16  19
ENDBRANCH   6  13
BRANCH   1  21
ATOM     21  C   UNL     1       0.107  10.678  20.002  0.00  0.00    +0.000 C 
BRANCH  21  22
ATOM     22  C   UNL     1       0.773  11.587  21.019  0.00  0.00    +0.000 C 
ATOM     23  O   UNL     1       1.917  12.015  20.942  0.00  0.00    +0.000 OA
BRANCH  22  24
ATOM     24  O   UNL     1      -0.059  11.733  22.086  0.00  0.00    +0.000 OA
BRANCH  24  26
ATOM     25  C   UNL     1      -2.216  11.880  23.080  0.00  0.00    +0.000 C 
ATOM     26  C   UNL     1      -1.451  11.849  21.766  0.00  0.00    +0.000 C 
ENDBRANCH  24  26
ENDBRANCH  22  24
ENDBRANCH  21  22
ENDBRANCH   1  21
TORSDOF 6
ENDMDL
MODEL 3
REMARK VINA RESULT:      -6.8      0.854      1.472
REMARK  Name = 
REMARK  11 active torsions:
REMARK  status: ('A' for Active; 'I' for Inactive)
REMARK    1  A    between atoms: C_1  and  C_2
REMARK    2  A    between atoms: C_2  and  O_3
REMARK    3  A    between atoms: O_3  and  C_4
REMARK    4  A    between atoms: C_4  and  C_6
REMARK    5  A    between atoms: C_6  and  C_7
REMARK    6  A    between atoms: C_8  and  C_9
REMARK    7  A    between atoms: C_12  and  C_13
REMARK    8  A    between atoms: C_16  and  O_17
REMARK    9  A    between atoms: O_17  and  C_18
REMARK   10  A    between atoms: C_21  and  C_22
REMARK   11  A    between atoms: C_25  and  C_26
REMARK                            x       y       z     vdW  Elec       q    Type
REMARK                         _______ _______ _______ _____ _____    ______ ____
ROOT
ATOM      1  C   UNL     1       0.875   9.510  19.949  0.00  0.00    +0.000 A 
ATOM      2  C   UNL     1       1.852   9.311  18.811  0.00  0.00    +0.000 A 
ATOM      3  C   UNL     1       2.115  10.410  17.802  0.00  0.00    +0.000 C 
ATOM      4  N   UNL     1       2.522   8.220  18.601  0.00  0.00    +0.000 NA
ATOM      5  C   UNL     1       2.302   7.166  19.437  0.00  0.00    +0.000 A 
ATOM      6  C   UNL     1       2.812   5.878  19.432  0.00  0.00    +0.000 A 
ATOM      7  C   UNL     1       2.204   5.253  20.552  0.00  0.00    +0.000 A 
ATOM      8  C   UNL     1       2.351   3.861  21.051  0.00  0.00    +0.000 C 
ATOM      9  N   UNL     1       1.374   6.081  21.202  0.00  0.00    +0.000 NA
ATOM     10  N   UNL     1       1.413   7.248  20.506  0.00  0.00    +0.000 N 
ATOM     11  C   UNL     1       0.696   8.433  20.755  0.00  0.00    +0.000 A 
ATOM     12  C   UNL     1      -0.265   8.446  21.914  0.00  0.00    +0.000 C 
ENDROOT
BRANCH   6  13
ATOM     13  C   UNL     1       3.731   5.384  18.413  0.00  0.00    +0.000 A 
ATOM     14  C   UNL     1       5.068   5.795  18.384  0.00  0.00    +0.000 A 
ATOM     15  C   UNL     1       5.950   5.273  17.431  0.00  0.00    +0.000 A 
ATOM     16  C   UNL     1       5.507   4.354  16.480  0.00  0.00    +0.000 A 
ATOM     17  C   UNL     1       4.166   3.986  16.461  0.00  0.00    +0.000 A 
ATOM     18  C   UNL     1       3.293   4.483  17.432  0.00  0.00    +0.000 A 
BRANCH  16  19
ATOM     19  O   UNL     1       6.452   3.908  15.600  0.00  0.00    +0.000 OA
ATOM     20  C   UNL     1       6.076   3.972  14.229  0.00  0.00    +0.000 C 
ENDBRANCH  16  19
ENDBRANCH   6  13
BRANCH   1  21
ATOM     21  C   UNL     1       0.198  10.831  20.142  0.00  0.00    +0.000 C 
BRANCH  21  22
ATOM     22  C   UNL     1      -1.030  10.959  19.261  0.00  0.00    +0.000 C 
ATOM     23  O   UNL     1      -1.563  10.040  18.654  0.00  0.00    +0.000 OA
BRANCH  22  24
ATOM     24  O   UNL     1      -1.356  12.276  19.154  0.00  0.00    +0.000 OA
BRANCH  24  26
ATOM     25  C   UNL     1      -0.167  14.304  18.786  0.00  0.00    +0.000 C 
ATOM     26  C   UNL     1      -0.638  13.005  18.151  0.00  0.00    +0.000 C 
ENDBRANCH  24  26
ENDBRANCH  22  24
ENDBRANCH  21  22
ENDBRANCH   1  21
TORSDOF 6
ENDMDL
MODEL 4
REMARK VINA RESULT:      -6.7      1.038      1.616
REMARK  Name = 
REMARK  11 active torsions:
REMARK  status: ('A' for Active; 'I' for Inactive)
REMARK    1  A    between atoms: C_1  and  C_2
REMARK    2  A    between atoms: C_2  and  O_3
REMARK    3  A    between atoms: O_3  and  C_4
REMARK    4  A    between atoms: C_4  and  C_6
REMARK    5  A    between atoms: C_6  and  C_7
REMARK    6  A    between atoms: C_8  and  C_9
REMARK    7  A    between atoms: C_12  and  C_13
REMARK    8  A    between atoms: C_16  and  O_17
REMARK    9  A    between atoms: O_17  and  C_18
REMARK   10  A    between atoms: C_21  and  C_22
REMARK   11  A    between atoms: C_25  and  C_26
REMARK                            x       y       z     vdW  Elec       q    Type
REMARK                         _______ _______ _______ _____ _____    ______ ____
ROOT
ATOM      1  C   UNL     1       0.903   9.601  19.927  0.00  0.00    +0.000 A 
ATOM      2  C   UNL     1       1.828   9.337  18.761  0.00  0.00    +0.000 A 
ATOM      3  C   UNL     1       2.088  10.396  17.710  0.00  0.00    +0.000 C 
ATOM      4  N   UNL     1       2.454   8.218  18.559  0.00  0.00    +0.000 NA
ATOM      5  C   UNL     1       2.231   7.196  19.434  0.00  0.00    +0.000 A 
ATOM      6  C   UNL     1       2.698   5.893  19.447  0.00  0.00    +0.000 A 
ATOM      7  C   UNL     1       2.113   5.321  20.608  0.00  0.00    +0.000 A 
ATOM      8  C   UNL     1       2.234   3.939  21.142  0.00  0.00    +0.000 C 
ATOM      9  N   UNL     1       1.336   6.194  21.264  0.00  0.00    +0.000 NA
ATOM     10  N   UNL     1       1.387   7.339  20.532  0.00  0.00    +0.000 N 
ATOM     11  C   UNL     1       0.720   8.555  20.772  0.00  0.00    +0.000 A 
ATOM     12  C   UNL     1      -0.195   8.634  21.965  0.00  0.00    +0.000 C 
ENDROOT
BRANCH   6  13
ATOM     13  C   UNL     1       3.560   5.339  18.410  0.00  0.00    +0.000 A 
ATOM     14  C   UNL     1       4.850   5.839  18.197  0.00  0.00    +0.000 A 
ATOM     15  C   UNL     1       5.683   5.263  17.233  0.00  0.00    +0.000 A 
ATOM     16  C   UNL     1       5.237   4.198  16.450  0.00  0.00    +0.000 A 
ATOM     17  C   UNL     1       3.936   3.733  16.611  0.00  0.00    +0.000 A 
ATOM     18  C   UNL     1       3.114   4.288  17.596  0.00  0.00    +0.000 A 
BRANCH  16  19
ATOM     19  O   UNL     1       6.134   3.711  15.542  0.00  0.00    +0.000 OA
ATOM     20  C   UNL     1       6.669   4.679  14.645  0.00  0.00    +0.000 C 
ENDBRANCH  16  19
ENDBRANCH   6  13
BRANCH   1  21
ATOM     21  C   UNL     1       0.278  10.950  20.106  0.00  0.00    +0.000 C 
BRANCH  21  22
ATOM     22  C   UNL     1      -1.137  10.982  19.559  0.00  0.00    +0.000 C 
ATOM     23  O   UNL     1      -1.518  10.403  18.550  0.00  0.00    +0.000 OA
BRANCH  22  24
ATOM     24  O   UNL     1      -1.870  11.862  20.294  0.00  0.00    +0.000 OA
BRANCH  24  26
ATOM     25  C   UNL     1      -2.507  12.218  22.559  0.00  0.00    +0.000 C 
ATOM     26  C   UNL     1      -1.338  12.173  21.587  0.00  0.00    +0.000 C 
ENDBRANCH  24  26
ENDBRANCH  22  24
ENDBRANCH  21  22
ENDBRANCH   1  21
TORSDOF 6
ENDMDL
MODEL 5
REMARK VINA RESULT:      -6.7      1.524      2.297
REMARK  Name = 
REMARK  11 active torsions:
REMARK  status: ('A' for Active; 'I' for Inactive)
REMARK    1  A    between atoms: C_1  and  C_2
REMARK    2  A    between atoms: C_2  and  O_3
REMARK    3  A    between atoms: O_3  and  C_4
REMARK    4  A    between atoms: C_4  and  C_6
REMARK    5  A    between atoms: C_6  and  C_7
REMARK    6  A    between atoms: C_8  and  C_9
REMARK    7  A    between atoms: C_12  and  C_13
REMARK    8  A    between atoms: C_16  and  O_17
REMARK    9  A    between atoms: O_17  and  C_18
REMARK   10  A    between atoms: C_21  and  C_22
REMARK   11  A    between atoms: C_25  and  C_26
REMARK                            x       y       z     vdW  Elec       q    Type
REMARK                         _______ _______ _______ _____ _____    ______ ____
ROOT
ATOM      1  C   UNL     1       0.805   9.511  19.771  0.00  0.00    +0.000 A 
ATOM      2  C   UNL     1       1.797   9.236  18.663  0.00  0.00    +0.000 A 
ATOM      3  C   UNL     1       2.063  10.257  17.576  0.00  0.00    +0.000 C 
ATOM      4  N   UNL     1       2.478   8.138  18.544  0.00  0.00    +0.000 NA
ATOM      5  C   UNL     1       2.257   7.148  19.455  0.00  0.00    +0.000 A 
ATOM      6  C   UNL     1       2.777   5.868  19.553  0.00  0.00    +0.000 A 
ATOM      7  C   UNL     1       2.161   5.325  20.711  0.00  0.00    +0.000 A 
ATOM      8  C   UNL     1       2.314   3.976  21.315  0.00  0.00    +0.000 C 
ATOM      9  N   UNL     1       1.317   6.191  21.287  0.00  0.00    +0.000 NA
ATOM     10  N   UNL     1       1.355   7.303  20.505  0.00  0.00    +0.000 N 
ATOM     11  C   UNL     1       0.625   8.497  20.655  0.00  0.00    +0.000 A 
ATOM     12  C   UNL     1      -0.350   8.589  21.799  0.00  0.00    +0.000 C 
ENDROOT
BRANCH   6  13
ATOM     13  C   UNL     1       3.712   5.307  18.585  0.00  0.00    +0.000 A 
ATOM     14  C   UNL     1       3.278   4.436  17.579  0.00  0.00    +0.000 A 
ATOM     15  C   UNL     1       4.180   3.947  16.628  0.00  0.00    +0.000 A 
ATOM     16  C   UNL     1       5.528   4.298  16.678  0.00  0.00    +0.000 A 
ATOM     17  C   UNL     1       5.982   5.114  17.709  0.00  0.00    +0.000 A 
ATOM     18  C   UNL     1       5.077   5.628  18.641  0.00  0.00    +0.000 A 
BRANCH  16  19
ATOM     19  O   UNL     1       6.318   3.766  15.698  0.00  0.00    +0.000 OA
ATOM     20  C   UNL     1       6.970   4.719  14.866  0.00  0.00    +0.000 C 
ENDBRANCH  16  19
ENDBRANCH   6  13
BRANCH   1  21
ATOM     21  C   UNL     1       0.115  10.837  19.856  0.00  0.00    +0.000 C 
BRANCH  21  22
ATOM     22  C   UNL     1       0.841  11.781  20.796  0.00  0.00    +0.000 C 
ATOM     23  O   UNL     1       0.575  11.944  21.979  0.00  0.00    +0.000 OA
BRANCH  22  24
ATOM     24  O   UNL     1       1.742  12.506  20.078  0.00  0.00    +0.000 OA
BRANCH  24  26
ATOM     25  C   UNL     1       2.328  14.044  18.359  0.00  0.00    +0.000 C 
ATOM     26  C   UNL     1       1.176  13.422  19.132  0.00  0.00    +0.000 C 
ENDBRANCH  24  26
ENDBRANCH  22  24
ENDBRANCH  21  22
ENDBRANCH   1  21
TORSDOF 6
ENDMDL
MODEL 6
REMARK VINA RESULT:      -6.6      2.250      8.103
REMARK  Name = 
REMARK  11 active torsions:
REMARK  status: ('A' for Active; 'I' for Inactive)
REMARK    1  A    between atoms: C_1  and  C_2
REMARK    2  A    between atoms: C_2  and  O_3
REMARK    3  A    between atoms: O_3  and  C_4
REMARK    4  A    between atoms: C_4  and  C_6
REMARK    5  A    between atoms: C_6  and  C_7
REMARK    6  A    between atoms: C_8  and  C_9
REMARK    7  A    between atoms: C_12  and  C_13
REMARK    8  A    between atoms: C_16  and  O_17
REMARK    9  A    between atoms: O_17  and  C_18
REMARK   10  A    between atoms: C_21  and  C_22
REMARK   11  A    between atoms: C_25  and  C_26
REMARK                            x       y       z     vdW  Elec       q    Type
REMARK                         _______ _______ _______ _____ _____    ______ ____
ROOT
ATOM      1  C   UNL     1       3.180   5.133  18.725  0.00  0.00    +0.000 A 
ATOM      2  C   UNL     1       2.361   5.421  19.963  0.00  0.00    +0.000 A 
ATOM      3  C   UNL     1       2.017   4.324  20.949  0.00  0.00    +0.000 C 
ATOM      4  N   UNL     1       1.891   6.590  20.276  0.00  0.00    +0.000 NA
ATOM      5  C   UNL     1       2.114   7.620  19.412  0.00  0.00    +0.000 A 
ATOM      6  C   UNL     1       1.697   8.940  19.442  0.00  0.00    +0.000 A 
ATOM      7  C   UNL     1       2.249   9.511  18.265  0.00  0.00    +0.000 A 
ATOM      8  C   UNL     1       2.131  10.899  17.746  0.00  0.00    +0.000 C 
ATOM      9  N   UNL     1       2.948   8.618  17.551  0.00  0.00    +0.000 NA
ATOM     10  N   UNL     1       2.848   7.450  18.240  0.00  0.00    +0.000 N 
ATOM     11  C   UNL     1       3.379   6.192  17.900  0.00  0.00    +0.000 A 
ATOM     12  C   UNL     1       4.142   6.075  16.608  0.00  0.00    +0.000 C 
ENDROOT
BRANCH   6  13
ATOM     13  C   UNL     1       0.841   9.486  20.489  0.00  0.00    +0.000 A 
ATOM     14  C   UNL     1       0.908   9.007  21.802  0.00  0.00    +0.000 A 
ATOM     15  C   UNL     1       0.117   9.577  22.805  0.00  0.00    +0.000 A 
ATOM     16  C   UNL     1      -0.769  10.614  22.511  0.00  0.00    +0.000 A 
ATOM     17  C   UNL     1      -0.889  11.055  21.197  0.00  0.00    +0.000 A 
ATOM     18  C   UNL     1      -0.076  10.508  20.201  0.00  0.00    +0.000 A 
BRANCH  16  19
ATOM     19  O   UNL     1      -1.490  11.097  23.566  0.00  0.00    +0.000 OA
ATOM     20  C   UNL     1      -2.570  11.955  23.214  0.00  0.00    +0.000 C 
ENDBRANCH  16  19
ENDBRANCH   6  13
BRANCH   1  21
ATOM     21  C   UNL     1       3.731   3.762  18.485  0.00  0.00    +0.000 C 
BRANCH  21  22
ATOM     22  C   UNL     1       5.032   3.548  19.237  0.00  0.00    +0.000 C 
ATOM     23  O   UNL     1       5.146   2.945  20.295  0.00  0.00    +0.000 OA
BRANCH  22  24
ATOM     24  O   UNL     1       6.017   4.249  18.612  0.00  0.00    +0.000 OA
BRANCH  24  26
ATOM     25  C   UNL     1       7.591   6.030  18.485  0.00  0.00    +0.000 C 
ATOM     26  C   UNL     1       6.611   5.297  19.388  0.00  0.00    +0.000 C 
ENDBRANCH  24  26
ENDBRANCH  22  24
ENDBRANCH  21  22
ENDBRANCH   1  21
TORSDOF 6
ENDMDL
MODEL 7
REMARK VINA RESULT:      -6.6      1.589      2.141
REMARK  Name = 
REMARK  11 active torsions:
REMARK  status: ('A' for Active; 'I' for Inactive)
REMARK    1  A    between atoms: C_1  and  C_2
REMARK    2  A    between atoms: C_2  and  O_3
REMARK    3  A    between atoms: O_3  and  C_4
REMARK    4  A    between atoms: C_4  and  C_6
REMARK    5  A    between atoms: C_6  and  C_7
REMARK    6  A    between atoms: C_8  and  C_9
REMARK    7  A    between atoms: C_12  and  C_13
REMARK    8  A    between atoms: C_16  and  O_17
REMARK    9  A    between atoms: O_17  and  C_18
REMARK   10  A    between atoms: C_21  and  C_22
REMARK   11  A    between atoms: C_25  and  C_26
REMARK                            x       y       z     vdW  Elec       q    Type
REMARK                         _______ _______ _______ _____ _____    ______ ____
ROOT
ATOM      1  C   UNL     1       0.726   9.704  19.865  0.00  0.00    +0.000 A 
ATOM      2  C   UNL     1       1.631   9.442  18.682  0.00  0.00    +0.000 A 
ATOM      3  C   UNL     1       1.831  10.484  17.601  0.00  0.00    +0.000 C 
ATOM      4  N   UNL     1       2.289   8.340  18.491  0.00  0.00    +0.000 NA
ATOM      5  C   UNL     1       2.122   7.333  19.395  0.00  0.00    +0.000 A 
ATOM      6  C   UNL     1       2.632   6.046  19.428  0.00  0.00    +0.000 A 
ATOM      7  C   UNL     1       2.095   5.484  20.615  0.00  0.00    +0.000 A 
ATOM      8  C   UNL     1       2.274   4.120  21.179  0.00  0.00    +0.000 C 
ATOM      9  N   UNL     1       1.305   6.346  21.269  0.00  0.00    +0.000 NA
ATOM     10  N   UNL     1       1.300   7.474  20.510  0.00  0.00    +0.000 N 
ATOM     11  C   UNL     1       0.598   8.673  20.738  0.00  0.00    +0.000 A 
ATOM     12  C   UNL     1      -0.290   8.750  21.951  0.00  0.00    +0.000 C 
ENDROOT
BRANCH   6  13
ATOM     13  C   UNL     1       3.488   5.496  18.383  0.00  0.00    +0.000 A 
ATOM     14  C   UNL     1       4.658   6.153  17.984  0.00  0.00    +0.000 A 
ATOM     15  C   UNL     1       5.494   5.586  17.017  0.00  0.00    +0.000 A 
ATOM     16  C   UNL     1       5.166   4.371  16.415  0.00  0.00    +0.000 A 
ATOM     17  C   UNL     1       3.974   3.740  16.759  0.00  0.00    +0.000 A 
ATOM     18  C   UNL     1       3.155   4.290  17.748  0.00  0.00    +0.000 A 
BRANCH  16  19
ATOM     19  O   UNL     1       6.055   3.909  15.486  0.00  0.00    +0.000 OA
ATOM     20  C   UNL     1       7.021   4.859  15.052  0.00  0.00    +0.000 C 
ENDBRANCH  16  19
ENDBRANCH   6  13
BRANCH   1  21
ATOM     21  C   UNL     1       0.060  11.035  20.027  0.00  0.00    +0.000 C 
BRANCH  21  22
ATOM     22  C   UNL     1       0.928  11.995  20.818  0.00  0.00    +0.000 C 
ATOM     23  O   UNL     1       2.000  12.452  20.444  0.00  0.00    +0.000 OA
BRANCH  22  24
ATOM     24  O   UNL     1       0.387  12.156  22.057  0.00  0.00    +0.000 OA
BRANCH  24  26
ATOM     25  C   UNL     1      -1.290  13.376  23.224  0.00  0.00    +0.000 C 
ATOM     26  C   UNL     1      -1.024  12.410  22.081  0.00  0.00    +0.000 C 
ENDBRANCH  24  26
ENDBRANCH  22  24
ENDBRANCH  21  22
ENDBRANCH   1  21
TORSDOF 6
ENDMDL
MODEL 8
REMARK VINA RESULT:      -6.6      2.209      7.553
REMARK  Name = 
REMARK  11 active torsions:
REMARK  status: ('A' for Active; 'I' for Inactive)
REMARK    1  A    between atoms: C_1  and  C_2
REMARK    2  A    between atoms: C_2  and  O_3
REMARK    3  A    between atoms: O_3  and  C_4
REMARK    4  A    between atoms: C_4  and  C_6
REMARK    5  A    between atoms: C_6  and  C_7
REMARK    6  A    between atoms: C_8  and  C_9
REMARK    7  A    between atoms: C_12  and  C_13
REMARK    8  A    between atoms: C_16  and  O_17
REMARK    9  A    between atoms: O_17  and  C_18
REMARK   10  A    between atoms: C_21  and  C_22
REMARK   11  A    between atoms: C_25  and  C_26
REMARK                            x       y       z     vdW  Elec       q    Type
REMARK                         _______ _______ _______ _____ _____    ______ ____
ROOT
ATOM      1  C   UNL     1       5.800   4.722  16.814  0.00  0.00    +0.000 A 
ATOM      2  C   UNL     1       5.572   6.170  17.185  0.00  0.00    +0.000 A 
ATOM      3  C   UNL     1       6.586   7.239  16.834  0.00  0.00    +0.000 C 
ATOM      4  N   UNL     1       4.529   6.609  17.821  0.00  0.00    +0.000 NA
ATOM      5  C   UNL     1       3.595   5.699  18.218  0.00  0.00    +0.000 A 
ATOM      6  C   UNL     1       2.429   5.853  18.950  0.00  0.00    +0.000 A 
ATOM      7  C   UNL     1       1.892   4.541  19.036  0.00  0.00    +0.000 A 
ATOM      8  C   UNL     1       0.656   4.071  19.715  0.00  0.00    +0.000 C 
ATOM      9  N   UNL     1       2.663   3.638  18.415  0.00  0.00    +0.000 NA
ATOM     10  N   UNL     1       3.722   4.342  17.933  0.00  0.00    +0.000 N 
ATOM     11  C   UNL     1       4.839   3.858  17.226  0.00  0.00    +0.000 A 
ATOM     12  C   UNL     1       4.924   2.376  16.972  0.00  0.00    +0.000 C 
ENDROOT
BRANCH   6  13
ATOM     13  C   UNL     1       1.987   7.131  19.495  0.00  0.00    +0.000 A 
ATOM     14  C   UNL     1       1.821   8.250  18.672  0.00  0.00    +0.000 A 
ATOM     15  C   UNL     1       1.347   9.455  19.202  0.00  0.00    +0.000 A 
ATOM     16  C   UNL     1       1.056   9.570  20.561  0.00  0.00    +0.000 A 
ATOM     17  C   UNL     1       1.277   8.482  21.399  0.00  0.00    +0.000 A 
ATOM     18  C   UNL     1       1.720   7.270  20.865  0.00  0.00    +0.000 A 
BRANCH  16  19
ATOM     19  O   UNL     1       0.597  10.790  20.969  0.00  0.00    +0.000 OA
ATOM     20  C   UNL     1       0.148  11.646  19.923  0.00  0.00    +0.000 C 
ENDBRANCH  16  19
ENDBRANCH   6  13
BRANCH   1  21
ATOM     21  C   UNL     1       7.008   4.326  16.022  0.00  0.00    +0.000 C 
BRANCH  21  22
ATOM     22  C   UNL     1       6.861   4.704  14.560  0.00  0.00    +0.000 C 
ATOM     23  O   UNL     1       7.480   5.595  13.995  0.00  0.00    +0.000 OA
BRANCH  22  24
ATOM     24  O   UNL     1       5.838   3.983  14.024  0.00  0.00    +0.000 OA
BRANCH  24  26
ATOM     25  C   UNL     1       4.771   3.392  11.980  0.00  0.00    +0.000 C 
ATOM     26  C   UNL     1       6.095   3.426  12.728  0.00  0.00    +0.000 C 
ENDBRANCH  24  26
ENDBRANCH  22  24
ENDBRANCH  21  22
ENDBRANCH   1  21
TORSDOF 6
ENDMDL
MODEL 9
REMARK VINA RESULT:      -6.6      0.877      1.872
REMARK  Name = 
REMARK  11 active torsions:
REMARK  status: ('A' for Active; 'I' for Inactive)
REMARK    1  A    between atoms: C_1  and  C_2
REMARK    2  A    between atoms: C_2  and  O_3
REMARK    3  A    between atoms: O_3  and  C_4
REMARK    4  A    between atoms: C_4  and  C_6
REMARK    5  A    between atoms: C_6  and  C_7
REMARK    6  A    between atoms: C_8  and  C_9
REMARK    7  A    between atoms: C_12  and  C_13
REMARK    8  A    between atoms: C_16  and  O_17
REMARK    9  A    between atoms: O_17  and  C_18
REMARK   10  A    between atoms: C_21  and  C_22
REMARK   11  A    between atoms: C_25  and  C_26
REMARK                            x       y       z     vdW  Elec       q    Type
REMARK                         _______ _______ _______ _____ _____    ______ ____
ROOT
ATOM      1  C   UNL     1       0.859   9.694  19.922  0.00  0.00    +0.000 A 
ATOM      2  C   UNL     1       1.765   9.476  18.731  0.00  0.00    +0.000 A 
ATOM      3  C   UNL     1       1.987  10.566  17.703  0.00  0.00    +0.000 C 
ATOM      4  N   UNL     1       2.405   8.373  18.488  0.00  0.00    +0.000 NA
ATOM      5  C   UNL     1       2.217   7.326  19.340  0.00  0.00    +0.000 A 
ATOM      6  C   UNL     1       2.705   6.030  19.310  0.00  0.00    +0.000 A 
ATOM      7  C   UNL     1       2.153   5.420  20.467  0.00  0.00    +0.000 A 
ATOM      8  C   UNL     1       2.307   4.027  20.962  0.00  0.00    +0.000 C 
ATOM      9  N   UNL     1       1.375   6.262  21.160  0.00  0.00    +0.000 NA
ATOM     10  N   UNL     1       1.392   7.426  20.458  0.00  0.00    +0.000 N 
ATOM     11  C   UNL     1       0.710   8.624  20.742  0.00  0.00    +0.000 A 
ATOM     12  C   UNL     1      -0.182   8.656  21.955  0.00  0.00    +0.000 C 
ENDROOT
BRANCH   6  13
ATOM     13  C   UNL     1       3.555   5.518  18.243  0.00  0.00    +0.000 A 
ATOM     14  C   UNL     1       3.342   4.249  17.692  0.00  0.00    +0.000 A 
ATOM     15  C   UNL     1       4.135   3.793  16.633  0.00  0.00    +0.000 A 
ATOM     16  C   UNL     1       5.166   4.583  16.125  0.00  0.00    +0.000 A 
ATOM     17  C   UNL     1       5.427   5.820  16.705  0.00  0.00    +0.000 A 
ATOM     18  C   UNL     1       4.615   6.288  17.741  0.00  0.00    +0.000 A 
BRANCH  16  19
ATOM     19  O   UNL     1       5.874   4.041  15.090  0.00  0.00    +0.000 OA
ATOM     20  C   UNL     1       6.992   4.810  14.657  0.00  0.00    +0.000 C 
ENDBRANCH  16  19
ENDBRANCH   6  13
BRANCH   1  21
ATOM     21  C   UNL     1       0.216  11.027  20.148  0.00  0.00    +0.000 C 
BRANCH  21  22
ATOM     22  C   UNL     1      -0.975  11.231  19.230  0.00  0.00    +0.000 C 
ATOM     23  O   UNL     1      -1.703  10.343  18.809  0.00  0.00    +0.000 OA
BRANCH  22  24
ATOM     24  O   UNL     1      -1.013  12.537  18.848  0.00  0.00    +0.000 OA
BRANCH  24  26
ATOM     25  C   UNL     1      -0.082  14.726  18.791  0.00  0.00    +0.000 C 
ATOM     26  C   UNL     1      -0.115  13.407  19.547  0.00  0.00    +0.000 C 
ENDBRANCH  24  26
ENDBRANCH  22  24
ENDBRANCH  21  22
ENDBRANCH   1  21
TORSDOF 6
ENDMDL
