MODEL 1
REMARK VINA RESULT:      -8.6      0.000      0.000
REMARK  Name = 
REMARK  7 active torsions:
REMARK  status: ('A' for Active; 'I' for Inactive)
REMARK    1  A    between atoms: C_1  and  N_2
REMARK    2  A    between atoms: N_2  and  C_3
REMARK    3  A    between atoms: N_2  and  S_14
REMARK    4  A    between atoms: C_3  and  C_4
REMARK    5  A    between atoms: N_6  and  C_7
REMARK    6  A    between atoms: C_7  and  C_8
REMARK    7  A    between atoms: S_14  and  C_17
REMARK                            x       y       z     vdW  Elec       q    Type
REMARK                         _______ _______ _______ _____ _____    ______ ____
ROOT
ATOM      1  S   UNL     1       2.773   3.711  20.702  0.00  0.00    +0.000 S 
ATOM      2  O   UNL     1       2.244   3.699  22.042  0.00  0.00    +0.000 OA
ATOM      3  O   UNL     1       4.167   3.387  20.438  0.00  0.00    +0.000 OA
ENDROOT
BRANCH   1   4
ATOM      4  C   UNL     1       2.421   5.313  20.023  0.00  0.00    +0.000 A 
ATOM      5  C   UNL     1       3.040   5.834  18.883  0.00  0.00    +0.000 A 
ATOM      6  C   UNL     1       2.801   7.169  18.481  0.00  0.00    +0.000 A 
ATOM      7  C   UNL     1       1.967   7.958  19.303  0.00  0.00    +0.000 A 
ATOM      8  N   UNL     1       1.576   9.288  19.247  0.00  0.00    +0.000 N 
ATOM      9  C   UNL     1       0.828   9.601  20.354  0.00  0.00    +0.000 A 
ATOM     10  C   UNL     1       0.722   8.471  21.120  0.00  0.00    +0.000 A 
ATOM     11  C   UNL     1       1.379   7.429  20.447  0.00  0.00    +0.000 A 
ATOM     12  C   UNL     1       1.563   6.091  20.789  0.00  0.00    +0.000 A 
ATOM     13  C   UNL     1       0.076   8.382  22.445  0.00  0.00    +0.000 C 
ATOM     14  C   UNL     1      -0.300   9.741  23.020  0.00  0.00    +0.000 C 
ATOM     15  C   UNL     1      -0.559  10.882  22.017  0.00  0.00    +0.000 C 
ATOM     16  C   UNL     1       0.275  10.933  20.713  0.00  0.00    +0.000 C 
ATOM     17  H   UNL     1       1.849   9.941  18.514  0.00  0.00    +0.000 HD
ENDBRANCH   1   4
BRANCH   1  19
ATOM     18  C   UNL     1       0.654   3.391  19.103  0.00  0.00    +0.000 C 
ATOM     19  N   UNL     1       1.792   2.667  19.730  0.00  0.00    +0.000 NA
BRANCH  19  20
ATOM     20  C   UNL     1       2.618   1.919  18.724  0.00  0.00    +0.000 C 
BRANCH  20  21
ATOM     21  C   UNL     1       3.132   2.745  17.548  0.00  0.00    +0.000 C 
ATOM     22  O   UNL     1       2.378   3.134  16.658  0.00  0.00    +0.000 OA
ATOM     23  N   UNL     1       4.472   3.062  17.583  0.00  0.00    +0.000 N 
ATOM     24  H   UNL     1       5.028   2.702  18.349  0.00  0.00    +0.000 HD
BRANCH  23  25
ATOM     25  C   UNL     1       5.124   3.808  16.525  0.00  0.00    +0.000 C 
BRANCH  25  26
ATOM     26  C   UNL     1       6.016   4.894  17.072  0.00  0.00    +0.000 A 
ATOM     27  C   UNL     1       5.967   6.199  16.558  0.00  0.00    +0.000 A 
ATOM     28  C   UNL     1       6.783   7.200  17.088  0.00  0.00    +0.000 A 
ATOM     29  C   UNL     1       7.652   6.912  18.139  0.00  0.00    +0.000 A 
ATOM     30  C   UNL     1       7.699   5.623  18.667  0.00  0.00    +0.000 A 
ATOM     31  C   UNL     1       6.882   4.622  18.140  0.00  0.00    +0.000 A 
ENDBRANCH  25  26
ENDBRANCH  23  25
ENDBRANCH  20  21
ENDBRANCH  19  20
ENDBRANCH   1  19
TORSDOF 6
ENDMDL
MODEL 2
REMARK VINA RESULT:      -8.6      2.332      7.991
REMARK  Name = 
REMARK  7 active torsions:
REMARK  status: ('A' for Active; 'I' for Inactive)
REMARK    1  A    between atoms: C_1  and  N_2
REMARK    2  A    between atoms: N_2  and  C_3
REMARK    3  A    between atoms: N_2  and  S_14
REMARK    4  A    between atoms: C_3  and  C_4
REMARK    5  A    between atoms: N_6  and  C_7
REMARK    6  A    between atoms: C_7  and  C_8
REMARK    7  A    between atoms: S_14  and  C_17
REMARK                            x       y       z     vdW  Elec       q    Type
REMARK                         _______ _______ _______ _____ _____    ______ ____
ROOT
ATOM      1  S   UNL     1       3.579   3.337  19.003  0.00  0.00    +0.000 S 
ATOM      2  O   UNL     1       4.029   3.144  20.358  0.00  0.00    +0.000 OA
ATOM      3  O   UNL     1       3.009   2.241  18.235  0.00  0.00    +0.000 OA
ENDROOT
BRANCH   1   4
ATOM      4  C   UNL     1       4.944   4.019  18.099  0.00  0.00    +0.000 A 
ATOM      5  C   UNL     1       5.798   5.009  18.595  0.00  0.00    +0.000 A 
ATOM      6  C   UNL     1       6.782   5.594  17.765  0.00  0.00    +0.000 A 
ATOM      7  C   UNL     1       6.826   5.181  16.415  0.00  0.00    +0.000 A 
ATOM      8  N   UNL     1       7.600   5.577  15.334  0.00  0.00    +0.000 N 
ATOM      9  C   UNL     1       7.181   4.931  14.199  0.00  0.00    +0.000 A 
ATOM     10  C   UNL     1       6.144   4.106  14.546  0.00  0.00    +0.000 A 
ATOM     11  C   UNL     1       5.953   4.212  15.933  0.00  0.00    +0.000 A 
ATOM     12  C   UNL     1       5.039   3.590  16.781  0.00  0.00    +0.000 A 
ATOM     13  C   UNL     1       5.337   3.292  13.615  0.00  0.00    +0.000 C 
ATOM     14  C   UNL     1       5.616   3.606  12.151  0.00  0.00    +0.000 C 
ATOM     15  C   UNL     1       7.005   4.176  11.806  0.00  0.00    +0.000 C 
ATOM     16  C   UNL     1       7.696   5.122  12.818  0.00  0.00    +0.000 C 
ATOM     17  H   UNL     1       8.336   6.280  15.377  0.00  0.00    +0.000 HD
ENDBRANCH   1   4
BRANCH   1  19
ATOM     18  C   UNL     1       1.123   4.233  19.568  0.00  0.00    +0.000 C 
ATOM     19  N   UNL     1       2.437   4.639  19.000  0.00  0.00    +0.000 NA
BRANCH  19  20
ATOM     20  C   UNL     1       2.997   5.860  19.670  0.00  0.00    +0.000 C 
BRANCH  20  21
ATOM     21  C   UNL     1       2.462   7.196  19.163  0.00  0.00    +0.000 C 
ATOM     22  O   UNL     1       2.660   7.570  18.008  0.00  0.00    +0.000 OA
ATOM     23  N   UNL     1       1.708   7.916  20.062  0.00  0.00    +0.000 N 
ATOM     24  H   UNL     1       1.592   7.542  20.996  0.00  0.00    +0.000 HD
BRANCH  23  25
ATOM     25  C   UNL     1       1.159   9.221  19.749  0.00  0.00    +0.000 C 
BRANCH  25  26
ATOM     26  C   UNL     1       0.374   9.790  20.903  0.00  0.00    +0.000 A 
ATOM     27  C   UNL     1       0.201   9.063  22.091  0.00  0.00    +0.000 A 
ATOM     28  C   UNL     1      -0.510   9.610  23.161  0.00  0.00    +0.000 A 
ATOM     29  C   UNL     1      -1.052  10.891  23.059  0.00  0.00    +0.000 A 
ATOM     30  C   UNL     1      -0.875  11.628  21.890  0.00  0.00    +0.000 A 
ATOM     31  C   UNL     1      -0.162  11.083  20.821  0.00  0.00    +0.000 A 
ENDBRANCH  25  26
ENDBRANCH  23  25
ENDBRANCH  20  21
ENDBRANCH  19  20
ENDBRANCH   1  19
TORSDOF 6
ENDMDL
MODEL 3
REMARK VINA RESULT:      -8.5      3.742      5.506
REMARK  Name = 
REMARK  7 active torsions:
REMARK  status: ('A' for Active; 'I' for Inactive)
REMARK    1  A    between atoms: C_1  and  N_2
REMARK    2  A    between atoms: N_2  and  C_3
REMARK    3  A    between atoms: N_2  and  S_14
REMARK    4  A    between atoms: C_3  and  C_4
REMARK    5  A    between atoms: N_6  and  C_7
REMARK    6  A    between atoms: C_7  and  C_8
REMARK    7  A    between atoms: S_14  and  C_17
REMARK                            x       y       z     vdW  Elec       q    Type
REMARK                         _______ _______ _______ _____ _____    ______ ____
ROOT
ATOM      1  S   UNL     1       5.066   5.727  16.338  0.00  0.00    +0.000 S 
ATOM      2  O   UNL     1       4.875   6.870  15.482  0.00  0.00    +0.000 OA
ATOM      3  O   UNL     1       4.748   4.382  15.882  0.00  0.00    +0.000 OA
ENDROOT
BRANCH   1   4
ATOM      4  C   UNL     1       4.171   6.048  17.836  0.00  0.00    +0.000 A 
ATOM      5  C   UNL     1       4.004   5.116  18.865  0.00  0.00    +0.000 A 
ATOM      6  C   UNL     1       3.167   5.404  19.968  0.00  0.00    +0.000 A 
ATOM      7  C   UNL     1       2.472   6.634  19.956  0.00  0.00    +0.000 A 
ATOM      8  N   UNL     1       1.547   7.201  20.820  0.00  0.00    +0.000 N 
ATOM      9  C   UNL     1       1.090   8.385  20.302  0.00  0.00    +0.000 A 
ATOM     10  C   UNL     1       1.729   8.594  19.108  0.00  0.00    +0.000 A 
ATOM     11  C   UNL     1       2.633   7.538  18.912  0.00  0.00    +0.000 A 
ATOM     12  C   UNL     1       3.519   7.274  17.870  0.00  0.00    +0.000 A 
ATOM     13  C   UNL     1       1.470   9.706  18.172  0.00  0.00    +0.000 C 
ATOM     14  C   UNL     1       0.243  10.528  18.544  0.00  0.00    +0.000 C 
ATOM     15  C   UNL     1      -0.167  10.547  20.028  0.00  0.00    +0.000 C 
ATOM     16  C   UNL     1       0.043   9.270  20.878  0.00  0.00    +0.000 C 
ATOM     17  H   UNL     1       1.224   6.770  21.685  0.00  0.00    +0.000 HD
ENDBRANCH   1   4
BRANCH   1  19
ATOM     18  C   UNL     1       7.526   4.688  16.194  0.00  0.00    +0.000 C 
ATOM     19  N   UNL     1       6.712   5.730  16.875  0.00  0.00    +0.000 NA
BRANCH  19  20
ATOM     20  C   UNL     1       7.322   7.097  16.759  0.00  0.00    +0.000 C 
BRANCH  20  21
ATOM     21  C   UNL     1       8.010   7.622  18.016  0.00  0.00    +0.000 C 
ATOM     22  O   UNL     1       8.288   6.877  18.955  0.00  0.00    +0.000 OA
ATOM     23  N   UNL     1       8.339   8.959  18.002  0.00  0.00    +0.000 N 
ATOM     24  H   UNL     1       8.074   9.507  17.193  0.00  0.00    +0.000 HD
BRANCH  23  25
ATOM     25  C   UNL     1       8.962   9.620  19.131  0.00  0.00    +0.000 C 
BRANCH  25  26
ATOM     26  C   UNL     1       9.582  10.937  18.738  0.00  0.00    +0.000 A 
ATOM     27  C   UNL     1       8.920  11.818  17.869  0.00  0.00    +0.000 A 
ATOM     28  C   UNL     1       9.495  13.044  17.530  0.00  0.00    +0.000 A 
ATOM     29  C   UNL     1      10.732  13.407  18.059  0.00  0.00    +0.000 A 
ATOM     30  C   UNL     1      11.392  12.547  18.934  0.00  0.00    +0.000 A 
ATOM     31  C   UNL     1      10.818  11.322  19.276  0.00  0.00    +0.000 A 
ENDBRANCH  25  26
ENDBRANCH  23  25
ENDBRANCH  20  21
ENDBRANCH  19  20
ENDBRANCH   1  19
TORSDOF 6
ENDMDL
MODEL 4
REMARK VINA RESULT:      -8.3      2.588      7.870
REMARK  Name = 
REMARK  7 active torsions:
REMARK  status: ('A' for Active; 'I' for Inactive)
REMARK    1  A    between atoms: C_1  and  N_2
REMARK    2  A    between atoms: N_2  and  C_3
REMARK    3  A    between atoms: N_2  and  S_14
REMARK    4  A    between atoms: C_3  and  C_4
REMARK    5  A    between atoms: N_6  and  C_7
REMARK    6  A    between atoms: C_7  and  C_8
REMARK    7  A    between atoms: S_14  and  C_17
REMARK                            x       y       z     vdW  Elec       q    Type
REMARK                         _______ _______ _______ _____ _____    ______ ____
ROOT
ATOM      1  S   UNL     1       3.832   3.346  18.930  0.00  0.00    +0.000 S 
ATOM      2  O   UNL     1       4.219   3.395  20.317  0.00  0.00    +0.000 OA
ATOM      3  O   UNL     1       3.446   2.093  18.299  0.00  0.00    +0.000 OA
ENDROOT
BRANCH   1   4
ATOM      4  C   UNL     1       5.157   4.070  17.998  0.00  0.00    +0.000 A 
ATOM      5  C   UNL     1       5.983   5.092  18.475  0.00  0.00    +0.000 A 
ATOM      6  C   UNL     1       6.932   5.707  17.625  0.00  0.00    +0.000 A 
ATOM      7  C   UNL     1       6.968   5.287  16.277  0.00  0.00    +0.000 A 
ATOM      8  N   UNL     1       7.709   5.703  15.180  0.00  0.00    +0.000 N 
ATOM      9  C   UNL     1       7.294   5.036  14.056  0.00  0.00    +0.000 A 
ATOM     10  C   UNL     1       6.292   4.178  14.425  0.00  0.00    +0.000 A 
ATOM     11  C   UNL     1       6.122   4.285  15.815  0.00  0.00    +0.000 A 
ATOM     12  C   UNL     1       5.245   3.636  16.682  0.00  0.00    +0.000 A 
ATOM     13  C   UNL     1       5.499   3.330  13.512  0.00  0.00    +0.000 C 
ATOM     14  C   UNL     1       5.742   3.645  12.042  0.00  0.00    +0.000 C 
ATOM     15  C   UNL     1       7.104   4.261  11.670  0.00  0.00    +0.000 C 
ATOM     16  C   UNL     1       7.779   5.237  12.666  0.00  0.00    +0.000 C 
ATOM     17  H   UNL     1       8.420   6.432  15.206  0.00  0.00    +0.000 HD
ENDBRANCH   1   4
BRANCH   1  19
ATOM     18  C   UNL     1       1.222   3.910  19.076  0.00  0.00    +0.000 C 
ATOM     19  N   UNL     1       2.543   4.478  18.694  0.00  0.00    +0.000 NA
BRANCH  19  20
ATOM     20  C   UNL     1       2.826   5.780  19.385  0.00  0.00    +0.000 C 
BRANCH  20  21
ATOM     21  C   UNL     1       2.793   7.020  18.496  0.00  0.00    +0.000 C 
ATOM     22  O   UNL     1       3.554   7.144  17.538  0.00  0.00    +0.000 OA
ATOM     23  N   UNL     1       1.829   7.952  18.809  0.00  0.00    +0.000 N 
ATOM     24  H   UNL     1       1.241   7.780  19.615  0.00  0.00    +0.000 HD
BRANCH  23  25
ATOM     25  C   UNL     1       1.688   9.201  18.085  0.00  0.00    +0.000 C 
BRANCH  25  26
ATOM     26  C   UNL     1       0.490   9.987  18.552  0.00  0.00    +0.000 A 
ATOM     27  C   UNL     1       0.535  10.742  19.734  0.00  0.00    +0.000 A 
ATOM     28  C   UNL     1      -0.576  11.483  20.144  0.00  0.00    +0.000 A 
ATOM     29  C   UNL     1      -1.738  11.485  19.376  0.00  0.00    +0.000 A 
ATOM     30  C   UNL     1      -1.789  10.752  18.192  0.00  0.00    +0.000 A 
ATOM     31  C   UNL     1      -0.680  10.012  17.780  0.00  0.00    +0.000 A 
ENDBRANCH  25  26
ENDBRANCH  23  25
ENDBRANCH  20  21
ENDBRANCH  19  20
ENDBRANCH   1  19
TORSDOF 6
ENDMDL
MODEL 5
REMARK VINA RESULT:      -8.2      2.615      7.713
REMARK  Name = 
REMARK  7 active torsions:
REMARK  status: ('A' for Active; 'I' for Inactive)
REMARK    1  A    between atoms: C_1  and  N_2
REMARK    2  A    between atoms: N_2  and  C_3
REMARK    3  A    between atoms: N_2  and  S_14
REMARK    4  A    between atoms: C_3  and  C_4
REMARK    5  A    between atoms: N_6  and  C_7
REMARK    6  A    between atoms: C_7  and  C_8
REMARK    7  A    between atoms: S_14  and  C_17
REMARK                            x       y       z     vdW  Elec       q    Type
REMARK                         _______ _______ _______ _____ _____    ______ ____
ROOT
ATOM      1  S   UNL     1       3.595   3.464  18.817  0.00  0.00    +0.000 S 
ATOM      2  O   UNL     1       3.922   3.551  20.218  0.00  0.00    +0.000 OA
ATOM      3  O   UNL     1       3.228   2.196  18.206  0.00  0.00    +0.000 OA
ENDROOT
BRANCH   1   4
ATOM      4  C   UNL     1       4.965   4.152  17.924  0.00  0.00    +0.000 A 
ATOM      5  C   UNL     1       5.782   5.178  18.410  0.00  0.00    +0.000 A 
ATOM      6  C   UNL     1       6.772   5.762  17.585  0.00  0.00    +0.000 A 
ATOM      7  C   UNL     1       6.859   5.308  16.251  0.00  0.00    +0.000 A 
ATOM      8  N   UNL     1       7.650   5.690  15.176  0.00  0.00    +0.000 N 
ATOM      9  C   UNL     1       7.275   4.999  14.053  0.00  0.00    +0.000 A 
ATOM     10  C   UNL     1       6.250   4.159  14.401  0.00  0.00    +0.000 A 
ATOM     11  C   UNL     1       6.023   4.303  15.779  0.00  0.00    +0.000 A 
ATOM     12  C   UNL     1       5.104   3.685  16.624  0.00  0.00    +0.000 A 
ATOM     13  C   UNL     1       5.487   3.296  13.477  0.00  0.00    +0.000 C 
ATOM     14  C   UNL     1       5.795   3.571  12.011  0.00  0.00    +0.000 C 
ATOM     15  C   UNL     1       7.177   4.165  11.681  0.00  0.00    +0.000 C 
ATOM     16  C   UNL     1       7.820   5.159  12.679  0.00  0.00    +0.000 C 
ATOM     17  H   UNL     1       8.367   6.413  15.214  0.00  0.00    +0.000 HD
ENDBRANCH   1   4
BRANCH   1  19
ATOM     18  C   UNL     1       1.155   3.956  17.839  0.00  0.00    +0.000 C 
ATOM     19  N   UNL     1       2.327   4.598  18.493  0.00  0.00    +0.000 NA
BRANCH  19  20
ATOM     20  C   UNL     1       1.945   5.359  19.729  0.00  0.00    +0.000 C 
BRANCH  20  21
ATOM     21  C   UNL     1       2.130   6.872  19.656  0.00  0.00    +0.000 C 
ATOM     22  O   UNL     1       2.298   7.548  20.670  0.00  0.00    +0.000 OA
ATOM     23  N   UNL     1       2.148   7.410  18.389  0.00  0.00    +0.000 N 
ATOM     24  H   UNL     1       2.000   6.788  17.603  0.00  0.00    +0.000 HD
BRANCH  23  25
ATOM     25  C   UNL     1       2.278   8.834  18.148  0.00  0.00    +0.000 C 
BRANCH  25  26
ATOM     26  C   UNL     1       0.987   9.567  18.406  0.00  0.00    +0.000 A 
ATOM     27  C   UNL     1      -0.115   9.418  17.549  0.00  0.00    +0.000 A 
ATOM     28  C   UNL     1      -1.312  10.086  17.812  0.00  0.00    +0.000 A 
ATOM     29  C   UNL     1      -1.426  10.905  18.934  0.00  0.00    +0.000 A 
ATOM     30  C   UNL     1      -0.344  11.049  19.800  0.00  0.00    +0.000 A 
ATOM     31  C   UNL     1       0.853  10.380  19.541  0.00  0.00    +0.000 A 
ENDBRANCH  25  26
ENDBRANCH  23  25
ENDBRANCH  20  21
ENDBRANCH  19  20
ENDBRANCH   1  19
TORSDOF 6
ENDMDL
MODEL 6
REMARK VINA RESULT:      -8.1      2.968      8.190
REMARK  Name = 
REMARK  7 active torsions:
REMARK  status: ('A' for Active; 'I' for Inactive)
REMARK    1  A    between atoms: C_1  and  N_2
REMARK    2  A    between atoms: N_2  and  C_3
REMARK    3  A    between atoms: N_2  and  S_14
REMARK    4  A    between atoms: C_3  and  C_4
REMARK    5  A    between atoms: N_6  and  C_7
REMARK    6  A    between atoms: C_7  and  C_8
REMARK    7  A    between atoms: S_14  and  C_17
REMARK                            x       y       z     vdW  Elec       q    Type
REMARK                         _______ _______ _______ _____ _____    ______ ____
ROOT
ATOM      1  S   UNL     1       3.883   4.381  18.914  0.00  0.00    +0.000 S 
ATOM      2  O   UNL     1       4.245   4.894  20.211  0.00  0.00    +0.000 OA
ATOM      3  O   UNL     1       3.505   2.988  18.734  0.00  0.00    +0.000 OA
ENDROOT
BRANCH   1   4
ATOM      4  C   UNL     1       5.229   4.754  17.819  0.00  0.00    +0.000 A 
ATOM      5  C   UNL     1       6.218   5.704  18.088  0.00  0.00    +0.000 A 
ATOM      6  C   UNL     1       7.182   6.037  17.108  0.00  0.00    +0.000 A 
ATOM      7  C   UNL     1       7.068   5.419  15.844  0.00  0.00    +0.000 A 
ATOM      8  N   UNL     1       7.782   5.552  14.662  0.00  0.00    +0.000 N 
ATOM      9  C   UNL     1       7.203   4.791  13.679  0.00  0.00    +0.000 A 
ATOM     10  C   UNL     1       6.120   4.154  14.226  0.00  0.00    +0.000 A 
ATOM     11  C   UNL     1       6.062   4.493  15.587  0.00  0.00    +0.000 A 
ATOM     12  C   UNL     1       5.165   4.119  16.586  0.00  0.00    +0.000 A 
ATOM     13  C   UNL     1       5.157   3.304  13.497  0.00  0.00    +0.000 C 
ATOM     14  C   UNL     1       5.340   3.354  11.986  0.00  0.00    +0.000 C 
ATOM     15  C   UNL     1       6.745   3.701  11.458  0.00  0.00    +0.000 C 
ATOM     16  C   UNL     1       7.614   4.706  12.253  0.00  0.00    +0.000 C 
ATOM     17  H   UNL     1       8.587   6.164  14.539  0.00  0.00    +0.000 HD
ENDBRANCH   1   4
BRANCH   1  19
ATOM     18  C   UNL     1       1.444   4.552  17.832  0.00  0.00    +0.000 C 
ATOM     19  N   UNL     1       2.603   5.365  18.288  0.00  0.00    +0.000 NA
BRANCH  19  20
ATOM     20  C   UNL     1       2.205   6.431  19.266  0.00  0.00    +0.000 C 
BRANCH  20  21
ATOM     21  C   UNL     1       2.194   7.857  18.721  0.00  0.00    +0.000 C 
ATOM     22  O   UNL     1       2.784   8.151  17.682  0.00  0.00    +0.000 OA
ATOM     23  N   UNL     1       1.445   8.763  19.437  0.00  0.00    +0.000 N 
ATOM     24  H   UNL     1       0.990   8.445  20.284  0.00  0.00    +0.000 HD
BRANCH  23  25
ATOM     25  C   UNL     1       1.361  10.164  19.073  0.00  0.00    +0.000 C 
BRANCH  25  26
ATOM     26  C   UNL     1      -0.006  10.527  18.552  0.00  0.00    +0.000 A 
ATOM     27  C   UNL     1      -0.610  11.748  18.891  0.00  0.00    +0.000 A 
ATOM     28  C   UNL     1      -1.868  12.081  18.383  0.00  0.00    +0.000 A 
ATOM     29  C   UNL     1      -2.532  11.204  17.528  0.00  0.00    +0.000 A 
ATOM     30  C   UNL     1      -1.936   9.996  17.173  0.00  0.00    +0.000 A 
ATOM     31  C   UNL     1      -0.678   9.662  17.677  0.00  0.00    +0.000 A 
ENDBRANCH  25  26
ENDBRANCH  23  25
ENDBRANCH  20  21
ENDBRANCH  19  20
ENDBRANCH   1  19
TORSDOF 6
ENDMDL
MODEL 7
REMARK VINA RESULT:      -8.1      4.437      9.454
REMARK  Name = 
REMARK  7 active torsions:
REMARK  status: ('A' for Active; 'I' for Inactive)
REMARK    1  A    between atoms: C_1  and  N_2
REMARK    2  A    between atoms: N_2  and  C_3
REMARK    3  A    between atoms: N_2  and  S_14
REMARK    4  A    between atoms: C_3  and  C_4
REMARK    5  A    between atoms: N_6  and  C_7
REMARK    6  A    between atoms: C_7  and  C_8
REMARK    7  A    between atoms: S_14  and  C_17
REMARK                            x       y       z     vdW  Elec       q    Type
REMARK                         _______ _______ _______ _____ _____    ______ ____
ROOT
ATOM      1  S   UNL     1       0.438   9.974  20.604  0.00  0.00    +0.000 S 
ATOM      2  O   UNL     1       1.288  10.778  21.445  0.00  0.00    +0.000 OA
ATOM      3  O   UNL     1      -0.668   9.210  21.160  0.00  0.00    +0.000 OA
ENDROOT
BRANCH   1   4
ATOM      4  C   UNL     1       1.498   8.871  19.704  0.00  0.00    +0.000 A 
ATOM      5  C   UNL     1       1.955   9.110  18.404  0.00  0.00    +0.000 A 
ATOM      6  C   UNL     1       2.689   8.122  17.706  0.00  0.00    +0.000 A 
ATOM      7  C   UNL     1       2.888   6.881  18.350  0.00  0.00    +0.000 A 
ATOM      8  N   UNL     1       3.491   5.698  17.949  0.00  0.00    +0.000 N 
ATOM      9  C   UNL     1       3.332   4.741  18.918  0.00  0.00    +0.000 A 
ATOM     10  C   UNL     1       2.636   5.307  19.954  0.00  0.00    +0.000 A 
ATOM     11  C   UNL     1       2.405   6.654  19.635  0.00  0.00    +0.000 A 
ATOM     12  C   UNL     1       1.749   7.662  20.338  0.00  0.00    +0.000 A 
ATOM     13  C   UNL     1       2.168   4.606  21.167  0.00  0.00    +0.000 C 
ATOM     14  C   UNL     1       2.340   3.095  21.087  0.00  0.00    +0.000 C 
ATOM     15  C   UNL     1       3.454   2.560  20.166  0.00  0.00    +0.000 C 
ATOM     16  C   UNL     1       3.767   3.322  18.855  0.00  0.00    +0.000 C 
ATOM     17  H   UNL     1       3.942   5.556  17.046  0.00  0.00    +0.000 HD
ENDBRANCH   1   4
BRANCH   1  19
ATOM     18  C   UNL     1      -1.358  10.375  18.663  0.00  0.00    +0.000 C 
ATOM     19  N   UNL     1      -0.194  10.992  19.354  0.00  0.00    +0.000 NA
BRANCH  19  20
ATOM     20  C   UNL     1      -0.501  12.368  19.872  0.00  0.00    +0.000 C 
BRANCH  20  21
ATOM     21  C   UNL     1      -1.824  12.512  20.618  0.00  0.00    +0.000 C 
ATOM     22  O   UNL     1      -1.965  12.089  21.765  0.00  0.00    +0.000 OA
ATOM     23  N   UNL     1      -2.818  13.186  19.945  0.00  0.00    +0.000 N 
ATOM     24  H   UNL     1      -2.627  13.503  19.002  0.00  0.00    +0.000 HD
BRANCH  23  25
ATOM     25  C   UNL     1      -4.144  13.377  20.499  0.00  0.00    +0.000 C 
BRANCH  25  26
ATOM     26  C   UNL     1      -5.135  12.393  19.933  0.00  0.00    +0.000 A 
ATOM     27  C   UNL     1      -6.254  11.984  20.675  0.00  0.00    +0.000 A 
ATOM     28  C   UNL     1      -7.177  11.088  20.130  0.00  0.00    +0.000 A 
ATOM     29  C   UNL     1      -6.996  10.596  18.839  0.00  0.00    +0.000 A 
ATOM     30  C   UNL     1      -5.897  11.006  18.087  0.00  0.00    +0.000 A 
ATOM     31  C   UNL     1      -4.975  11.903  18.629  0.00  0.00    +0.000 A 
ENDBRANCH  25  26
ENDBRANCH  23  25
ENDBRANCH  20  21
ENDBRANCH  19  20
ENDBRANCH   1  19
TORSDOF 6
ENDMDL
MODEL 8
REMARK VINA RESULT:      -8.0      2.428      7.233
REMARK  Name = 
REMARK  7 active torsions:
REMARK  status: ('A' for Active; 'I' for Inactive)
REMARK    1  A    between atoms: C_1  and  N_2
REMARK    2  A    between atoms: N_2  and  C_3
REMARK    3  A    between atoms: N_2  and  S_14
REMARK    4  A    between atoms: C_3  and  C_4
REMARK    5  A    between atoms: N_6  and  C_7
REMARK    6  A    between atoms: C_7  and  C_8
REMARK    7  A    between atoms: S_14  and  C_17
REMARK                            x       y       z     vdW  Elec       q    Type
REMARK                         _______ _______ _______ _____ _____    ______ ____
ROOT
ATOM      1  S   UNL     1       2.546   3.223  18.000  0.00  0.00    +0.000 S 
ATOM      2  O   UNL     1       2.245   2.175  17.058  0.00  0.00    +0.000 OA
ATOM      3  O   UNL     1       1.579   4.266  18.302  0.00  0.00    +0.000 OA
ENDROOT
BRANCH   1   4
ATOM      4  C   UNL     1       4.056   3.983  17.461  0.00  0.00    +0.000 A 
ATOM      5  C   UNL     1       4.715   4.999  18.159  0.00  0.00    +0.000 A 
ATOM      6  C   UNL     1       5.842   5.644  17.598  0.00  0.00    +0.000 A 
ATOM      7  C   UNL     1       6.233   5.260  16.297  0.00  0.00    +0.000 A 
ATOM      8  N   UNL     1       7.226   5.712  15.440  0.00  0.00    +0.000 N 
ATOM      9  C   UNL     1       7.126   5.071  14.231  0.00  0.00    +0.000 A 
ATOM     10  C   UNL     1       6.077   4.194  14.308  0.00  0.00    +0.000 A 
ATOM     11  C   UNL     1       5.550   4.263  15.608  0.00  0.00    +0.000 A 
ATOM     12  C   UNL     1       4.489   3.585  16.203  0.00  0.00    +0.000 A 
ATOM     13  C   UNL     1       5.561   3.363  13.202  0.00  0.00    +0.000 C 
ATOM     14  C   UNL     1       6.171   3.719  11.853  0.00  0.00    +0.000 C 
ATOM     15  C   UNL     1       7.574   4.356  11.861  0.00  0.00    +0.000 C 
ATOM     16  C   UNL     1       7.952   5.312  13.019  0.00  0.00    +0.000 C 
ATOM     17  H   UNL     1       7.895   6.446  15.666  0.00  0.00    +0.000 HD
ENDBRANCH   1   4
BRANCH   1  19
ATOM     18  C   UNL     1       4.117   1.502  19.314  0.00  0.00    +0.000 C 
ATOM     19  N   UNL     1       3.011   2.480  19.494  0.00  0.00    +0.000 NA
BRANCH  19  20
ATOM     20  C   UNL     1       3.324   3.509  20.542  0.00  0.00    +0.000 C 
BRANCH  20  21
ATOM     21  C   UNL     1       2.199   4.489  20.862  0.00  0.00    +0.000 C 
ATOM     22  O   UNL     1       1.092   4.098  21.228  0.00  0.00    +0.000 OA
ATOM     23  N   UNL     1       2.524   5.823  20.763  0.00  0.00    +0.000 N 
ATOM     24  H   UNL     1       3.457   6.066  20.452  0.00  0.00    +0.000 HD
BRANCH  23  25
ATOM     25  C   UNL     1       1.560   6.880  20.998  0.00  0.00    +0.000 C 
BRANCH  25  26
ATOM     26  C   UNL     1       1.618   7.940  19.928  0.00  0.00    +0.000 A 
ATOM     27  C   UNL     1       1.013   9.193  20.116  0.00  0.00    +0.000 A 
ATOM     28  C   UNL     1       1.093  10.174  19.126  0.00  0.00    +0.000 A 
ATOM     29  C   UNL     1       1.780   9.919  17.941  0.00  0.00    +0.000 A 
ATOM     30  C   UNL     1       2.397   8.685  17.749  0.00  0.00    +0.000 A 
ATOM     31  C   UNL     1       2.321   7.703  18.739  0.00  0.00    +0.000 A 
ENDBRANCH  25  26
ENDBRANCH  23  25
ENDBRANCH  20  21
ENDBRANCH  19  20
ENDBRANCH   1  19
TORSDOF 6
ENDMDL
MODEL 9
REMARK VINA RESULT:      -8.0      0.952      1.528
REMARK  Name = 
REMARK  7 active torsions:
REMARK  status: ('A' for Active; 'I' for Inactive)
REMARK    1  A    between atoms: C_1  and  N_2
REMARK    2  A    between atoms: N_2  and  C_3
REMARK    3  A    between atoms: N_2  and  S_14
REMARK    4  A    between atoms: C_3  and  C_4
REMARK    5  A    between atoms: N_6  and  C_7
REMARK    6  A    between atoms: C_7  and  C_8
REMARK    7  A    between atoms: S_14  and  C_17
REMARK                            x       y       z     vdW  Elec       q    Type
REMARK                         _______ _______ _______ _____ _____    ______ ____
ROOT
ATOM      1  S   UNL     1       2.045   3.585  20.819  0.00  0.00    +0.000 S 
ATOM      2  O   UNL     1       0.921   2.880  20.257  0.00  0.00    +0.000 OA
ATOM      3  O   UNL     1       2.263   3.633  22.257  0.00  0.00    +0.000 OA
ENDROOT
BRANCH   1   4
ATOM      4  C   UNL     1       1.976   5.245  20.196  0.00  0.00    +0.000 A 
ATOM      5  C   UNL     1       2.783   5.727  19.161  0.00  0.00    +0.000 A 
ATOM      6  C   UNL     1       2.760   7.097  18.809  0.00  0.00    +0.000 A 
ATOM      7  C   UNL     1       1.941   7.954  19.577  0.00  0.00    +0.000 A 
ATOM      8  N   UNL     1       1.728   9.324  19.553  0.00  0.00    +0.000 N 
ATOM      9  C   UNL     1       0.902   9.686  20.586  0.00  0.00    +0.000 A 
ATOM     10  C   UNL     1       0.568   8.549  21.273  0.00  0.00    +0.000 A 
ATOM     11  C   UNL     1       1.163   7.459  20.619  0.00  0.00    +0.000 A 
ATOM     12  C   UNL     1       1.139   6.096  20.904  0.00  0.00    +0.000 A 
ATOM     13  C   UNL     1      -0.233   8.491  22.512  0.00  0.00    +0.000 C 
ATOM     14  C   UNL     1      -0.501   9.863  23.116  0.00  0.00    +0.000 C 
ATOM     15  C   UNL     1      -0.498  11.068  22.155  0.00  0.00    +0.000 C 
ATOM     16  C   UNL     1       0.481  11.063  20.956  0.00  0.00    +0.000 C 
ATOM     17  H   UNL     1       2.164   9.966  18.891  0.00  0.00    +0.000 HD
ENDBRANCH   1   4
BRANCH   1  19
ATOM     18  C   UNL     1       4.179   1.979  20.954  0.00  0.00    +0.000 C 
ATOM     19  N   UNL     1       3.485   2.966  20.084  0.00  0.00    +0.000 NA
BRANCH  19  20
ATOM     20  C   UNL     1       3.209   2.423  18.712  0.00  0.00    +0.000 C 
BRANCH  20  21
ATOM     21  C   UNL     1       3.904   3.148  17.562  0.00  0.00    +0.000 C 
ATOM     22  O   UNL     1       3.312   3.410  16.517  0.00  0.00    +0.000 OA
ATOM     23  N   UNL     1       5.206   3.527  17.798  0.00  0.00    +0.000 N 
ATOM     24  H   UNL     1       5.626   3.273  18.684  0.00  0.00    +0.000 HD
BRANCH  23  25
ATOM     25  C   UNL     1       6.017   4.192  16.797  0.00  0.00    +0.000 C 
BRANCH  25  26
ATOM     26  C   UNL     1       6.733   5.392  17.361  0.00  0.00    +0.000 A 
ATOM     27  C   UNL     1       7.573   5.276  18.478  0.00  0.00    +0.000 A 
ATOM     28  C   UNL     1       8.247   6.393  18.978  0.00  0.00    +0.000 A 
ATOM     29  C   UNL     1       8.095   7.634  18.365  0.00  0.00    +0.000 A 
ATOM     30  C   UNL     1       7.275   7.760  17.245  0.00  0.00    +0.000 A 
ATOM     31  C   UNL     1       6.602   6.644  16.743  0.00  0.00    +0.000 A 
ENDBRANCH  25  26
ENDBRANCH  23  25
ENDBRANCH  20  21
ENDBRANCH  19  20
ENDBRANCH   1  19
TORSDOF 6
ENDMDL
