MODEL 1
REMARK VINA RESULT:      -7.0      0.000      0.000
REMARK  Name = 
REMARK  3 active torsions:
REMARK  status: ('A' for Active; 'I' for Inactive)
REMARK    1  A    between atoms: C_1  and  N_2
REMARK    2  A    between atoms: N_5  and  S_6
REMARK    3  A    between atoms: S_6  and  C_9
REMARK                            x       y       z     vdW  Elec       q    Type
REMARK                         _______ _______ _______ _____ _____    ______ ____
ROOT
ATOM      1  C   UNL     1       1.371   3.390  18.947  0.00  0.00    +0.000 C 
ATOM      2  N   UNL     1       2.667   3.934  18.581  0.00  0.00    +0.000 N 
ATOM      3  C   UNL     1       3.808   3.041  18.412  0.00  0.00    +0.000 C 
ATOM      4  C   UNL     1       5.055   3.644  19.051  0.00  0.00    +0.000 C 
ATOM      5  N   UNL     1       5.346   5.003  18.512  0.00  0.00    +0.000 N 
ATOM      6  C   UNL     1       4.188   5.828  18.180  0.00  0.00    +0.000 A 
ATOM      7  C   UNL     1       4.285   7.195  17.906  0.00  0.00    +0.000 A 
ATOM      8  N   UNL     1       3.237   8.020  17.660  0.00  0.00    +0.000 NA
ATOM      9  C   UNL     1       2.014   7.477  17.751  0.00  0.00    +0.000 A 
ATOM     10  C   UNL     1       1.790   6.146  18.066  0.00  0.00    +0.000 A 
ATOM     11  C   UNL     1       2.875   5.282  18.277  0.00  0.00    +0.000 A 
ENDROOT
BRANCH   5  12
ATOM     12  S   UNL     1       6.876   5.266  17.839  0.00  0.00    +0.000 S 
ATOM     13  O   UNL     1       7.171   6.680  17.781  0.00  0.00    +0.000 OA
ATOM     14  O   UNL     1       7.819   4.364  18.472  0.00  0.00    +0.000 OA
BRANCH  12  15
ATOM     15  C   UNL     1       6.702   4.715  16.150  0.00  0.00    +0.000 A 
ATOM     16  C   UNL     1       5.694   3.800  15.825  0.00  0.00    +0.000 A 
ATOM     17  C   UNL     1       5.511   3.414  14.496  0.00  0.00    +0.000 A 
ATOM     18  C   UNL     1       6.314   3.960  13.490  0.00  0.00    +0.000 A 
ATOM     19 CL   UNL     1       6.042   3.427  11.869  0.00  0.00    +0.000 Cl
ATOM     20  C   UNL     1       7.291   4.910  13.815  0.00  0.00    +0.000 A 
ATOM     21 CL   UNL     1       8.287   5.657  12.616  0.00  0.00    +0.000 Cl
ATOM     22  C   UNL     1       7.484   5.293  15.146  0.00  0.00    +0.000 A 
ENDBRANCH  12  15
ENDBRANCH   5  12
TORSDOF 2
ENDMDL
MODEL 2
REMARK VINA RESULT:      -7.0      1.492      2.818
REMARK  Name = 
REMARK  3 active torsions:
REMARK  status: ('A' for Active; 'I' for Inactive)
REMARK    1  A    between atoms: C_1  and  N_2
REMARK    2  A    between atoms: N_5  and  S_6
REMARK    3  A    between atoms: S_6  and  C_9
REMARK                            x       y       z     vdW  Elec       q    Type
REMARK                         _______ _______ _______ _____ _____    ______ ____
ROOT
ATOM      1  C   UNL     1       0.745   5.074  20.468  0.00  0.00    +0.000 C 
ATOM      2  N   UNL     1       2.085   5.157  19.914  0.00  0.00    +0.000 N 
ATOM      3  C   UNL     1       2.542   6.399  19.299  0.00  0.00    +0.000 C 
ATOM      4  C   UNL     1       3.302   6.106  18.010  0.00  0.00    +0.000 C 
ATOM      5  N   UNL     1       4.437   5.168  18.242  0.00  0.00    +0.000 N 
ATOM      6  C   UNL     1       4.223   4.133  19.250  0.00  0.00    +0.000 A 
ATOM      7  C   UNL     1       5.079   3.039  19.405  0.00  0.00    +0.000 A 
ATOM      8  N   UNL     1       4.891   2.016  20.276  0.00  0.00    +0.000 NA
ATOM      9  C   UNL     1       3.757   2.042  20.993  0.00  0.00    +0.000 A 
ATOM     10  C   UNL     1       2.809   3.047  20.889  0.00  0.00    +0.000 A 
ATOM     11  C   UNL     1       3.025   4.128  20.020  0.00  0.00    +0.000 A 
ENDROOT
BRANCH   5  12
ATOM     12  S   UNL     1       5.980   5.675  17.769  0.00  0.00    +0.000 S 
ATOM     13  O   UNL     1       6.017   7.111  17.604  0.00  0.00    +0.000 OA
ATOM     14  O   UNL     1       6.959   5.028  18.620  0.00  0.00    +0.000 OA
BRANCH  12  15
ATOM     15  C   UNL     1       6.181   4.973  16.140  0.00  0.00    +0.000 A 
ATOM     16  C   UNL     1       5.292   3.987  15.700  0.00  0.00    +0.000 A 
ATOM     17  C   UNL     1       5.403   3.479  14.405  0.00  0.00    +0.000 A 
ATOM     18  C   UNL     1       6.384   3.975  13.539  0.00  0.00    +0.000 A 
ATOM     19 CL   UNL     1       6.474   3.292  11.955  0.00  0.00    +0.000 Cl
ATOM     20  C   UNL     1       7.243   4.995  13.969  0.00  0.00    +0.000 A 
ATOM     21 CL   UNL     1       8.446   5.684  12.937  0.00  0.00    +0.000 Cl
ATOM     22  C   UNL     1       7.140   5.500  15.270  0.00  0.00    +0.000 A 
ENDBRANCH  12  15
ENDBRANCH   5  12
TORSDOF 2
ENDMDL
MODEL 3
REMARK VINA RESULT:      -7.0      4.038      6.167
REMARK  Name = 
REMARK  3 active torsions:
REMARK  status: ('A' for Active; 'I' for Inactive)
REMARK    1  A    between atoms: C_1  and  N_2
REMARK    2  A    between atoms: N_5  and  S_6
REMARK    3  A    between atoms: S_6  and  C_9
REMARK                            x       y       z     vdW  Elec       q    Type
REMARK                         _______ _______ _______ _____ _____    ______ ____
ROOT
ATOM      1  C   UNL     1       8.334   5.516  18.553  0.00  0.00    +0.000 C 
ATOM      2  N   UNL     1       6.943   5.152  18.345  0.00  0.00    +0.000 N 
ATOM      3  C   UNL     1       6.003   5.213  19.459  0.00  0.00    +0.000 C 
ATOM      4  C   UNL     1       5.094   3.988  19.456  0.00  0.00    +0.000 C 
ATOM      5  N   UNL     1       4.384   3.833  18.155  0.00  0.00    +0.000 N 
ATOM      6  C   UNL     1       5.127   4.232  16.962  0.00  0.00    +0.000 A 
ATOM      7  C   UNL     1       4.704   3.919  15.667  0.00  0.00    +0.000 A 
ATOM      8  N   UNL     1       5.388   4.203  14.531  0.00  0.00    +0.000 NA
ATOM      9  C   UNL     1       6.592   4.774  14.685  0.00  0.00    +0.000 A 
ATOM     10  C   UNL     1       7.139   5.085  15.920  0.00  0.00    +0.000 A 
ATOM     11  C   UNL     1       6.412   4.831  17.093  0.00  0.00    +0.000 A 
ENDROOT
BRANCH   5  12
ATOM     12  S   UNL     1       2.694   3.751  18.192  0.00  0.00    +0.000 S 
ATOM     13  O   UNL     1       2.155   3.745  16.850  0.00  0.00    +0.000 OA
ATOM     14  O   UNL     1       2.303   2.711  19.123  0.00  0.00    +0.000 OA
BRANCH  12  15
ATOM     15  C   UNL     1       2.205   5.302  18.928  0.00  0.00    +0.000 A 
ATOM     16  C   UNL     1       1.769   5.326  20.257  0.00  0.00    +0.000 A 
ATOM     17  C   UNL     1       1.446   6.543  20.859  0.00  0.00    +0.000 A 
ATOM     18  C   UNL     1       1.583   7.737  20.145  0.00  0.00    +0.000 A 
ATOM     19 CL   UNL     1       1.153   9.205  20.947  0.00  0.00    +0.000 Cl
ATOM     20  C   UNL     1       2.064   7.712  18.828  0.00  0.00    +0.000 A 
ATOM     21 CL   UNL     1       2.299   9.154  17.905  0.00  0.00    +0.000 Cl
ATOM     22  C   UNL     1       2.380   6.494  18.218  0.00  0.00    +0.000 A 
ENDBRANCH  12  15
ENDBRANCH   5  12
TORSDOF 2
ENDMDL
MODEL 4
REMARK VINA RESULT:      -6.8      7.572     10.152
REMARK  Name = 
REMARK  3 active torsions:
REMARK  status: ('A' for Active; 'I' for Inactive)
REMARK    1  A    between atoms: C_1  and  N_2
REMARK    2  A    between atoms: N_5  and  S_6
REMARK    3  A    between atoms: S_6  and  C_9
REMARK                            x       y       z     vdW  Elec       q    Type
REMARK                         _______ _______ _______ _____ _____    ______ ____
ROOT
ATOM      1  C   UNL     1       2.031   7.631  19.717  0.00  0.00    +0.000 C 
ATOM      2  N   UNL     1       1.377   8.928  19.698  0.00  0.00    +0.000 N 
ATOM      3  C   UNL     1       1.210   9.638  18.435  0.00  0.00    +0.000 C 
ATOM      4  C   UNL     1       1.528  11.120  18.612  0.00  0.00    +0.000 C 
ATOM      5  N   UNL     1       0.704  11.734  19.691  0.00  0.00    +0.000 N 
ATOM      6  C   UNL     1       0.400  10.880  20.836  0.00  0.00    +0.000 A 
ATOM      7  C   UNL     1      -0.139  11.374  22.028  0.00  0.00    +0.000 A 
ATOM      8  N   UNL     1      -0.376  10.639  23.143  0.00  0.00    +0.000 NA
ATOM      9  C   UNL     1       0.000   9.352  23.102  0.00  0.00    +0.000 A 
ATOM     10  C   UNL     1       0.591   8.762  21.996  0.00  0.00    +0.000 A 
ATOM     11  C   UNL     1       0.796   9.511  20.827  0.00  0.00    +0.000 A 
ENDROOT
BRANCH   5  12
ATOM     12  S   UNL     1      -0.230  13.086  19.289  0.00  0.00    +0.000 S 
ATOM     13  O   UNL     1      -0.388  13.955  20.434  0.00  0.00    +0.000 OA
ATOM     14  O   UNL     1       0.264  13.632  18.040  0.00  0.00    +0.000 OA
BRANCH  12  15
ATOM     15  C   UNL     1      -1.844  12.406  18.944  0.00  0.00    +0.000 A 
ATOM     16  C   UNL     1      -2.903  12.669  19.818  0.00  0.00    +0.000 A 
ATOM     17  C   UNL     1      -4.182  12.194  19.521  0.00  0.00    +0.000 A 
ATOM     18  C   UNL     1      -4.408  11.481  18.339  0.00  0.00    +0.000 A 
ATOM     19 CL   UNL     1      -6.012  10.912  18.042  0.00  0.00    +0.000 Cl
ATOM     20  C   UNL     1      -3.353  11.259  17.445  0.00  0.00    +0.000 A 
ATOM     21 CL   UNL     1      -3.573  10.425  15.948  0.00  0.00    +0.000 Cl
ATOM     22  C   UNL     1      -2.068  11.725  17.743  0.00  0.00    +0.000 A 
ENDBRANCH  12  15
ENDBRANCH   5  12
TORSDOF 2
ENDMDL
MODEL 5
REMARK VINA RESULT:      -6.7      4.149      6.390
REMARK  Name = 
REMARK  3 active torsions:
REMARK  status: ('A' for Active; 'I' for Inactive)
REMARK    1  A    between atoms: C_1  and  N_2
REMARK    2  A    between atoms: N_5  and  S_6
REMARK    3  A    between atoms: S_6  and  C_9
REMARK                            x       y       z     vdW  Elec       q    Type
REMARK                         _______ _______ _______ _____ _____    ______ ____
ROOT
ATOM      1  C   UNL     1       7.459   4.599  14.741  0.00  0.00    +0.000 C 
ATOM      2  N   UNL     1       6.401   4.499  15.731  0.00  0.00    +0.000 N 
ATOM      3  C   UNL     1       5.103   3.951  15.354  0.00  0.00    +0.000 C 
ATOM      4  C   UNL     1       3.978   4.781  15.964  0.00  0.00    +0.000 C 
ATOM      5  N   UNL     1       4.112   4.886  17.444  0.00  0.00    +0.000 N 
ATOM      6  C   UNL     1       5.474   4.952  17.966  0.00  0.00    +0.000 A 
ATOM      7  C   UNL     1       5.762   5.300  19.289  0.00  0.00    +0.000 A 
ATOM      8  N   UNL     1       7.007   5.444  19.807  0.00  0.00    +0.000 NA
ATOM      9  C   UNL     1       8.031   5.297  18.952  0.00  0.00    +0.000 A 
ATOM     10  C   UNL     1       7.869   5.002  17.607  0.00  0.00    +0.000 A 
ATOM     11  C   UNL     1       6.582   4.810  17.082  0.00  0.00    +0.000 A 
ENDROOT
BRANCH   5  12
ATOM     12  S   UNL     1       2.798   4.386  18.385  0.00  0.00    +0.000 S 
ATOM     13  O   UNL     1       1.721   3.909  17.546  0.00  0.00    +0.000 OA
ATOM     14  O   UNL     1       3.294   3.545  19.458  0.00  0.00    +0.000 OA
BRANCH  12  15
ATOM     15  C   UNL     1       2.218   5.892  19.147  0.00  0.00    +0.000 A 
ATOM     16  C   UNL     1       1.802   5.872  20.483  0.00  0.00    +0.000 A 
ATOM     17  C   UNL     1       1.408   7.058  21.104  0.00  0.00    +0.000 A 
ATOM     18  C   UNL     1       1.454   8.267  20.402  0.00  0.00    +0.000 A 
ATOM     19 CL   UNL     1       0.939   9.694  21.228  0.00  0.00    +0.000 Cl
ATOM     20  C   UNL     1       1.915   8.288  19.079  0.00  0.00    +0.000 A 
ATOM     21 CL   UNL     1       2.040   9.753  18.169  0.00  0.00    +0.000 Cl
ATOM     22  C   UNL     1       2.302   7.101  18.449  0.00  0.00    +0.000 A 
ENDBRANCH  12  15
ENDBRANCH   5  12
TORSDOF 2
ENDMDL
MODEL 6
REMARK VINA RESULT:      -6.6      7.984     10.479
REMARK  Name = 
REMARK  3 active torsions:
REMARK  status: ('A' for Active; 'I' for Inactive)
REMARK    1  A    between atoms: C_1  and  N_2
REMARK    2  A    between atoms: N_5  and  S_6
REMARK    3  A    between atoms: S_6  and  C_9
REMARK                            x       y       z     vdW  Elec       q    Type
REMARK                         _______ _______ _______ _____ _____    ______ ____
ROOT
ATOM      1  C   UNL     1       1.988   7.735  19.634  0.00  0.00    +0.000 C 
ATOM      2  N   UNL     1       1.368   9.048  19.670  0.00  0.00    +0.000 N 
ATOM      3  C   UNL     1       1.254   9.832  18.445  0.00  0.00    +0.000 C 
ATOM      4  C   UNL     1       1.604  11.292  18.713  0.00  0.00    +0.000 C 
ATOM      5  N   UNL     1       0.767  11.867  19.803  0.00  0.00    +0.000 N 
ATOM      6  C   UNL     1       0.410  10.959  20.891  0.00  0.00    +0.000 A 
ATOM      7  C   UNL     1      -0.149  11.401  22.093  0.00  0.00    +0.000 A 
ATOM      8  N   UNL     1      -0.435  10.612  23.159  0.00  0.00    +0.000 NA
ATOM      9  C   UNL     1      -0.091   9.320  23.056  0.00  0.00    +0.000 A 
ATOM     10  C   UNL     1       0.515   8.776  21.934  0.00  0.00    +0.000 A 
ATOM     11  C   UNL     1       0.771   9.583  20.815  0.00  0.00    +0.000 A 
ENDROOT
BRANCH   5  12
ATOM     12  S   UNL     1      -0.121  13.264  19.454  0.00  0.00    +0.000 S 
ATOM     13  O   UNL     1      -0.261  14.088  20.634  0.00  0.00    +0.000 OA
ATOM     14  O   UNL     1       0.399  13.848  18.233  0.00  0.00    +0.000 OA
BRANCH  12  15
ATOM     15  C   UNL     1      -1.752  12.651  19.068  0.00  0.00    +0.000 A 
ATOM     16  C   UNL     1      -1.944  11.882  17.915  0.00  0.00    +0.000 A 
ATOM     17  C   UNL     1      -3.203  11.346  17.641  0.00  0.00    +0.000 A 
ATOM     18  C   UNL     1      -4.263  11.552  18.530  0.00  0.00    +0.000 A 
ATOM     19 CL   UNL     1      -5.796  10.871  18.121  0.00  0.00    +0.000 Cl
ATOM     20  C   UNL     1      -4.054  12.284  19.707  0.00  0.00    +0.000 A 
ATOM     21 CL   UNL     1      -5.307  12.539  20.869  0.00  0.00    +0.000 Cl
ATOM     22  C   UNL     1      -2.796  12.832  19.981  0.00  0.00    +0.000 A 
ENDBRANCH  12  15
ENDBRANCH   5  12
TORSDOF 2
ENDMDL
MODEL 7
REMARK VINA RESULT:      -6.5      6.524      8.656
REMARK  Name = 
REMARK  3 active torsions:
REMARK  status: ('A' for Active; 'I' for Inactive)
REMARK    1  A    between atoms: C_1  and  N_2
REMARK    2  A    between atoms: N_5  and  S_6
REMARK    3  A    between atoms: S_6  and  C_9
REMARK                            x       y       z     vdW  Elec       q    Type
REMARK                         _______ _______ _______ _____ _____    ______ ____
ROOT
ATOM      1  C   UNL     1      -4.710  11.262  17.211  0.00  0.00    +0.000 C 
ATOM      2  N   UNL     1      -3.411  11.328  17.857  0.00  0.00    +0.000 N 
ATOM      3  C   UNL     1      -2.220  10.889  17.139  0.00  0.00    +0.000 C 
ATOM      4  C   UNL     1      -1.317  10.070  18.056  0.00  0.00    +0.000 C 
ATOM      5  N   UNL     1      -0.958  10.823  19.290  0.00  0.00    +0.000 N 
ATOM      6  C   UNL     1      -1.988  11.708  19.829  0.00  0.00    +0.000 A 
ATOM      7  C   UNL     1      -1.903  12.283  21.101  0.00  0.00    +0.000 A 
ATOM      8  N   UNL     1      -2.859  13.054  21.676  0.00  0.00    +0.000 NA
ATOM      9  C   UNL     1      -3.995  13.215  20.981  0.00  0.00    +0.000 A 
ATOM     10  C   UNL     1      -4.216  12.652  19.734  0.00  0.00    +0.000 A 
ATOM     11  C   UNL     1      -3.210  11.891  19.120  0.00  0.00    +0.000 A 
ENDROOT
BRANCH   5  12
ATOM     12  S   UNL     1       0.686  11.023  19.635  0.00  0.00    +0.000 S 
ATOM     13  O   UNL     1       1.264  12.042  18.787  0.00  0.00    +0.000 OA
ATOM     14  O   UNL     1       0.848  11.112  21.073  0.00  0.00    +0.000 OA
BRANCH  12  15
ATOM     15  C   UNL     1       1.420   9.473  19.137  0.00  0.00    +0.000 A 
ATOM     16  C   UNL     1       2.143   9.407  17.941  0.00  0.00    +0.000 A 
ATOM     17  C   UNL     1       2.773   8.216  17.577  0.00  0.00    +0.000 A 
ATOM     18  C   UNL     1       2.705   7.101  18.418  0.00  0.00    +0.000 A 
ATOM     19 CL   UNL     1       3.496   5.656  17.898  0.00  0.00    +0.000 Cl
ATOM     20  C   UNL     1       2.017   7.186  19.636  0.00  0.00    +0.000 A 
ATOM     21 CL   UNL     1       1.932   5.861  20.742  0.00  0.00    +0.000 Cl
ATOM     22  C   UNL     1       1.377   8.375  20.000  0.00  0.00    +0.000 A 
ENDBRANCH  12  15
ENDBRANCH   5  12
TORSDOF 2
ENDMDL
MODEL 8
REMARK VINA RESULT:      -6.5      1.312      2.665
REMARK  Name = 
REMARK  3 active torsions:
REMARK  status: ('A' for Active; 'I' for Inactive)
REMARK    1  A    between atoms: C_1  and  N_2
REMARK    2  A    between atoms: N_5  and  S_6
REMARK    3  A    between atoms: S_6  and  C_9
REMARK                            x       y       z     vdW  Elec       q    Type
REMARK                         _______ _______ _______ _____ _____    ______ ____
ROOT
ATOM      1  C   UNL     1       1.101   8.397  19.072  0.00  0.00    +0.000 C 
ATOM      2  N   UNL     1       2.323   7.632  18.901  0.00  0.00    +0.000 N 
ATOM      3  C   UNL     1       3.444   8.208  18.166  0.00  0.00    +0.000 C 
ATOM      4  C   UNL     1       4.062   7.167  17.237  0.00  0.00    +0.000 C 
ATOM      5  N   UNL     1       4.474   5.943  17.980  0.00  0.00    +0.000 N 
ATOM      6  C   UNL     1       3.623   5.551  19.101  0.00  0.00    +0.000 A 
ATOM      7  C   UNL     1       3.727   4.308  19.732  0.00  0.00    +0.000 A 
ATOM      8  N   UNL     1       2.921   3.868  20.729  0.00  0.00    +0.000 NA
ATOM      9  C   UNL     1       1.911   4.677  21.083  0.00  0.00    +0.000 A 
ATOM     10  C   UNL     1       1.676   5.910  20.496  0.00  0.00    +0.000 A 
ATOM     11  C   UNL     1       2.537   6.385  19.494  0.00  0.00    +0.000 A 
ENDROOT
BRANCH   5  12
ATOM     12  S   UNL     1       6.086   5.450  17.843  0.00  0.00    +0.000 S 
ATOM     13  O   UNL     1       6.975   6.589  17.913  0.00  0.00    +0.000 OA
ATOM     14  O   UNL     1       6.300   4.321  18.728  0.00  0.00    +0.000 OA
BRANCH  12  15
ATOM     15  C   UNL     1       6.202   4.819  16.177  0.00  0.00    +0.000 A 
ATOM     16  C   UNL     1       5.266   3.879  15.731  0.00  0.00    +0.000 A 
ATOM     17  C   UNL     1       5.312   3.429  14.410  0.00  0.00    +0.000 A 
ATOM     18  C   UNL     1       6.272   3.936  13.529  0.00  0.00    +0.000 A 
ATOM     19 CL   UNL     1       6.279   3.324  11.914  0.00  0.00    +0.000 Cl
ATOM     20  C   UNL     1       7.178   4.910  13.969  0.00  0.00    +0.000 A 
ATOM     21 CL   UNL     1       8.361   5.610  12.921  0.00  0.00    +0.000 Cl
ATOM     22  C   UNL     1       7.142   5.357  15.294  0.00  0.00    +0.000 A 
ENDBRANCH  12  15
ENDBRANCH   5  12
TORSDOF 2
ENDMDL
MODEL 9
REMARK VINA RESULT:      -6.4      4.260      6.319
REMARK  Name = 
REMARK  3 active torsions:
REMARK  status: ('A' for Active; 'I' for Inactive)
REMARK    1  A    between atoms: C_1  and  N_2
REMARK    2  A    between atoms: N_5  and  S_6
REMARK    3  A    between atoms: S_6  and  C_9
REMARK                            x       y       z     vdW  Elec       q    Type
REMARK                         _______ _______ _______ _____ _____    ______ ____
ROOT
ATOM      1  C   UNL     1       8.368   5.245  18.716  0.00  0.00    +0.000 C 
ATOM      2  N   UNL     1       6.938   5.086  18.513  0.00  0.00    +0.000 N 
ATOM      3  C   UNL     1       6.018   5.314  19.622  0.00  0.00    +0.000 C 
ATOM      4  C   UNL     1       4.937   4.237  19.646  0.00  0.00    +0.000 C 
ATOM      5  N   UNL     1       4.211   4.158  18.347  0.00  0.00    +0.000 N 
ATOM      6  C   UNL     1       5.005   4.412  17.147  0.00  0.00    +0.000 A 
ATOM      7  C   UNL     1       4.540   4.133  15.859  0.00  0.00    +0.000 A 
ATOM      8  N   UNL     1       5.257   4.284  14.719  0.00  0.00    +0.000 NA
ATOM      9  C   UNL     1       6.533   4.674  14.862  0.00  0.00    +0.000 A 
ATOM     10  C   UNL     1       7.121   4.931  16.091  0.00  0.00    +0.000 A 
ATOM     11  C   UNL     1       6.365   4.817  17.267  0.00  0.00    +0.000 A 
ENDROOT
BRANCH   5  12
ATOM     12  S   UNL     1       2.529   4.328  18.380  0.00  0.00    +0.000 S 
ATOM     13  O   UNL     1       1.961   4.033  17.084  0.00  0.00    +0.000 OA
ATOM     14  O   UNL     1       2.019   3.648  19.555  0.00  0.00    +0.000 OA
BRANCH  12  15
ATOM     15  C   UNL     1       2.279   6.074  18.657  0.00  0.00    +0.000 A 
ATOM     16  C   UNL     1       2.293   6.952  17.568  0.00  0.00    +0.000 A 
ATOM     17  C   UNL     1       2.035   8.309  17.769  0.00  0.00    +0.000 A 
ATOM     18  C   UNL     1       1.737   8.785  19.049  0.00  0.00    +0.000 A 
ATOM     19 CL   UNL     1       1.442  10.478  19.227  0.00  0.00    +0.000 Cl
ATOM     20  C   UNL     1       1.680   7.894  20.129  0.00  0.00    +0.000 A 
ATOM     21 CL   UNL     1       1.274   8.408  21.728  0.00  0.00    +0.000 Cl
ATOM     22  C   UNL     1       1.947   6.535  19.934  0.00  0.00    +0.000 A 
ENDBRANCH  12  15
ENDBRANCH   5  12
TORSDOF 2
ENDMDL
