MODEL 1
REMARK VINA RESULT:      -7.0      0.000      0.000
REMARK  Name = 
REMARK  7 active torsions:
REMARK  status: ('A' for Active; 'I' for Inactive)
REMARK    1  A    between atoms: C_1  and  C_2
REMARK    2  A    between atoms: C_2  and  O_3
REMARK    3  A    between atoms: O_3  and  C_4
REMARK    4  A    between atoms: C_10  and  C_12
REMARK    5  A    between atoms: N_15  and  S_16
REMARK    6  A    between atoms: S_16  and  C_19
REMARK    7  A    between atoms: C_19  and  C_20
REMARK                            x       y       z     vdW  Elec       q    Type
REMARK                         _______ _______ _______ _____ _____    ______ ____
ROOT
ATOM      1  C   UNL     1      -0.009  10.577  22.290  0.00  0.00    +0.000 C 
ATOM      2  O   UNL     1      -0.137  10.168  23.437  0.00  0.00    +0.000 OA
ATOM      3  N   UNL     1       0.102   9.741  21.196  0.00  0.00    +0.000 N 
ATOM      4  C   UNL     1       0.417  10.158  19.826  0.00  0.00    +0.000 C 
ATOM      5  C   UNL     1       1.749   9.535  19.328  0.00  0.00    +0.000 C 
ATOM      6  N   UNL     1       1.867   8.093  19.660  0.00  0.00    +0.000 N 
ATOM      7  C   UNL     1       2.325   7.192  18.703  0.00  0.00    +0.000 C 
ATOM      8  O   UNL     1       2.648   7.570  17.574  0.00  0.00    +0.000 OA
ATOM      9  C   UNL     1       1.533   7.770  21.054  0.00  0.00    +0.000 C 
ATOM     10  C   UNL     1       0.145   8.304  21.416  0.00  0.00    +0.000 C 
ENDROOT
BRANCH   7  11
ATOM     11  C   UNL     1       2.350   5.689  19.062  0.00  0.00    +0.000 C 
ATOM     12  C   UNL     1       3.465   5.259  20.011  0.00  0.00    +0.000 C 
ATOM     13  C   UNL     1       4.847   5.221  19.375  0.00  0.00    +0.000 C 
ATOM     14  N   UNL     1       4.907   4.479  18.086  0.00  0.00    +0.000 NA
ATOM     15  C   UNL     1       3.762   4.735  17.153  0.00  0.00    +0.000 C 
ATOM     16  C   UNL     1       2.404   4.772  17.838  0.00  0.00    +0.000 C 
BRANCH  14  17
ATOM     17  S   UNL     1       6.410   4.727  17.240  0.00  0.00    +0.000 S 
ATOM     18  O   UNL     1       7.482   4.464  18.181  0.00  0.00    +0.000 OA
ATOM     19  O   UNL     1       6.325   4.011  15.987  0.00  0.00    +0.000 OA
BRANCH  17  20
ATOM     20  C   UNL     1       6.404   6.484  16.896  0.00  0.00    +0.000 C 
ATOM     21  C   UNL     1       7.550   7.168  17.626  0.00  0.00    +0.000 C 
ENDBRANCH  17  20
ENDBRANCH  14  17
ENDBRANCH   7  11
BRANCH   1  22
ATOM     22  O   UNL     1       0.048  11.898  21.965  0.00  0.00    +0.000 OA
BRANCH  22  24
ATOM     23  C   UNL     1      -2.058  12.785  21.127  0.00  0.00    +0.000 C 
ATOM     24  C   UNL     1      -1.118  12.667  22.313  0.00  0.00    +0.000 C 
ENDBRANCH  22  24
ENDBRANCH   1  22
TORSDOF 5
ENDMDL
MODEL 2
REMARK VINA RESULT:      -6.8      1.068      1.326
REMARK  Name = 
REMARK  7 active torsions:
REMARK  status: ('A' for Active; 'I' for Inactive)
REMARK    1  A    between atoms: C_1  and  C_2
REMARK    2  A    between atoms: C_2  and  O_3
REMARK    3  A    between atoms: O_3  and  C_4
REMARK    4  A    between atoms: C_10  and  C_12
REMARK    5  A    between atoms: N_15  and  S_16
REMARK    6  A    between atoms: S_16  and  C_19
REMARK    7  A    between atoms: C_19  and  C_20
REMARK                            x       y       z     vdW  Elec       q    Type
REMARK                         _______ _______ _______ _____ _____    ______ ____
ROOT
ATOM      1  C   UNL     1      -0.067  10.513  22.310  0.00  0.00    +0.000 C 
ATOM      2  O   UNL     1      -0.134  10.111  23.464  0.00  0.00    +0.000 OA
ATOM      3  N   UNL     1       0.062   9.672  21.221  0.00  0.00    +0.000 N 
ATOM      4  C   UNL     1       0.309  10.092  19.838  0.00  0.00    +0.000 C 
ATOM      5  C   UNL     1       1.660   9.546  19.305  0.00  0.00    +0.000 C 
ATOM      6  N   UNL     1       1.877   8.118  19.647  0.00  0.00    +0.000 N 
ATOM      7  C   UNL     1       2.360   7.235  18.685  0.00  0.00    +0.000 C 
ATOM      8  O   UNL     1       2.625   7.619  17.543  0.00  0.00    +0.000 OA
ATOM      9  C   UNL     1       1.606   7.792  21.053  0.00  0.00    +0.000 C 
ATOM     10  C   UNL     1       0.199   8.244  21.454  0.00  0.00    +0.000 C 
ENDROOT
BRANCH   7  11
ATOM     11  C   UNL     1       2.488   5.741  19.057  0.00  0.00    +0.000 C 
ATOM     12  C   UNL     1       3.719   5.373  19.881  0.00  0.00    +0.000 C 
ATOM     13  C   UNL     1       5.022   5.380  19.095  0.00  0.00    +0.000 C 
ATOM     14  N   UNL     1       4.969   4.619  17.817  0.00  0.00    +0.000 NA
ATOM     15  C   UNL     1       3.718   4.812  17.015  0.00  0.00    +0.000 C 
ATOM     16  C   UNL     1       2.444   4.806  17.847  0.00  0.00    +0.000 C 
BRANCH  14  17
ATOM     17  S   UNL     1       6.357   4.913  16.806  0.00  0.00    +0.000 S 
ATOM     18  O   UNL     1       6.283   6.292  16.362  0.00  0.00    +0.000 OA
ATOM     19  O   UNL     1       7.519   4.419  17.511  0.00  0.00    +0.000 OA
BRANCH  17  20
ATOM     20  C   UNL     1       6.061   3.865  15.385  0.00  0.00    +0.000 C 
ATOM     21  C   UNL     1       6.621   4.511  14.127  0.00  0.00    +0.000 C 
ENDBRANCH  17  20
ENDBRANCH  14  17
ENDBRANCH   7  11
BRANCH   1  22
ATOM     22  O   UNL     1      -0.101  11.831  21.970  0.00  0.00    +0.000 OA
BRANCH  22  24
ATOM     23  C   UNL     1      -2.230  12.673  21.143  0.00  0.00    +0.000 C 
ATOM     24  C   UNL     1      -1.305  12.529  22.339  0.00  0.00    +0.000 C 
ENDBRANCH  22  24
ENDBRANCH   1  22
TORSDOF 5
ENDMDL
MODEL 3
REMARK VINA RESULT:      -6.4      1.018      1.124
REMARK  Name = 
REMARK  7 active torsions:
REMARK  status: ('A' for Active; 'I' for Inactive)
REMARK    1  A    between atoms: C_1  and  C_2
REMARK    2  A    between atoms: C_2  and  O_3
REMARK    3  A    between atoms: O_3  and  C_4
REMARK    4  A    between atoms: C_10  and  C_12
REMARK    5  A    between atoms: N_15  and  S_16
REMARK    6  A    between atoms: S_16  and  C_19
REMARK    7  A    between atoms: C_19  and  C_20
REMARK                            x       y       z     vdW  Elec       q    Type
REMARK                         _______ _______ _______ _____ _____    ______ ____
ROOT
ATOM      1  C   UNL     1       0.166  10.596  21.462  0.00  0.00    +0.000 C 
ATOM      2  O   UNL     1       0.096  10.271  22.640  0.00  0.00    +0.000 OA
ATOM      3  N   UNL     1       0.336   9.690  20.434  0.00  0.00    +0.000 N 
ATOM      4  C   UNL     1       0.587  10.024  19.028  0.00  0.00    +0.000 C 
ATOM      5  C   UNL     1       1.962   9.490  18.548  0.00  0.00    +0.000 C 
ATOM      6  N   UNL     1       2.222   8.096  18.988  0.00  0.00    +0.000 N 
ATOM      7  C   UNL     1       2.746   7.167  18.092  0.00  0.00    +0.000 C 
ATOM      8  O   UNL     1       3.012   7.482  16.930  0.00  0.00    +0.000 OA
ATOM      9  C   UNL     1       1.943   7.855  20.410  0.00  0.00    +0.000 C 
ATOM     10  C   UNL     1       0.518   8.286  20.764  0.00  0.00    +0.000 C 
ENDROOT
BRANCH   7  11
ATOM     11  C   UNL     1       2.919   5.706  18.566  0.00  0.00    +0.000 C 
ATOM     12  C   UNL     1       3.930   5.496  19.690  0.00  0.00    +0.000 C 
ATOM     13  C   UNL     1       5.382   5.620  19.255  0.00  0.00    +0.000 C 
ATOM     14  N   UNL     1       5.730   4.822  18.048  0.00  0.00    +0.000 NA
ATOM     15  C   UNL     1       4.711   4.857  16.950  0.00  0.00    +0.000 C 
ATOM     16  C   UNL     1       3.274   4.739  17.436  0.00  0.00    +0.000 C 
BRANCH  14  17
ATOM     17  S   UNL     1       7.294   5.235  17.401  0.00  0.00    +0.000 S 
ATOM     18  O   UNL     1       8.182   4.123  17.679  0.00  0.00    +0.000 OA
ATOM     19  O   UNL     1       7.092   5.707  16.049  0.00  0.00    +0.000 OA
BRANCH  17  20
ATOM     20  C   UNL     1       7.809   6.614  18.417  0.00  0.00    +0.000 C 
ATOM     21  C   UNL     1       7.761   7.907  17.617  0.00  0.00    +0.000 C 
ENDBRANCH  17  20
ENDBRANCH  14  17
ENDBRANCH   7  11
BRANCH   1  22
ATOM     22  O   UNL     1       0.092  11.887  21.034  0.00  0.00    +0.000 OA
BRANCH  22  24
ATOM     23  C   UNL     1       0.343  14.135  21.934  0.00  0.00    +0.000 C 
ATOM     24  C   UNL     1      -0.423  12.825  21.996  0.00  0.00    +0.000 C 
ENDBRANCH  22  24
ENDBRANCH   1  22
TORSDOF 5
ENDMDL
MODEL 4
REMARK VINA RESULT:      -6.4      1.429      1.744
REMARK  Name = 
REMARK  7 active torsions:
REMARK  status: ('A' for Active; 'I' for Inactive)
REMARK    1  A    between atoms: C_1  and  C_2
REMARK    2  A    between atoms: C_2  and  O_3
REMARK    3  A    between atoms: O_3  and  C_4
REMARK    4  A    between atoms: C_10  and  C_12
REMARK    5  A    between atoms: N_15  and  S_16
REMARK    6  A    between atoms: S_16  and  C_19
REMARK    7  A    between atoms: C_19  and  C_20
REMARK                            x       y       z     vdW  Elec       q    Type
REMARK                         _______ _______ _______ _____ _____    ______ ____
ROOT
ATOM      1  C   UNL     1      -0.250  10.772  21.782  0.00  0.00    +0.000 C 
ATOM      2  O   UNL     1      -0.192  10.553  22.985  0.00  0.00    +0.000 OA
ATOM      3  N   UNL     1      -0.093   9.790  20.824  0.00  0.00    +0.000 N 
ATOM      4  C   UNL     1       0.010  10.010  19.377  0.00  0.00    +0.000 C 
ATOM      5  C   UNL     1       1.379   9.538  18.820  0.00  0.00    +0.000 C 
ATOM      6  N   UNL     1       1.790   8.214  19.352  0.00  0.00    +0.000 N 
ATOM      7  C   UNL     1       2.311   7.248  18.495  0.00  0.00    +0.000 C 
ATOM      8  O   UNL     1       2.451   7.474  17.291  0.00  0.00    +0.000 OA
ATOM      9  C   UNL     1       1.653   8.086  20.809  0.00  0.00    +0.000 C 
ATOM     10  C   UNL     1       0.231   8.440  21.254  0.00  0.00    +0.000 C 
ENDROOT
BRANCH   7  11
ATOM     11  C   UNL     1       2.643   5.855  19.075  0.00  0.00    +0.000 C 
ATOM     12  C   UNL     1       3.987   5.743  19.789  0.00  0.00    +0.000 C 
ATOM     13  C   UNL     1       5.190   5.742  18.859  0.00  0.00    +0.000 C 
ATOM     14  N   UNL     1       5.089   4.779  17.728  0.00  0.00    +0.000 NA
ATOM     15  C   UNL     1       3.746   4.719  17.065  0.00  0.00    +0.000 C 
ATOM     16  C   UNL     1       2.576   4.733  18.037  0.00  0.00    +0.000 C 
BRANCH  14  17
ATOM     17  S   UNL     1       6.321   5.029  16.523  0.00  0.00    +0.000 S 
ATOM     18  O   UNL     1       5.980   6.241  15.803  0.00  0.00    +0.000 OA
ATOM     19  O   UNL     1       7.602   4.887  17.177  0.00  0.00    +0.000 OA
BRANCH  17  20
ATOM     20  C   UNL     1       6.092   3.648  15.407  0.00  0.00    +0.000 C 
ATOM     21  C   UNL     1       5.899   4.147  13.983  0.00  0.00    +0.000 C 
ENDBRANCH  17  20
ENDBRANCH  14  17
ENDBRANCH   7  11
BRANCH   1  22
ATOM     22  O   UNL     1      -0.466  12.009  21.253  0.00  0.00    +0.000 OA
BRANCH  22  24
ATOM     23  C   UNL     1       1.652  13.017  20.600  0.00  0.00    +0.000 C 
ATOM     24  C   UNL     1       0.512  13.006  21.603  0.00  0.00    +0.000 C 
ENDBRANCH  22  24
ENDBRANCH   1  22
TORSDOF 5
ENDMDL
MODEL 5
REMARK VINA RESULT:      -6.1      1.087      1.265
REMARK  Name = 
REMARK  7 active torsions:
REMARK  status: ('A' for Active; 'I' for Inactive)
REMARK    1  A    between atoms: C_1  and  C_2
REMARK    2  A    between atoms: C_2  and  O_3
REMARK    3  A    between atoms: O_3  and  C_4
REMARK    4  A    between atoms: C_10  and  C_12
REMARK    5  A    between atoms: N_15  and  S_16
REMARK    6  A    between atoms: S_16  and  C_19
REMARK    7  A    between atoms: C_19  and  C_20
REMARK                            x       y       z     vdW  Elec       q    Type
REMARK                         _______ _______ _______ _____ _____    ______ ____
ROOT
ATOM      1  C   UNL     1      -0.428  11.036  21.947  0.00  0.00    +0.000 C 
ATOM      2  O   UNL     1      -0.421  10.822  23.153  0.00  0.00    +0.000 OA
ATOM      3  N   UNL     1      -0.285  10.040  21.001  0.00  0.00    +0.000 N 
ATOM      4  C   UNL     1      -0.124  10.245  19.557  0.00  0.00    +0.000 C 
ATOM      5  C   UNL     1       1.239   9.706  19.050  0.00  0.00    +0.000 C 
ATOM      6  N   UNL     1       1.569   8.368  19.603  0.00  0.00    +0.000 N 
ATOM      7  C   UNL     1       2.073   7.373  18.769  0.00  0.00    +0.000 C 
ATOM      8  O   UNL     1       2.264   7.583  17.569  0.00  0.00    +0.000 OA
ATOM      9  C   UNL     1       1.378   8.257  21.055  0.00  0.00    +0.000 C 
ATOM     10  C   UNL     1      -0.039   8.679  21.449  0.00  0.00    +0.000 C 
ENDROOT
BRANCH   7  11
ATOM     11  C   UNL     1       2.320   5.969  19.367  0.00  0.00    +0.000 C 
ATOM     12  C   UNL     1       3.706   5.744  19.965  0.00  0.00    +0.000 C 
ATOM     13  C   UNL     1       4.814   5.598  18.934  0.00  0.00    +0.000 C 
ATOM     14  N   UNL     1       4.519   4.619  17.852  0.00  0.00    +0.000 NA
ATOM     15  C   UNL     1       3.122   4.676  17.311  0.00  0.00    +0.000 C 
ATOM     16  C   UNL     1       2.051   4.832  18.380  0.00  0.00    +0.000 C 
BRANCH  14  17
ATOM     17  S   UNL     1       5.655   4.713  16.535  0.00  0.00    +0.000 S 
ATOM     18  O   UNL     1       5.807   3.374  16.000  0.00  0.00    +0.000 OA
ATOM     19  O   UNL     1       5.246   5.811  15.688  0.00  0.00    +0.000 OA
BRANCH  17  20
ATOM     20  C   UNL     1       7.188   5.156  17.345  0.00  0.00    +0.000 C 
ATOM     21  C   UNL     1       7.454   6.646  17.195  0.00  0.00    +0.000 C 
ENDBRANCH  17  20
ENDBRANCH  14  17
ENDBRANCH   7  11
BRANCH   1  22
ATOM     22  O   UNL     1      -0.568  12.277  21.405  0.00  0.00    +0.000 OA
BRANCH  22  24
ATOM     23  C   UNL     1       1.241  13.554  20.393  0.00  0.00    +0.000 C 
ATOM     24  C   UNL     1       0.512  13.190  21.674  0.00  0.00    +0.000 C 
ENDBRANCH  22  24
ENDBRANCH   1  22
TORSDOF 5
ENDMDL
MODEL 6
REMARK VINA RESULT:      -6.0      2.402      3.669
REMARK  Name = 
REMARK  7 active torsions:
REMARK  status: ('A' for Active; 'I' for Inactive)
REMARK    1  A    between atoms: C_1  and  C_2
REMARK    2  A    between atoms: C_2  and  O_3
REMARK    3  A    between atoms: O_3  and  C_4
REMARK    4  A    between atoms: C_10  and  C_12
REMARK    5  A    between atoms: N_15  and  S_16
REMARK    6  A    between atoms: S_16  and  C_19
REMARK    7  A    between atoms: C_19  and  C_20
REMARK                            x       y       z     vdW  Elec       q    Type
REMARK                         _______ _______ _______ _____ _____    ______ ____
ROOT
ATOM      1  C   UNL     1      -0.158  12.170  19.582  0.00  0.00    +0.000 C 
ATOM      2  O   UNL     1      -0.328  12.688  18.486  0.00  0.00    +0.000 OA
ATOM      3  N   UNL     1       0.796  11.202  19.824  0.00  0.00    +0.000 N 
ATOM      4  C   UNL     1       0.943  10.432  21.063  0.00  0.00    +0.000 C 
ATOM      5  C   UNL     1       0.733   8.913  20.824  0.00  0.00    +0.000 C 
ATOM      6  N   UNL     1       1.437   8.421  19.612  0.00  0.00    +0.000 N 
ATOM      7  C   UNL     1       2.156   7.230  19.659  0.00  0.00    +0.000 C 
ATOM      8  O   UNL     1       2.215   6.560  20.692  0.00  0.00    +0.000 OA
ATOM      9  C   UNL     1       1.231   9.255  18.421  0.00  0.00    +0.000 C 
ATOM     10  C   UNL     1       1.593  10.714  18.711  0.00  0.00    +0.000 C 
ENDROOT
BRANCH   7  11
ATOM     11  C   UNL     1       2.945   6.799  18.401  0.00  0.00    +0.000 C 
ATOM     12  C   UNL     1       2.237   5.798  17.493  0.00  0.00    +0.000 C 
ATOM     13  C   UNL     1       2.178   4.383  18.050  0.00  0.00    +0.000 C 
ATOM     14  N   UNL     1       3.486   3.859  18.530  0.00  0.00    +0.000 NA
ATOM     15  C   UNL     1       4.313   4.837  19.308  0.00  0.00    +0.000 C 
ATOM     16  C   UNL     1       4.333   6.239  18.717  0.00  0.00    +0.000 C 
BRANCH  14  17
ATOM     17  S   UNL     1       3.322   2.383  19.440  0.00  0.00    +0.000 S 
ATOM     18  O   UNL     1       3.405   1.284  18.499  0.00  0.00    +0.000 OA
ATOM     19  O   UNL     1       4.223   2.468  20.568  0.00  0.00    +0.000 OA
BRANCH  17  20
ATOM     20  C   UNL     1       1.640   2.458  20.046  0.00  0.00    +0.000 C 
ATOM     21  C   UNL     1       1.618   2.949  21.486  0.00  0.00    +0.000 C 
ENDBRANCH  17  20
ENDBRANCH  14  17
ENDBRANCH   7  11
BRANCH   1  22
ATOM     22  O   UNL     1      -0.897  12.484  20.683  0.00  0.00    +0.000 OA
BRANCH  22  24
ATOM     23  C   UNL     1      -0.852  13.744  22.765  0.00  0.00    +0.000 C 
ATOM     24  C   UNL     1      -0.616  13.770  21.265  0.00  0.00    +0.000 C 
ENDBRANCH  22  24
ENDBRANCH   1  22
TORSDOF 5
ENDMDL
MODEL 7
REMARK VINA RESULT:      -5.9      2.561      3.790
REMARK  Name = 
REMARK  7 active torsions:
REMARK  status: ('A' for Active; 'I' for Inactive)
REMARK    1  A    between atoms: C_1  and  C_2
REMARK    2  A    between atoms: C_2  and  O_3
REMARK    3  A    between atoms: O_3  and  C_4
REMARK    4  A    between atoms: C_10  and  C_12
REMARK    5  A    between atoms: N_15  and  S_16
REMARK    6  A    between atoms: S_16  and  C_19
REMARK    7  A    between atoms: C_19  and  C_20
REMARK                            x       y       z     vdW  Elec       q    Type
REMARK                         _______ _______ _______ _____ _____    ______ ____
ROOT
ATOM      1  C   UNL     1      -0.553  12.100  19.728  0.00  0.00    +0.000 C 
ATOM      2  O   UNL     1      -0.637  12.628  18.627  0.00  0.00    +0.000 OA
ATOM      3  N   UNL     1       0.425  11.181  20.055  0.00  0.00    +0.000 N 
ATOM      4  C   UNL     1       0.486  10.397  21.292  0.00  0.00    +0.000 C 
ATOM      5  C   UNL     1       0.389   8.874  21.012  0.00  0.00    +0.000 C 
ATOM      6  N   UNL     1       1.240   8.444  19.874  0.00  0.00    +0.000 N 
ATOM      7  C   UNL     1       2.017   7.293  19.979  0.00  0.00    +0.000 C 
ATOM      8  O   UNL     1       2.007   6.608  21.004  0.00  0.00    +0.000 OA
ATOM      9  C   UNL     1       1.112   9.288  18.679  0.00  0.00    +0.000 C 
ATOM     10  C   UNL     1       1.359  10.759  19.024  0.00  0.00    +0.000 C 
ENDROOT
BRANCH   7  11
ATOM     11  C   UNL     1       2.955   6.931  18.805  0.00  0.00    +0.000 C 
ATOM     12  C   UNL     1       2.288   6.229  17.625  0.00  0.00    +0.000 C 
ATOM     13  C   UNL     1       1.913   4.779  17.891  0.00  0.00    +0.000 C 
ATOM     14  N   UNL     1       3.013   3.958  18.466  0.00  0.00    +0.000 NA
ATOM     15  C   UNL     1       3.817   4.635  19.535  0.00  0.00    +0.000 C 
ATOM     16  C   UNL     1       4.158   6.086  19.227  0.00  0.00    +0.000 C 
BRANCH  14  17
ATOM     17  S   UNL     1       2.461   2.412  19.047  0.00  0.00    +0.000 S 
ATOM     18  O   UNL     1       1.046   2.318  18.747  0.00  0.00    +0.000 OA
ATOM     19  O   UNL     1       3.392   1.413  18.570  0.00  0.00    +0.000 OA
BRANCH  17  20
ATOM     20  C   UNL     1       2.635   2.553  20.823  0.00  0.00    +0.000 C 
ATOM     21  C   UNL     1       1.301   2.920  21.456  0.00  0.00    +0.000 C 
ENDBRANCH  17  20
ENDBRANCH  14  17
ENDBRANCH   7  11
BRANCH   1  22
ATOM     22  O   UNL     1      -1.417  12.351  20.750  0.00  0.00    +0.000 OA
BRANCH  22  24
ATOM     23  C   UNL     1      -3.680  13.244  20.661  0.00  0.00    +0.000 C 
ATOM     24  C   UNL     1      -2.195  13.555  20.615  0.00  0.00    +0.000 C 
ENDBRANCH  22  24
ENDBRANCH   1  22
TORSDOF 5
ENDMDL
MODEL 8
REMARK VINA RESULT:      -5.8      2.415      2.612
REMARK  Name = 
REMARK  7 active torsions:
REMARK  status: ('A' for Active; 'I' for Inactive)
REMARK    1  A    between atoms: C_1  and  C_2
REMARK    2  A    between atoms: C_2  and  O_3
REMARK    3  A    between atoms: O_3  and  C_4
REMARK    4  A    between atoms: C_10  and  C_12
REMARK    5  A    between atoms: N_15  and  S_16
REMARK    6  A    between atoms: S_16  and  C_19
REMARK    7  A    between atoms: C_19  and  C_20
REMARK                            x       y       z     vdW  Elec       q    Type
REMARK                         _______ _______ _______ _____ _____    ______ ____
ROOT
ATOM      1  C   UNL     1       0.178  11.446  21.340  0.00  0.00    +0.000 C 
ATOM      2  O   UNL     1      -0.060  11.602  22.531  0.00  0.00    +0.000 OA
ATOM      3  N   UNL     1       0.165  10.212  20.720  0.00  0.00    +0.000 N 
ATOM      4  C   UNL     1       0.595   9.937  19.345  0.00  0.00    +0.000 C 
ATOM      5  C   UNL     1       1.801   8.962  19.305  0.00  0.00    +0.000 C 
ATOM      6  N   UNL     1       1.637   7.808  20.226  0.00  0.00    +0.000 N 
ATOM      7  C   UNL     1       1.948   6.521  19.794  0.00  0.00    +0.000 C 
ATOM      8  O   UNL     1       2.371   6.316  18.654  0.00  0.00    +0.000 OA
ATOM      9  C   UNL     1       1.205   8.180  21.579  0.00  0.00    +0.000 C 
ATOM     10  C   UNL     1      -0.069   9.027  21.529  0.00  0.00    +0.000 C 
ENDROOT
BRANCH   7  11
ATOM     11  C   UNL     1       1.680   5.340  20.754  0.00  0.00    +0.000 C 
ATOM     12  C   UNL     1       2.919   4.587  21.231  0.00  0.00    +0.000 C 
ATOM     13  C   UNL     1       3.556   3.699  20.173  0.00  0.00    +0.000 C 
ATOM     14  N   UNL     1       2.600   2.796  19.476  0.00  0.00    +0.000 NA
ATOM     15  C   UNL     1       1.291   3.424  19.104  0.00  0.00    +0.000 C 
ATOM     16  C   UNL     1       0.700   4.310  20.190  0.00  0.00    +0.000 C 
BRANCH  14  17
ATOM     17  S   UNL     1       3.299   2.038  18.072  0.00  0.00    +0.000 S 
ATOM     18  O   UNL     1       3.922   0.805  18.514  0.00  0.00    +0.000 OA
ATOM     19  O   UNL     1       2.291   2.033  17.035  0.00  0.00    +0.000 OA
BRANCH  17  20
ATOM     20  C   UNL     1       4.602   3.169  17.598  0.00  0.00    +0.000 C 
ATOM     21  C   UNL     1       4.086   4.170  16.575  0.00  0.00    +0.000 C 
ENDBRANCH  17  20
ENDBRANCH  14  17
ENDBRANCH   7  11
BRANCH   1  22
ATOM     22  O   UNL     1       0.492  12.468  20.496  0.00  0.00    +0.000 OA
BRANCH  22  24
ATOM     23  C   UNL     1      -1.796  12.912  19.792  0.00  0.00    +0.000 C 
ATOM     24  C   UNL     1      -0.515  13.489  20.368  0.00  0.00    +0.000 C 
ENDBRANCH  22  24
ENDBRANCH   1  22
TORSDOF 5
ENDMDL
MODEL 9
REMARK VINA RESULT:      -5.6      3.475      8.814
REMARK  Name = 
REMARK  7 active torsions:
REMARK  status: ('A' for Active; 'I' for Inactive)
REMARK    1  A    between atoms: C_1  and  C_2
REMARK    2  A    between atoms: C_2  and  O_3
REMARK    3  A    between atoms: O_3  and  C_4
REMARK    4  A    between atoms: C_10  and  C_12
REMARK    5  A    between atoms: N_15  and  S_16
REMARK    6  A    between atoms: S_16  and  C_19
REMARK    7  A    between atoms: C_19  and  C_20
REMARK                            x       y       z     vdW  Elec       q    Type
REMARK                         _______ _______ _______ _____ _____    ______ ____
ROOT
ATOM      1  C   UNL     1       4.225   5.955  18.472  0.00  0.00    +0.000 C 
ATOM      2  O   UNL     1       4.959   6.183  17.519  0.00  0.00    +0.000 OA
ATOM      3  N   UNL     1       2.972   6.518  18.615  0.00  0.00    +0.000 N 
ATOM      4  C   UNL     1       2.116   6.416  19.801  0.00  0.00    +0.000 C 
ATOM      5  C   UNL     1       1.845   7.806  20.435  0.00  0.00    +0.000 C 
ATOM      6  N   UNL     1       1.513   8.843  19.426  0.00  0.00    +0.000 N 
ATOM      7  C   UNL     1       0.454   9.720  19.648  0.00  0.00    +0.000 C 
ATOM      8  O   UNL     1      -0.215   9.662  20.682  0.00  0.00    +0.000 OA
ATOM      9  C   UNL     1       2.424   8.871  18.275  0.00  0.00    +0.000 C 
ATOM     10  C   UNL     1       2.525   7.487  17.628  0.00  0.00    +0.000 C 
ENDROOT
BRANCH   7  11
ATOM     11  C   UNL     1       0.087  10.725  18.533  0.00  0.00    +0.000 C 
ATOM     12  C   UNL     1       0.568  12.157  18.756  0.00  0.00    +0.000 C 
ATOM     13  C   UNL     1      -0.208  12.917  19.820  0.00  0.00    +0.000 C 
ATOM     14  N   UNL     1      -1.687  12.854  19.663  0.00  0.00    +0.000 NA
ATOM     15  C   UNL     1      -2.227  11.505  19.295  0.00  0.00    +0.000 C 
ATOM     16  C   UNL     1      -1.412  10.781  18.234  0.00  0.00    +0.000 C 
BRANCH  14  17
ATOM     17  S   UNL     1      -2.535  13.457  21.060  0.00  0.00    +0.000 S 
ATOM     18  O   UNL     1      -2.571  14.903  20.951  0.00  0.00    +0.000 OA
ATOM     19  O   UNL     1      -3.753  12.689  21.192  0.00  0.00    +0.000 OA
BRANCH  17  20
ATOM     20  C   UNL     1      -1.445  13.038  22.416  0.00  0.00    +0.000 C 
ATOM     21  C   UNL     1      -1.832  11.692  23.008  0.00  0.00    +0.000 C 
ENDBRANCH  17  20
ENDBRANCH  14  17
ENDBRANCH   7  11
BRANCH   1  22
ATOM     22  O   UNL     1       4.565   5.131  19.502  0.00  0.00    +0.000 OA
BRANCH  22  24
ATOM     23  C   UNL     1       3.648   2.945  18.946  0.00  0.00    +0.000 C 
ATOM     24  C   UNL     1       4.902   3.783  19.124  0.00  0.00    +0.000 C 
ENDBRANCH  22  24
ENDBRANCH   1  22
TORSDOF 5
ENDMDL
