MODEL 1
REMARK VINA RESULT:      -7.3      0.000      0.000
REMARK  Name = 
REMARK  7 active torsions:
REMARK  status: ('A' for Active; 'I' for Inactive)
REMARK    1  A    between atoms: C_1  and  C_2
REMARK    2  A    between atoms: C_2  and  N_3
REMARK    3  A    between atoms: C_6  and  N_7
REMARK    4  A    between atoms: C_8  and  C_10
REMARK    5  A    between atoms: C_12  and  C_13
REMARK    6  A    between atoms: C_13  and  C_14
REMARK    7  A    between atoms: C_13  and  C_15
REMARK                            x       y       z     vdW  Elec       q    Type
REMARK                         _______ _______ _______ _____ _____    ______ ____
ROOT
ATOM      1  N   UNL     1       2.288   7.220  18.968  0.00  0.00    +0.000 N 
ATOM      2  C   UNL     1       2.117   8.393  18.270  0.00  0.00    +0.000 C 
ATOM      3  O   UNL     1       2.724   8.663  17.238  0.00  0.00    +0.000 OA
ATOM      4  H   UNL     1       1.652   7.084  19.749  0.00  0.00    +0.000 HD
ENDROOT
BRANCH   2   5
ATOM      5  C   UNL     1       1.134   9.283  18.890  0.00  0.00    +0.000 A 
ATOM      6  N   UNL     1       0.347  10.173  18.167  0.00  0.00    +0.000 NA
ATOM      7  C   UNL     1      -0.417  10.797  19.050  0.00  0.00    +0.000 A 
ATOM      8  N   UNL     1      -0.148  10.356  20.341  0.00  0.00    +0.000 N 
ATOM      9  C   UNL     1      -0.687  10.737  21.575  0.00  0.00    +0.000 A 
ATOM     10  C   UNL     1      -0.238  10.157  22.705  0.00  0.00    +0.000 A 
ATOM     11  C   UNL     1       0.797   9.140  22.612  0.00  0.00    +0.000 A 
ATOM     12  C   UNL     1       1.313   8.770  21.427  0.00  0.00    +0.000 A 
ATOM     13  C   UNL     1       0.842   9.387  20.233  0.00  0.00    +0.000 A 
BRANCH   7  14
ATOM     14  C   UNL     1      -1.413  11.882  18.725  0.00  0.00    +0.000 C 
ATOM     15  C   UNL     1      -0.685  13.149  18.272  0.00  0.00    +0.000 C 
ATOM     16  C   UNL     1      -2.397  11.435  17.639  0.00  0.00    +0.000 C 
ENDBRANCH   7  14
ENDBRANCH   2   5
BRANCH   1  20
ATOM     17  N   UNL     1       2.232   3.562  19.532  0.00  0.00    +0.000 NA
ATOM     18  C   UNL     1       1.521   4.243  18.434  0.00  0.00    +0.000 C 
ATOM     19  C   UNL     1       2.457   5.143  17.629  0.00  0.00    +0.000 C 
ATOM     20  C   UNL     1       3.177   6.157  18.519  0.00  0.00    +0.000 C 
ATOM     21  C   UNL     1       3.827   5.451  19.704  0.00  0.00    +0.000 C 
ATOM     22  C   UNL     1       2.847   4.540  20.441  0.00  0.00    +0.000 C 
BRANCH  17  24
ATOM     23  C   UNL     1       1.520   2.582  21.738  0.00  0.00    +0.000 C 
ATOM     24  C   UNL     1       1.305   2.652  20.229  0.00  0.00    +0.000 C 
ENDBRANCH  17  24
ENDBRANCH   1  20
TORSDOF 4
ENDMDL
MODEL 2
REMARK VINA RESULT:      -6.7      1.176      2.909
REMARK  Name = 
REMARK  7 active torsions:
REMARK  status: ('A' for Active; 'I' for Inactive)
REMARK    1  A    between atoms: C_1  and  C_2
REMARK    2  A    between atoms: C_2  and  N_3
REMARK    3  A    between atoms: C_6  and  N_7
REMARK    4  A    between atoms: C_8  and  C_10
REMARK    5  A    between atoms: C_12  and  C_13
REMARK    6  A    between atoms: C_13  and  C_14
REMARK    7  A    between atoms: C_13  and  C_15
REMARK                            x       y       z     vdW  Elec       q    Type
REMARK                         _______ _______ _______ _____ _____    ______ ____
ROOT
ATOM      1  N   UNL     1       1.936   7.615  19.083  0.00  0.00    +0.000 N 
ATOM      2  C   UNL     1       1.715   8.790  18.402  0.00  0.00    +0.000 C 
ATOM      3  O   UNL     1       2.353   9.129  17.410  0.00  0.00    +0.000 OA
ATOM      4  H   UNL     1       1.272   7.414  19.825  0.00  0.00    +0.000 HD
ENDROOT
BRANCH   2   5
ATOM      5  C   UNL     1       0.637   9.589  18.985  0.00  0.00    +0.000 A 
ATOM      6  N   UNL     1       0.656  10.057  20.295  0.00  0.00    +0.000 NA
ATOM      7  C   UNL     1      -0.467  10.737  20.465  0.00  0.00    +0.000 A 
ATOM      8  N   UNL     1      -1.238  10.721  19.308  0.00  0.00    +0.000 N 
ATOM      9  C   UNL     1      -2.491  11.279  19.028  0.00  0.00    +0.000 A 
ATOM     10  C   UNL     1      -3.040  11.105  17.811  0.00  0.00    +0.000 A 
ATOM     11  C   UNL     1      -2.311  10.342  16.811  0.00  0.00    +0.000 A 
ATOM     12  C   UNL     1      -1.107   9.809  17.076  0.00  0.00    +0.000 A 
ATOM     13  C   UNL     1      -0.528   9.987  18.365  0.00  0.00    +0.000 A 
BRANCH   7  14
ATOM     14  C   UNL     1      -0.896  11.401  21.749  0.00  0.00    +0.000 C 
ATOM     15  C   UNL     1      -0.596  10.491  22.941  0.00  0.00    +0.000 C 
ATOM     16  C   UNL     1      -0.200  12.752  21.942  0.00  0.00    +0.000 C 
ENDBRANCH   7  14
ENDBRANCH   2   5
BRANCH   1  20
ATOM     17  N   UNL     1       2.095   3.943  19.521  0.00  0.00    +0.000 NA
ATOM     18  C   UNL     1       1.413   4.616  18.400  0.00  0.00    +0.000 C 
ATOM     19  C   UNL     1       2.336   5.606  17.691  0.00  0.00    +0.000 C 
ATOM     20  C   UNL     1       2.923   6.632  18.661  0.00  0.00    +0.000 C 
ATOM     21  C   UNL     1       3.541   5.927  19.864  0.00  0.00    +0.000 C 
ATOM     22  C   UNL     1       2.580   4.925  20.501  0.00  0.00    +0.000 C 
BRANCH  17  24
ATOM     23  C   UNL     1       1.483   2.648  21.589  0.00  0.00    +0.000 C 
ATOM     24  C   UNL     1       1.190   2.948  20.122  0.00  0.00    +0.000 C 
ENDBRANCH  17  24
ENDBRANCH   1  20
TORSDOF 4
ENDMDL
MODEL 3
REMARK VINA RESULT:      -6.7      1.635      6.902
REMARK  Name = 
REMARK  7 active torsions:
REMARK  status: ('A' for Active; 'I' for Inactive)
REMARK    1  A    between atoms: C_1  and  C_2
REMARK    2  A    between atoms: C_2  and  N_3
REMARK    3  A    between atoms: C_6  and  N_7
REMARK    4  A    between atoms: C_8  and  C_10
REMARK    5  A    between atoms: C_12  and  C_13
REMARK    6  A    between atoms: C_13  and  C_14
REMARK    7  A    between atoms: C_13  and  C_15
REMARK                            x       y       z     vdW  Elec       q    Type
REMARK                         _______ _______ _______ _____ _____    ______ ____
ROOT
ATOM      1  N   UNL     1       1.338   8.838  18.760  0.00  0.00    +0.000 N 
ATOM      2  C   UNL     1       2.323   8.335  17.941  0.00  0.00    +0.000 C 
ATOM      3  O   UNL     1       2.778   8.943  16.977  0.00  0.00    +0.000 OA
ATOM      4  H   UNL     1       1.124   8.273  19.577  0.00  0.00    +0.000 HD
ENDROOT
BRANCH   2   5
ATOM      5  C   UNL     1       2.770   7.002  18.345  0.00  0.00    +0.000 A 
ATOM      6  N   UNL     1       1.999   6.139  19.117  0.00  0.00    +0.000 NA
ATOM      7  C   UNL     1       2.717   5.038  19.276  0.00  0.00    +0.000 A 
ATOM      8  N   UNL     1       3.950   5.153  18.642  0.00  0.00    +0.000 N 
ATOM      9  C   UNL     1       5.027   4.264  18.557  0.00  0.00    +0.000 A 
ATOM     10  C   UNL     1       6.136   4.624  17.884  0.00  0.00    +0.000 A 
ATOM     11  C   UNL     1       6.184   5.934  17.254  0.00  0.00    +0.000 A 
ATOM     12  C   UNL     1       5.149   6.787  17.331  0.00  0.00    +0.000 A 
ATOM     13  C   UNL     1       3.979   6.408  18.048  0.00  0.00    +0.000 A 
BRANCH   7  14
ATOM     14  C   UNL     1       2.295   3.833  20.078  0.00  0.00    +0.000 C 
ATOM     15  C   UNL     1       2.321   4.156  21.572  0.00  0.00    +0.000 C 
ATOM     16  C   UNL     1       0.896   3.354  19.677  0.00  0.00    +0.000 C 
ENDBRANCH   7  14
ENDBRANCH   2   5
BRANCH   1  20
ATOM     17  N   UNL     1      -0.369  11.111  21.131  0.00  0.00    +0.000 NA
ATOM     18  C   UNL     1       1.092  11.061  20.935  0.00  0.00    +0.000 C 
ATOM     19  C   UNL     1       1.470  11.210  19.462  0.00  0.00    +0.000 C 
ATOM     20  C   UNL     1       0.770  10.168  18.588  0.00  0.00    +0.000 C 
ATOM     21  C   UNL     1      -0.728  10.164  18.869  0.00  0.00    +0.000 C 
ATOM     22  C   UNL     1      -1.034  10.051  20.361  0.00  0.00    +0.000 C 
BRANCH  17  24
ATOM     23  C   UNL     1      -0.372   9.686  23.204  0.00  0.00    +0.000 C 
ATOM     24  C   UNL     1      -0.676  11.040  22.570  0.00  0.00    +0.000 C 
ENDBRANCH  17  24
ENDBRANCH   1  20
TORSDOF 4
ENDMDL
MODEL 4
REMARK VINA RESULT:      -6.5      1.837      7.091
REMARK  Name = 
REMARK  7 active torsions:
REMARK  status: ('A' for Active; 'I' for Inactive)
REMARK    1  A    between atoms: C_1  and  C_2
REMARK    2  A    between atoms: C_2  and  N_3
REMARK    3  A    between atoms: C_6  and  N_7
REMARK    4  A    between atoms: C_8  and  C_10
REMARK    5  A    between atoms: C_12  and  C_13
REMARK    6  A    between atoms: C_13  and  C_14
REMARK    7  A    between atoms: C_13  and  C_15
REMARK                            x       y       z     vdW  Elec       q    Type
REMARK                         _______ _______ _______ _____ _____    ______ ____
ROOT
ATOM      1  N   UNL     1       1.275   9.019  19.786  0.00  0.00    +0.000 N 
ATOM      2  C   UNL     1       1.603   8.067  20.724  0.00  0.00    +0.000 C 
ATOM      3  O   UNL     1       1.593   8.276  21.933  0.00  0.00    +0.000 OA
ATOM      4  H   UNL     1       1.230   8.683  18.827  0.00  0.00    +0.000 HD
ENDROOT
BRANCH   2   5
ATOM      5  C   UNL     1       1.963   6.781  20.125  0.00  0.00    +0.000 A 
ATOM      6  N   UNL     1       1.516   5.559  20.616  0.00  0.00    +0.000 NA
ATOM      7  C   UNL     1       2.034   4.629  19.828  0.00  0.00    +0.000 A 
ATOM      8  N   UNL     1       2.823   5.201  18.836  0.00  0.00    +0.000 N 
ATOM      9  C   UNL     1       3.573   4.620  17.807  0.00  0.00    +0.000 A 
ATOM     10  C   UNL     1       4.277   5.406  16.970  0.00  0.00    +0.000 A 
ATOM     11  C   UNL     1       4.236   6.847  17.156  0.00  0.00    +0.000 A 
ATOM     12  C   UNL     1       3.514   7.408  18.141  0.00  0.00    +0.000 A 
ATOM     13  C   UNL     1       2.774   6.576  19.029  0.00  0.00    +0.000 A 
BRANCH   7  14
ATOM     14  C   UNL     1       1.847   3.142  19.999  0.00  0.00    +0.000 C 
ATOM     15  C   UNL     1       1.405   2.826  21.427  0.00  0.00    +0.000 C 
ATOM     16  C   UNL     1       0.822   2.587  19.005  0.00  0.00    +0.000 C 
ENDBRANCH   7  14
ENDBRANCH   2   5
BRANCH   1  20
ATOM     17  N   UNL     1      -1.259  11.258  18.281  0.00  0.00    +0.000 NA
ATOM     18  C   UNL     1      -1.555  10.245  19.312  0.00  0.00    +0.000 C 
ATOM     19  C   UNL     1      -0.645  10.396  20.529  0.00  0.00    +0.000 C 
ATOM     20  C   UNL     1       0.834  10.360  20.142  0.00  0.00    +0.000 C 
ATOM     21  C   UNL     1       1.108  11.344  19.010  0.00  0.00    +0.000 C 
ATOM     22  C   UNL     1       0.139  11.163  17.842  0.00  0.00    +0.000 C 
BRANCH  17  24
ATOM     23  C   UNL     1      -3.081   9.867  17.244  0.00  0.00    +0.000 C 
ATOM     24  C   UNL     1      -2.211  11.117  17.164  0.00  0.00    +0.000 C 
ENDBRANCH  17  24
ENDBRANCH   1  20
TORSDOF 4
ENDMDL
MODEL 5
REMARK VINA RESULT:      -6.5      1.863      6.928
REMARK  Name = 
REMARK  7 active torsions:
REMARK  status: ('A' for Active; 'I' for Inactive)
REMARK    1  A    between atoms: C_1  and  C_2
REMARK    2  A    between atoms: C_2  and  N_3
REMARK    3  A    between atoms: C_6  and  N_7
REMARK    4  A    between atoms: C_8  and  C_10
REMARK    5  A    between atoms: C_12  and  C_13
REMARK    6  A    between atoms: C_13  and  C_14
REMARK    7  A    between atoms: C_13  and  C_15
REMARK                            x       y       z     vdW  Elec       q    Type
REMARK                         _______ _______ _______ _____ _____    ______ ____
ROOT
ATOM      1  N   UNL     1       1.492   8.897  19.650  0.00  0.00    +0.000 N 
ATOM      2  C   UNL     1       1.804   7.780  20.391  0.00  0.00    +0.000 C 
ATOM      3  O   UNL     1       1.656   7.711  21.608  0.00  0.00    +0.000 OA
ATOM      4  H   UNL     1       1.572   8.783  18.643  0.00  0.00    +0.000 HD
ENDROOT
BRANCH   2   5
ATOM      5  C   UNL     1       2.328   6.685  19.575  0.00  0.00    +0.000 A 
ATOM      6  N   UNL     1       3.270   6.867  18.567  0.00  0.00    +0.000 NA
ATOM      7  C   UNL     1       3.506   5.668  18.056  0.00  0.00    +0.000 A 
ATOM      8  N   UNL     1       2.736   4.698  18.689  0.00  0.00    +0.000 N 
ATOM      9  C   UNL     1       2.638   3.318  18.477  0.00  0.00    +0.000 A 
ATOM     10  C   UNL     1       1.792   2.588  19.227  0.00  0.00    +0.000 A 
ATOM     11  C   UNL     1       1.000   3.255  20.248  0.00  0.00    +0.000 A 
ATOM     12  C   UNL     1       1.096   4.579  20.456  0.00  0.00    +0.000 A 
ATOM     13  C   UNL     1       1.986   5.352  19.659  0.00  0.00    +0.000 A 
BRANCH   7  14
ATOM     14  C   UNL     1       4.440   5.381  16.908  0.00  0.00    +0.000 C 
ATOM     15  C   UNL     1       4.877   6.687  16.243  0.00  0.00    +0.000 C 
ATOM     16  C   UNL     1       5.673   4.597  17.370  0.00  0.00    +0.000 C 
ENDBRANCH   7  14
ENDBRANCH   2   5
BRANCH   1  20
ATOM     17  N   UNL     1      -1.121  11.211  18.420  0.00  0.00    +0.000 NA
ATOM     18  C   UNL     1      -1.396   9.983  19.189  0.00  0.00    +0.000 C 
ATOM     19  C   UNL     1      -0.592   9.939  20.488  0.00  0.00    +0.000 C 
ATOM     20  C   UNL     1       0.908  10.095  20.234  0.00  0.00    +0.000 C 
ATOM     21  C   UNL     1       1.171  11.315  19.358  0.00  0.00    +0.000 C 
ATOM     22  C   UNL     1       0.308  11.315  18.097  0.00  0.00    +0.000 C 
BRANCH  17  24
ATOM     23  C   UNL     1      -2.767   9.959  16.988  0.00  0.00    +0.000 C 
ATOM     24  C   UNL     1      -1.974  11.242  17.219  0.00  0.00    +0.000 C 
ENDBRANCH  17  24
ENDBRANCH   1  20
TORSDOF 4
ENDMDL
MODEL 6
REMARK VINA RESULT:      -6.3      2.341      4.236
REMARK  Name = 
REMARK  7 active torsions:
REMARK  status: ('A' for Active; 'I' for Inactive)
REMARK    1  A    between atoms: C_1  and  C_2
REMARK    2  A    between atoms: C_2  and  N_3
REMARK    3  A    between atoms: C_6  and  N_7
REMARK    4  A    between atoms: C_8  and  C_10
REMARK    5  A    between atoms: C_12  and  C_13
REMARK    6  A    between atoms: C_13  and  C_14
REMARK    7  A    between atoms: C_13  and  C_15
REMARK                            x       y       z     vdW  Elec       q    Type
REMARK                         _______ _______ _______ _____ _____    ______ ____
ROOT
ATOM      1  N   UNL     1       3.242   5.575  19.792  0.00  0.00    +0.000 N 
ATOM      2  C   UNL     1       2.020   5.789  20.388  0.00  0.00    +0.000 C 
ATOM      3  O   UNL     1       1.311   4.886  20.823  0.00  0.00    +0.000 OA
ATOM      4  H   UNL     1       3.766   6.416  19.567  0.00  0.00    +0.000 HD
ENDROOT
BRANCH   2   5
ATOM      5  C   UNL     1       1.659   7.205  20.449  0.00  0.00    +0.000 A 
ATOM      6  N   UNL     1       1.089   7.800  21.569  0.00  0.00    +0.000 NA
ATOM      7  C   UNL     1       0.908   9.076  21.262  0.00  0.00    +0.000 A 
ATOM      8  N   UNL     1       1.329   9.340  19.964  0.00  0.00    +0.000 N 
ATOM      9  C   UNL     1       1.315  10.521  19.214  0.00  0.00    +0.000 A 
ATOM     10  C   UNL     1       1.775  10.512  17.948  0.00  0.00    +0.000 A 
ATOM     11  C   UNL     1       2.283   9.268  17.392  0.00  0.00    +0.000 A 
ATOM     12  C   UNL     1       2.302   8.133  18.112  0.00  0.00    +0.000 A 
ATOM     13  C   UNL     1       1.809   8.142  19.448  0.00  0.00    +0.000 A 
BRANCH   7  14
ATOM     14  C   UNL     1       0.282  10.107  22.167  0.00  0.00    +0.000 C 
ATOM     15  C   UNL     1      -0.927  10.747  21.483  0.00  0.00    +0.000 C 
ATOM     16  C   UNL     1      -0.146   9.495  23.505  0.00  0.00    +0.000 C 
ENDBRANCH   7  14
ENDBRANCH   2   5
BRANCH   1  20
ATOM     17  N   UNL     1       4.920   3.899  16.950  0.00  0.00    +0.000 NA
ATOM     18  C   UNL     1       5.608   4.765  17.926  0.00  0.00    +0.000 C 
ATOM     19  C   UNL     1       5.335   4.322  19.363  0.00  0.00    +0.000 C 
ATOM     20  C   UNL     1       3.837   4.252  19.662  0.00  0.00    +0.000 C 
ATOM     21  C   UNL     1       3.123   3.434  18.592  0.00  0.00    +0.000 C 
ATOM     22  C   UNL     1       3.469   3.905  17.180  0.00  0.00    +0.000 C 
BRANCH  17  24
ATOM     23  C   UNL     1       5.430   5.829  15.418  0.00  0.00    +0.000 C 
ATOM     24  C   UNL     1       5.275   4.320  15.583  0.00  0.00    +0.000 C 
ENDBRANCH  17  24
ENDBRANCH   1  20
TORSDOF 4
ENDMDL
MODEL 7
REMARK VINA RESULT:      -6.3      1.539      6.998
REMARK  Name = 
REMARK  7 active torsions:
REMARK  status: ('A' for Active; 'I' for Inactive)
REMARK    1  A    between atoms: C_1  and  C_2
REMARK    2  A    between atoms: C_2  and  N_3
REMARK    3  A    between atoms: C_6  and  N_7
REMARK    4  A    between atoms: C_8  and  C_10
REMARK    5  A    between atoms: C_12  and  C_13
REMARK    6  A    between atoms: C_13  and  C_14
REMARK    7  A    between atoms: C_13  and  C_15
REMARK                            x       y       z     vdW  Elec       q    Type
REMARK                         _______ _______ _______ _____ _____    ______ ____
ROOT
ATOM      1  N   UNL     1       1.350   9.069  18.879  0.00  0.00    +0.000 N 
ATOM      2  C   UNL     1       2.227   8.326  18.122  0.00  0.00    +0.000 C 
ATOM      3  O   UNL     1       2.775   8.750  17.109  0.00  0.00    +0.000 OA
ATOM      4  H   UNL     1       1.047   8.629  19.744  0.00  0.00    +0.000 HD
ENDROOT
BRANCH   2   5
ATOM      5  C   UNL     1       2.438   6.980  18.656  0.00  0.00    +0.000 A 
ATOM      6  N   UNL     1       1.514   6.326  19.464  0.00  0.00    +0.000 NA
ATOM      7  C   UNL     1       2.037   5.142  19.745  0.00  0.00    +0.000 A 
ATOM      8  N   UNL     1       3.289   4.999  19.157  0.00  0.00    +0.000 N 
ATOM      9  C   UNL     1       4.208   3.944  19.193  0.00  0.00    +0.000 A 
ATOM     10  C   UNL     1       5.379   4.059  18.539  0.00  0.00    +0.000 A 
ATOM     11  C   UNL     1       5.659   5.282  17.804  0.00  0.00    +0.000 A 
ATOM     12  C   UNL     1       4.776   6.294  17.764  0.00  0.00    +0.000 A 
ATOM     13  C   UNL     1       3.540   6.175  18.461  0.00  0.00    +0.000 A 
BRANCH   7  14
ATOM     14  C   UNL     1       1.400   4.097  20.627  0.00  0.00    +0.000 C 
ATOM     15  C   UNL     1       0.912   2.919  19.783  0.00  0.00    +0.000 C 
ATOM     16  C   UNL     1       2.374   3.598  21.699  0.00  0.00    +0.000 C 
ENDBRANCH   7  14
ENDBRANCH   2   5
BRANCH   1  20
ATOM     17  N   UNL     1      -0.568  11.612  20.763  0.00  0.00    +0.000 NA
ATOM     18  C   UNL     1       0.877  11.370  20.933  0.00  0.00    +0.000 C 
ATOM     19  C   UNL     1       1.618  11.424  19.598  0.00  0.00    +0.000 C 
ATOM     20  C   UNL     1       1.022  10.454  18.576  0.00  0.00    +0.000 C 
ATOM     21  C   UNL     1      -0.487  10.651  18.480  0.00  0.00    +0.000 C 
ATOM     22  C   UNL     1      -1.160  10.623  19.852  0.00  0.00    +0.000 C 
BRANCH  17  24
ATOM     23  C   UNL     1      -0.841  10.450  22.978  0.00  0.00    +0.000 C 
ATOM     24  C   UNL     1      -1.224  11.625  22.083  0.00  0.00    +0.000 C 
ENDBRANCH  17  24
ENDBRANCH   1  20
TORSDOF 4
ENDMDL
MODEL 8
REMARK VINA RESULT:      -6.3      1.523      2.855
REMARK  Name = 
REMARK  7 active torsions:
REMARK  status: ('A' for Active; 'I' for Inactive)
REMARK    1  A    between atoms: C_1  and  C_2
REMARK    2  A    between atoms: C_2  and  N_3
REMARK    3  A    between atoms: C_6  and  N_7
REMARK    4  A    between atoms: C_8  and  C_10
REMARK    5  A    between atoms: C_12  and  C_13
REMARK    6  A    between atoms: C_13  and  C_14
REMARK    7  A    between atoms: C_13  and  C_15
REMARK                            x       y       z     vdW  Elec       q    Type
REMARK                         _______ _______ _______ _____ _____    ______ ____
ROOT
ATOM      1  N   UNL     1       2.215   7.332  18.839  0.00  0.00    +0.000 N 
ATOM      2  C   UNL     1       1.970   8.593  18.344  0.00  0.00    +0.000 C 
ATOM      3  O   UNL     1       2.253   8.939  17.201  0.00  0.00    +0.000 OA
ATOM      4  H   UNL     1       1.841   7.152  19.767  0.00  0.00    +0.000 HD
ENDROOT
BRANCH   2   5
ATOM      5  C   UNL     1       1.334   9.473  19.325  0.00  0.00    +0.000 A 
ATOM      6  N   UNL     1       0.637   9.004  20.433  0.00  0.00    +0.000 NA
ATOM      7  C   UNL     1       0.212  10.075  21.087  0.00  0.00    +0.000 A 
ATOM      8  N   UNL     1       0.596  11.241  20.434  0.00  0.00    +0.000 N 
ATOM      9  C   UNL     1       0.362  12.587  20.739  0.00  0.00    +0.000 A 
ATOM     10  C   UNL     1       0.838  13.547  19.923  0.00  0.00    +0.000 A 
ATOM     11  C   UNL     1       1.593  13.158  18.743  0.00  0.00    +0.000 A 
ATOM     12  C   UNL     1       1.823  11.867  18.450  0.00  0.00    +0.000 A 
ATOM     13  C   UNL     1       1.314  10.852  19.309  0.00  0.00    +0.000 A 
BRANCH   7  14
ATOM     14  C   UNL     1      -0.623  10.053  22.342  0.00  0.00    +0.000 C 
ATOM     15  C   UNL     1       0.168   9.428  23.492  0.00  0.00    +0.000 C 
ATOM     16  C   UNL     1      -1.084  11.460  22.735  0.00  0.00    +0.000 C 
ENDBRANCH   7  14
ENDBRANCH   2   5
BRANCH   1  20
ATOM     17  N   UNL     1       3.009   3.805  19.630  0.00  0.00    +0.000 NA
ATOM     18  C   UNL     1       1.698   4.270  19.140  0.00  0.00    +0.000 C 
ATOM     19  C   UNL     1       1.833   5.090  17.858  0.00  0.00    +0.000 C 
ATOM     20  C   UNL     1       2.794   6.266  18.034  0.00  0.00    +0.000 C 
ATOM     21  C   UNL     1       4.113   5.786  18.631  0.00  0.00    +0.000 C 
ATOM     22  C   UNL     1       3.903   4.942  19.887  0.00  0.00    +0.000 C 
BRANCH  17  24
ATOM     23  C   UNL     1       1.367   2.851  21.280  0.00  0.00    +0.000 C 
ATOM     24  C   UNL     1       2.818   2.958  20.821  0.00  0.00    +0.000 C 
ENDBRANCH  17  24
ENDBRANCH   1  20
TORSDOF 4
ENDMDL
MODEL 9
REMARK VINA RESULT:      -6.2      1.673      7.180
REMARK  Name = 
REMARK  7 active torsions:
REMARK  status: ('A' for Active; 'I' for Inactive)
REMARK    1  A    between atoms: C_1  and  C_2
REMARK    2  A    between atoms: C_2  and  N_3
REMARK    3  A    between atoms: C_6  and  N_7
REMARK    4  A    between atoms: C_8  and  C_10
REMARK    5  A    between atoms: C_12  and  C_13
REMARK    6  A    between atoms: C_13  and  C_14
REMARK    7  A    between atoms: C_13  and  C_15
REMARK                            x       y       z     vdW  Elec       q    Type
REMARK                         _______ _______ _______ _____ _____    ______ ____
ROOT
ATOM      1  N   UNL     1       1.679   8.307  19.532  0.00  0.00    +0.000 N 
ATOM      2  C   UNL     1       2.544   7.895  18.544  0.00  0.00    +0.000 C 
ATOM      3  O   UNL     1       3.114   8.666  17.778  0.00  0.00    +0.000 OA
ATOM      4  H   UNL     1       1.355   7.573  20.156  0.00  0.00    +0.000 HD
ENDROOT
BRANCH   2   5
ATOM      5  C   UNL     1       2.712   6.442  18.507  0.00  0.00    +0.000 A 
ATOM      6  N   UNL     1       1.975   5.567  19.299  0.00  0.00    +0.000 NA
ATOM      7  C   UNL     1       2.391   4.347  18.994  0.00  0.00    +0.000 A 
ATOM      8  N   UNL     1       3.393   4.390  18.031  0.00  0.00    +0.000 N 
ATOM      9  C   UNL     1       4.132   3.367  17.426  0.00  0.00    +0.000 A 
ATOM     10  C   UNL     1       5.074   3.676  16.515  0.00  0.00    +0.000 A 
ATOM     11  C   UNL     1       5.298   5.073  16.178  0.00  0.00    +0.000 A 
ATOM     12  C   UNL     1       4.586   6.056  16.754  0.00  0.00    +0.000 A 
ATOM     13  C   UNL     1       3.594   5.730  17.722  0.00  0.00    +0.000 A 
BRANCH   7  14
ATOM     14  C   UNL     1       1.894   3.075  19.632  0.00  0.00    +0.000 C 
ATOM     15  C   UNL     1       1.378   3.358  21.044  0.00  0.00    +0.000 C 
ATOM     16  C   UNL     1       0.786   2.423  18.798  0.00  0.00    +0.000 C 
ENDBRANCH   7  14
ENDBRANCH   2   5
BRANCH   1  20
ATOM     17  N   UNL     1      -1.272  10.403  18.760  0.00  0.00    +0.000 NA
ATOM     18  C   UNL     1      -1.130   9.588  19.981  0.00  0.00    +0.000 C 
ATOM     19  C   UNL     1       0.179   9.887  20.710  0.00  0.00    +0.000 C 
ATOM     20  C   UNL     1       1.392   9.709  19.797  0.00  0.00    +0.000 C 
ATOM     21  C   UNL     1       1.192  10.481  18.497  0.00  0.00    +0.000 C 
ATOM     22  C   UNL     1      -0.151  10.164  17.840  0.00  0.00    +0.000 C 
BRANCH  17  24
ATOM     23  C   UNL     1      -2.520   9.956  16.622  0.00  0.00    +0.000 C 
ATOM     24  C   UNL     1      -2.579  10.134  18.136  0.00  0.00    +0.000 C 
ENDBRANCH  17  24
ENDBRANCH   1  20
TORSDOF 4
ENDMDL
