MODEL 1
REMARK VINA RESULT:      -7.5      0.000      0.000
REMARK  Name = 
REMARK  3 active torsions:
REMARK  status: ('A' for Active; 'I' for Inactive)
REMARK    1  A    between atoms: C_2  and  C_3
REMARK    2  A    between atoms: C_8  and  C_10
REMARK    3  A    between atoms: C_12  and  C_13
REMARK                            x       y       z     vdW  Elec       q    Type
REMARK                         _______ _______ _______ _____ _____    ______ ____
ROOT
ATOM      1  C   UNL     1       6.467   5.401  16.535  0.00  0.00    +0.000 C 
ATOM      2  C   UNL     1       7.665   4.794  17.282  0.00  0.00    +0.000 C 
ATOM      3  S   UNL     1       7.389   5.082  19.049  0.00  0.00    +0.000 S 
ATOM      4  C   UNL     1       5.619   5.328  18.824  0.00  0.00    +0.000 C 
ATOM      5  N   UNL     1       5.492   5.913  17.512  0.00  0.00    +0.000 N 
ATOM      6  C   UNL     1       4.546   6.849  17.115  0.00  0.00    +0.000 C 
ATOM      7  O   UNL     1       4.440   7.213  15.948  0.00  0.00    +0.000 OA
ENDROOT
BRANCH   1   9
ATOM      8  O   UNL     1       5.114   3.436  16.090  0.00  0.00    +0.000 OA
ATOM      9  C   UNL     1       5.852   4.311  15.627  0.00  0.00    +0.000 C 
ATOM     10  N   UNL     1       6.249   4.290  14.300  0.00  0.00    +0.000 N 
ATOM     11  C   UNL     1       5.708   3.323  13.366  0.00  0.00    +0.000 C 
ATOM     12  C   UNL     1       6.767   3.248  12.280  0.00  0.00    +0.000 C 
ATOM     13  C   UNL     1       7.268   4.686  12.192  0.00  0.00    +0.000 C 
ATOM     14  C   UNL     1       7.138   5.221  13.618  0.00  0.00    +0.000 C 
ENDBRANCH   1   9
BRANCH   6  15
ATOM     15  C   UNL     1       3.721   7.487  18.183  0.00  0.00    +0.000 C 
ATOM     16  C   UNL     1       2.260   7.773  17.967  0.00  0.00    +0.000 C 
ATOM     17  C   UNL     1       2.685   6.795  19.041  0.00  0.00    +0.000 C 
BRANCH  17  18
ATOM     18  C   UNL     1       2.120   5.397  18.921  0.00  0.00    +0.000 A 
ATOM     19  C   UNL     1       2.182   4.631  17.751  0.00  0.00    +0.000 A 
ATOM     20  C   UNL     1       1.703   3.314  17.724  0.00  0.00    +0.000 A 
ATOM     21  C   UNL     1       1.160   2.735  18.868  0.00  0.00    +0.000 A 
ATOM     22  C   UNL     1       1.090   3.470  20.046  0.00  0.00    +0.000 A 
ATOM     23  C   UNL     1       1.562   4.777  20.064  0.00  0.00    +0.000 A 
ENDBRANCH  17  18
ENDBRANCH   6  15
TORSDOF 3
ENDMDL
MODEL 2
REMARK VINA RESULT:      -7.2      0.087      1.005
REMARK  Name = 
REMARK  3 active torsions:
REMARK  status: ('A' for Active; 'I' for Inactive)
REMARK    1  A    between atoms: C_2  and  C_3
REMARK    2  A    between atoms: C_8  and  C_10
REMARK    3  A    between atoms: C_12  and  C_13
REMARK                            x       y       z     vdW  Elec       q    Type
REMARK                         _______ _______ _______ _____ _____    ______ ____
ROOT
ATOM      1  C   UNL     1       6.438   5.406  16.556  0.00  0.00    +0.000 C 
ATOM      2  C   UNL     1       7.642   4.805  17.299  0.00  0.00    +0.000 C 
ATOM      3  S   UNL     1       7.383   5.116  19.064  0.00  0.00    +0.000 S 
ATOM      4  C   UNL     1       5.613   5.363  18.853  0.00  0.00    +0.000 C 
ATOM      5  N   UNL     1       5.474   5.933  17.535  0.00  0.00    +0.000 N 
ATOM      6  C   UNL     1       4.526   6.865  17.136  0.00  0.00    +0.000 C 
ATOM      7  O   UNL     1       4.410   7.215  15.965  0.00  0.00    +0.000 OA
ENDROOT
BRANCH   1   9
ATOM      8  O   UNL     1       5.072   3.442  16.147  0.00  0.00    +0.000 OA
ATOM      9  C   UNL     1       5.813   4.306  15.667  0.00  0.00    +0.000 C 
ATOM     10  N   UNL     1       6.202   4.264  14.338  0.00  0.00    +0.000 N 
ATOM     11  C   UNL     1       5.650   3.286  13.421  0.00  0.00    +0.000 C 
ATOM     12  C   UNL     1       6.703   3.190  12.331  0.00  0.00    +0.000 C 
ATOM     13  C   UNL     1       7.211   4.624  12.218  0.00  0.00    +0.000 C 
ATOM     14  C   UNL     1       7.092   5.180  13.638  0.00  0.00    +0.000 C 
ENDBRANCH   1   9
BRANCH   6  15
ATOM     15  C   UNL     1       3.712   7.518  18.203  0.00  0.00    +0.000 C 
ATOM     16  C   UNL     1       2.241   7.765  18.015  0.00  0.00    +0.000 C 
ATOM     17  C   UNL     1       2.714   6.830  19.108  0.00  0.00    +0.000 C 
BRANCH  17  18
ATOM     18  C   UNL     1       2.177   5.418  19.045  0.00  0.00    +0.000 A 
ATOM     19  C   UNL     1       1.618   4.749  20.141  0.00  0.00    +0.000 A 
ATOM     20  C   UNL     1       1.072   3.466  20.002  0.00  0.00    +0.000 A 
ATOM     21  C   UNL     1       1.068   2.829  18.764  0.00  0.00    +0.000 A 
ATOM     22  C   UNL     1       1.611   3.470  17.657  0.00  0.00    +0.000 A 
ATOM     23  C   UNL     1       2.155   4.741  17.802  0.00  0.00    +0.000 A 
ENDBRANCH  17  18
ENDBRANCH   6  15
TORSDOF 3
ENDMDL
MODEL 3
REMARK VINA RESULT:      -6.6      1.658      6.339
REMARK  Name = 
REMARK  3 active torsions:
REMARK  status: ('A' for Active; 'I' for Inactive)
REMARK    1  A    between atoms: C_2  and  C_3
REMARK    2  A    between atoms: C_8  and  C_10
REMARK    3  A    between atoms: C_12  and  C_13
REMARK                            x       y       z     vdW  Elec       q    Type
REMARK                         _______ _______ _______ _____ _____    ______ ____
ROOT
ATOM      1  C   UNL     1       5.577   4.768  17.738  0.00  0.00    +0.000 C 
ATOM      2  C   UNL     1       6.282   5.168  19.044  0.00  0.00    +0.000 C 
ATOM      3  S   UNL     1       7.675   6.233  18.589  0.00  0.00    +0.000 S 
ATOM      4  C   UNL     1       6.960   6.634  16.986  0.00  0.00    +0.000 C 
ATOM      5  N   UNL     1       6.220   5.456  16.606  0.00  0.00    +0.000 N 
ATOM      6  C   UNL     1       6.050   4.968  15.317  0.00  0.00    +0.000 C 
ATOM      7  O   UNL     1       5.312   4.019  15.072  0.00  0.00    +0.000 OA
ENDROOT
BRANCH   1   9
ATOM      8  O   UNL     1       3.717   6.308  17.978  0.00  0.00    +0.000 OA
ATOM      9  C   UNL     1       4.080   5.134  17.858  0.00  0.00    +0.000 C 
ATOM     10  N   UNL     1       3.174   4.089  17.935  0.00  0.00    +0.000 N 
ATOM     11  C   UNL     1       1.747   4.332  18.022  0.00  0.00    +0.000 C 
ATOM     12  C   UNL     1       1.210   3.063  18.658  0.00  0.00    +0.000 C 
ATOM     13  C   UNL     1       2.094   1.977  18.054  0.00  0.00    +0.000 C 
ATOM     14  C   UNL     1       3.446   2.661  17.848  0.00  0.00    +0.000 C 
ENDBRANCH   1   9
BRANCH   6  15
ATOM     15  C   UNL     1       6.885   5.574  14.239  0.00  0.00    +0.000 C 
ATOM     16  C   UNL     1       8.181   4.940  13.814  0.00  0.00    +0.000 C 
ATOM     17  C   UNL     1       7.037   5.047  12.829  0.00  0.00    +0.000 C 
BRANCH  17  18
ATOM     18  C   UNL     1       6.554   3.743  12.235  0.00  0.00    +0.000 A 
ATOM     19  C   UNL     1       5.203   3.433  12.033  0.00  0.00    +0.000 A 
ATOM     20  C   UNL     1       4.822   2.237  11.411  0.00  0.00    +0.000 A 
ATOM     21  C   UNL     1       5.783   1.330  10.974  0.00  0.00    +0.000 A 
ATOM     22  C   UNL     1       7.131   1.611  11.156  0.00  0.00    +0.000 A 
ATOM     23  C   UNL     1       7.503   2.799  11.777  0.00  0.00    +0.000 A 
ENDBRANCH  17  18
ENDBRANCH   6  15
TORSDOF 3
ENDMDL
MODEL 4
REMARK VINA RESULT:      -6.5      2.690      6.568
REMARK  Name = 
REMARK  3 active torsions:
REMARK  status: ('A' for Active; 'I' for Inactive)
REMARK    1  A    between atoms: C_2  and  C_3
REMARK    2  A    between atoms: C_8  and  C_10
REMARK    3  A    between atoms: C_12  and  C_13
REMARK                            x       y       z     vdW  Elec       q    Type
REMARK                         _______ _______ _______ _____ _____    ______ ____
ROOT
ATOM      1  C   UNL     1       1.916   4.482  18.530  0.00  0.00    +0.000 C 
ATOM      2  C   UNL     1       0.947   3.376  18.976  0.00  0.00    +0.000 C 
ATOM      3  S   UNL     1       1.780   1.794  18.686  0.00  0.00    +0.000 S 
ATOM      4  C   UNL     1       3.411   2.556  18.656  0.00  0.00    +0.000 C 
ATOM      5  N   UNL     1       3.192   3.876  18.116  0.00  0.00    +0.000 N 
ATOM      6  C   UNL     1       4.065   4.591  17.308  0.00  0.00    +0.000 C 
ATOM      7  O   UNL     1       3.846   5.754  16.982  0.00  0.00    +0.000 OA
ENDROOT
BRANCH   1   9
ATOM      8  O   UNL     1       2.289   5.068  20.855  0.00  0.00    +0.000 OA
ATOM      9  C   UNL     1       2.103   5.472  19.703  0.00  0.00    +0.000 C 
ATOM     10  N   UNL     1       1.945   6.821  19.429  0.00  0.00    +0.000 N 
ATOM     11  C   UNL     1       2.127   7.825  20.458  0.00  0.00    +0.000 C 
ATOM     12  C   UNL     1       1.326   9.008  19.943  0.00  0.00    +0.000 C 
ATOM     13  C   UNL     1       1.547   8.941  18.435  0.00  0.00    +0.000 C 
ATOM     14  C   UNL     1       1.686   7.447  18.140  0.00  0.00    +0.000 C 
ENDBRANCH   1   9
BRANCH   6  15
ATOM     15  C   UNL     1       5.240   3.859  16.750  0.00  0.00    +0.000 C 
ATOM     16  C   UNL     1       5.984   4.385  15.553  0.00  0.00    +0.000 C 
ATOM     17  C   UNL     1       6.690   4.268  16.888  0.00  0.00    +0.000 C 
BRANCH  17  18
ATOM     18  C   UNL     1       7.278   5.548  17.437  0.00  0.00    +0.000 A 
ATOM     19  C   UNL     1       7.213   6.781  16.776  0.00  0.00    +0.000 A 
ATOM     20  C   UNL     1       7.713   7.947  17.371  0.00  0.00    +0.000 A 
ATOM     21  C   UNL     1       8.282   7.905  18.641  0.00  0.00    +0.000 A 
ATOM     22  C   UNL     1       8.356   6.697  19.324  0.00  0.00    +0.000 A 
ATOM     23  C   UNL     1       7.862   5.543  18.726  0.00  0.00    +0.000 A 
ENDBRANCH  17  18
ENDBRANCH   6  15
TORSDOF 3
ENDMDL
MODEL 5
REMARK VINA RESULT:      -6.5      1.659      6.385
REMARK  Name = 
REMARK  3 active torsions:
REMARK  status: ('A' for Active; 'I' for Inactive)
REMARK    1  A    between atoms: C_2  and  C_3
REMARK    2  A    between atoms: C_8  and  C_10
REMARK    3  A    between atoms: C_12  and  C_13
REMARK                            x       y       z     vdW  Elec       q    Type
REMARK                         _______ _______ _______ _____ _____    ______ ____
ROOT
ATOM      1  C   UNL     1       5.395   4.561  17.589  0.00  0.00    +0.000 C 
ATOM      2  C   UNL     1       6.058   4.888  18.936  0.00  0.00    +0.000 C 
ATOM      3  S   UNL     1       7.473   5.962  18.583  0.00  0.00    +0.000 S 
ATOM      4  C   UNL     1       6.818   6.449  16.979  0.00  0.00    +0.000 C 
ATOM      5  N   UNL     1       6.082   5.297  16.516  0.00  0.00    +0.000 N 
ATOM      6  C   UNL     1       5.953   4.876  15.199  0.00  0.00    +0.000 C 
ATOM      7  O   UNL     1       5.217   3.947  14.882  0.00  0.00    +0.000 OA
ENDROOT
BRANCH   1   9
ATOM      8  O   UNL     1       3.525   6.107  17.571  0.00  0.00    +0.000 OA
ATOM      9  C   UNL     1       3.898   4.934  17.675  0.00  0.00    +0.000 C 
ATOM     10  N   UNL     1       3.006   3.920  17.984  0.00  0.00    +0.000 N 
ATOM     11  C   UNL     1       1.580   4.167  18.061  0.00  0.00    +0.000 C 
ATOM     12  C   UNL     1       1.074   3.046  18.952  0.00  0.00    +0.000 C 
ATOM     13  C   UNL     1       1.955   1.867  18.552  0.00  0.00    +0.000 C 
ATOM     14  C   UNL     1       3.293   2.505  18.176  0.00  0.00    +0.000 C 
ENDBRANCH   1   9
BRANCH   6  15
ATOM     15  C   UNL     1       6.830   5.527  14.181  0.00  0.00    +0.000 C 
ATOM     16  C   UNL     1       8.154   4.925  13.800  0.00  0.00    +0.000 C 
ATOM     17  C   UNL     1       7.056   5.047  12.764  0.00  0.00    +0.000 C 
BRANCH  17  18
ATOM     18  C   UNL     1       6.622   3.755  12.108  0.00  0.00    +0.000 A 
ATOM     19  C   UNL     1       7.510   2.748  11.712  0.00  0.00    +0.000 A 
ATOM     20  C   UNL     1       7.040   1.542  11.174  0.00  0.00    +0.000 A 
ATOM     21  C   UNL     1       5.674   1.317  11.030  0.00  0.00    +0.000 A 
ATOM     22  C   UNL     1       4.768   2.296  11.419  0.00  0.00    +0.000 A 
ATOM     23  C   UNL     1       5.241   3.492  11.947  0.00  0.00    +0.000 A 
ENDBRANCH  17  18
ENDBRANCH   6  15
TORSDOF 3
ENDMDL
MODEL 6
REMARK VINA RESULT:      -6.4      2.933      5.720
REMARK  Name = 
REMARK  3 active torsions:
REMARK  status: ('A' for Active; 'I' for Inactive)
REMARK    1  A    between atoms: C_2  and  C_3
REMARK    2  A    between atoms: C_8  and  C_10
REMARK    3  A    between atoms: C_12  and  C_13
REMARK                            x       y       z     vdW  Elec       q    Type
REMARK                         _______ _______ _______ _____ _____    ______ ____
ROOT
ATOM      1  C   UNL     1       3.605   4.949  17.724  0.00  0.00    +0.000 C 
ATOM      2  C   UNL     1       4.698   4.402  16.791  0.00  0.00    +0.000 C 
ATOM      3  S   UNL     1       5.417   5.823  15.928  0.00  0.00    +0.000 S 
ATOM      4  C   UNL     1       4.828   6.988  17.168  0.00  0.00    +0.000 C 
ATOM      5  N   UNL     1       3.594   6.419  17.652  0.00  0.00    +0.000 N 
ATOM      6  C   UNL     1       2.469   7.120  18.066  0.00  0.00    +0.000 C 
ATOM      7  O   UNL     1       1.500   6.559  18.568  0.00  0.00    +0.000 OA
ENDROOT
BRANCH   1   9
ATOM      8  O   UNL     1       5.029   4.471  19.630  0.00  0.00    +0.000 OA
ATOM      9  C   UNL     1       3.888   4.445  19.158  0.00  0.00    +0.000 C 
ATOM     10  N   UNL     1       2.836   3.865  19.847  0.00  0.00    +0.000 N 
ATOM     11  C   UNL     1       2.997   3.387  21.207  0.00  0.00    +0.000 C 
ATOM     12  C   UNL     1       1.891   2.357  21.353  0.00  0.00    +0.000 C 
ATOM     13  C   UNL     1       0.751   2.962  20.539  0.00  0.00    +0.000 C 
ATOM     14  C   UNL     1       1.453   3.724  19.414  0.00  0.00    +0.000 C 
ENDBRANCH   1   9
BRANCH   6  15
ATOM     15  C   UNL     1       2.429   8.585  17.781  0.00  0.00    +0.000 C 
ATOM     16  C   UNL     1       1.134   9.276  17.455  0.00  0.00    +0.000 C 
ATOM     17  C   UNL     1       1.897   9.658  18.706  0.00  0.00    +0.000 C 
BRANCH  17  18
ATOM     18  C   UNL     1       1.143   9.513  20.008  0.00  0.00    +0.000 A 
ATOM     19  C   UNL     1       1.457   8.564  20.988  0.00  0.00    +0.000 A 
ATOM     20  C   UNL     1       0.766   8.527  22.206  0.00  0.00    +0.000 A 
ATOM     21  C   UNL     1      -0.248   9.443  22.472  0.00  0.00    +0.000 A 
ATOM     22  C   UNL     1      -0.579  10.401  21.521  0.00  0.00    +0.000 A 
ATOM     23  C   UNL     1       0.108  10.429  20.312  0.00  0.00    +0.000 A 
ENDBRANCH  17  18
ENDBRANCH   6  15
TORSDOF 3
ENDMDL
MODEL 7
REMARK VINA RESULT:      -6.4      2.001      6.342
REMARK  Name = 
REMARK  3 active torsions:
REMARK  status: ('A' for Active; 'I' for Inactive)
REMARK    1  A    between atoms: C_2  and  C_3
REMARK    2  A    between atoms: C_8  and  C_10
REMARK    3  A    between atoms: C_12  and  C_13
REMARK                            x       y       z     vdW  Elec       q    Type
REMARK                         _______ _______ _______ _____ _____    ______ ____
ROOT
ATOM      1  C   UNL     1       3.130   5.449  17.932  0.00  0.00    +0.000 C 
ATOM      2  C   UNL     1       2.412   4.090  17.942  0.00  0.00    +0.000 C 
ATOM      3  S   UNL     1       3.696   2.813  17.884  0.00  0.00    +0.000 S 
ATOM      4  C   UNL     1       4.969   3.938  18.479  0.00  0.00    +0.000 C 
ATOM      5  N   UNL     1       4.585   5.232  17.968  0.00  0.00    +0.000 N 
ATOM      6  C   UNL     1       5.443   6.246  17.564  0.00  0.00    +0.000 C 
ATOM      7  O   UNL     1       5.032   7.358  17.245  0.00  0.00    +0.000 OA
ENDROOT
BRANCH   1   9
ATOM      8  O   UNL     1       2.546   5.761  20.266  0.00  0.00    +0.000 OA
ATOM      9  C   UNL     1       2.640   6.271  19.146  0.00  0.00    +0.000 C 
ATOM     10  N   UNL     1       2.208   7.565  18.905  0.00  0.00    +0.000 N 
ATOM     11  C   UNL     1       1.756   8.422  19.983  0.00  0.00    +0.000 C 
ATOM     12  C   UNL     1       0.867   9.435  19.282  0.00  0.00    +0.000 C 
ATOM     13  C   UNL     1       1.576   9.645  17.948  0.00  0.00    +0.000 C 
ATOM     14  C   UNL     1       2.217   8.290  17.642  0.00  0.00    +0.000 C 
ENDBRANCH   1   9
BRANCH   6  15
ATOM     15  C   UNL     1       6.890   5.907  17.424  0.00  0.00    +0.000 C 
ATOM     16  C   UNL     1       7.358   4.478  17.459  0.00  0.00    +0.000 C 
ATOM     17  C   UNL     1       7.549   5.303  16.204  0.00  0.00    +0.000 C 
BRANCH  17  18
ATOM     18  C   UNL     1       6.915   4.749  14.947  0.00  0.00    +0.000 A 
ATOM     19  C   UNL     1       5.657   4.134  14.916  0.00  0.00    +0.000 A 
ATOM     20  C   UNL     1       5.093   3.705  13.708  0.00  0.00    +0.000 A 
ATOM     21  C   UNL     1       5.771   3.888  12.506  0.00  0.00    +0.000 A 
ATOM     22  C   UNL     1       7.019   4.499  12.504  0.00  0.00    +0.000 A 
ATOM     23  C   UNL     1       7.576   4.918  13.708  0.00  0.00    +0.000 A 
ENDBRANCH  17  18
ENDBRANCH   6  15
TORSDOF 3
ENDMDL
MODEL 8
REMARK VINA RESULT:      -6.4      2.725      6.625
REMARK  Name = 
REMARK  3 active torsions:
REMARK  status: ('A' for Active; 'I' for Inactive)
REMARK    1  A    between atoms: C_2  and  C_3
REMARK    2  A    between atoms: C_8  and  C_10
REMARK    3  A    between atoms: C_12  and  C_13
REMARK                            x       y       z     vdW  Elec       q    Type
REMARK                         _______ _______ _______ _____ _____    ______ ____
ROOT
ATOM      1  C   UNL     1       2.043   4.511  18.469  0.00  0.00    +0.000 C 
ATOM      2  C   UNL     1       1.102   3.365  18.871  0.00  0.00    +0.000 C 
ATOM      3  S   UNL     1       2.028   1.822  18.666  0.00  0.00    +0.000 S 
ATOM      4  C   UNL     1       3.618   2.663  18.730  0.00  0.00    +0.000 C 
ATOM      5  N   UNL     1       3.372   3.962  18.152  0.00  0.00    +0.000 N 
ATOM      6  C   UNL     1       4.261   4.707  17.388  0.00  0.00    +0.000 C 
ATOM      7  O   UNL     1       4.008   5.852  17.027  0.00  0.00    +0.000 OA
ENDROOT
BRANCH   1   9
ATOM      8  O   UNL     1       2.174   5.149  20.806  0.00  0.00    +0.000 OA
ATOM      9  C   UNL     1       2.104   5.527  19.632  0.00  0.00    +0.000 C 
ATOM     10  N   UNL     1       1.965   6.868  19.314  0.00  0.00    +0.000 N 
ATOM     11  C   UNL     1       2.035   7.896  20.334  0.00  0.00    +0.000 C 
ATOM     12  C   UNL     1       1.281   9.060  19.714  0.00  0.00    +0.000 C 
ATOM     13  C   UNL     1       1.655   8.962  18.238  0.00  0.00    +0.000 C 
ATOM     14  C   UNL     1       1.834   7.464  17.992  0.00  0.00    +0.000 C 
ENDBRANCH   1   9
BRANCH   6  15
ATOM     15  C   UNL     1       5.505   4.026  16.923  0.00  0.00    +0.000 C 
ATOM     16  C   UNL     1       6.291   4.559  15.757  0.00  0.00    +0.000 C 
ATOM     17  C   UNL     1       6.920   4.517  17.133  0.00  0.00    +0.000 C 
BRANCH  17  18
ATOM     18  C   UNL     1       7.405   5.842  17.677  0.00  0.00    +0.000 A 
ATOM     19  C   UNL     1       8.028   5.991  18.922  0.00  0.00    +0.000 A 
ATOM     20  C   UNL     1       8.520   7.235  19.339  0.00  0.00    +0.000 A 
ATOM     21  C   UNL     1       8.405   8.353  18.518  0.00  0.00    +0.000 A 
ATOM     22  C   UNL     1       7.795   8.235  17.274  0.00  0.00    +0.000 A 
ATOM     23  C   UNL     1       7.305   6.999  16.868  0.00  0.00    +0.000 A 
ENDBRANCH  17  18
ENDBRANCH   6  15
TORSDOF 3
ENDMDL
MODEL 9
REMARK VINA RESULT:      -6.4      3.083      5.230
REMARK  Name = 
REMARK  3 active torsions:
REMARK  status: ('A' for Active; 'I' for Inactive)
REMARK    1  A    between atoms: C_2  and  C_3
REMARK    2  A    between atoms: C_8  and  C_10
REMARK    3  A    between atoms: C_12  and  C_13
REMARK                            x       y       z     vdW  Elec       q    Type
REMARK                         _______ _______ _______ _____ _____    ______ ____
ROOT
ATOM      1  C   UNL     1       3.353   4.655  19.696  0.00  0.00    +0.000 C 
ATOM      2  C   UNL     1       3.386   3.217  20.239  0.00  0.00    +0.000 C 
ATOM      3  S   UNL     1       1.944   3.025  21.318  0.00  0.00    +0.000 S 
ATOM      4  C   UNL     1       1.083   4.417  20.566  0.00  0.00    +0.000 C 
ATOM      5  N   UNL     1       2.130   5.326  20.168  0.00  0.00    +0.000 N 
ATOM      6  C   UNL     1       2.060   6.713  20.164  0.00  0.00    +0.000 C 
ATOM      7  O   UNL     1       2.961   7.409  19.705  0.00  0.00    +0.000 OA
ENDROOT
BRANCH   1   9
ATOM      8  O   UNL     1       2.399   4.433  17.476  0.00  0.00    +0.000 OA
ATOM      9  C   UNL     1       3.418   4.598  18.153  0.00  0.00    +0.000 C 
ATOM     10  N   UNL     1       4.674   4.628  17.568  0.00  0.00    +0.000 N 
ATOM     11  C   UNL     1       4.836   4.606  16.127  0.00  0.00    +0.000 C 
ATOM     12  C   UNL     1       6.244   4.071  15.938  0.00  0.00    +0.000 C 
ATOM     13  C   UNL     1       7.004   4.684  17.110  0.00  0.00    +0.000 C 
ATOM     14  C   UNL     1       5.964   4.778  18.227  0.00  0.00    +0.000 C 
ENDBRANCH   1   9
BRANCH   6  15
ATOM     15  C   UNL     1       0.889   7.343  20.840  0.00  0.00    +0.000 C 
ATOM     16  C   UNL     1       1.079   8.386  21.908  0.00  0.00    +0.000 C 
ATOM     17  C   UNL     1       0.381   8.750  20.614  0.00  0.00    +0.000 C 
BRANCH  17  18
ATOM     18  C   UNL     1       1.004   9.879  19.824  0.00  0.00    +0.000 A 
ATOM     19  C   UNL     1       1.489   9.739  18.518  0.00  0.00    +0.000 A 
ATOM     20  C   UNL     1       1.990  10.841  17.812  0.00  0.00    +0.000 A 
ATOM     21  C   UNL     1       2.009  12.105  18.394  0.00  0.00    +0.000 A 
ATOM     22  C   UNL     1       1.530  12.276  19.688  0.00  0.00    +0.000 A 
ATOM     23  C   UNL     1       1.039  11.178  20.384  0.00  0.00    +0.000 A 
ENDBRANCH  17  18
ENDBRANCH   6  15
TORSDOF 3
ENDMDL
