MODEL 1
REMARK VINA RESULT:      -8.5      0.000      0.000
REMARK  Name = 
REMARK  10 active torsions:
REMARK  status: ('A' for Active; 'I' for Inactive)
REMARK    1  A    between atoms: O_1  and  C_2
REMARK    2  A    between atoms: C_2  and  C_3
REMARK    3  A    between atoms: C_3  and  C_4
REMARK    4  A    between atoms: C_4  and  C_5
REMARK    5  A    between atoms: C_5  and  C_6
REMARK    6  A    between atoms: N_14  and  C_15
REMARK    7  A    between atoms: C_15  and  C_16
REMARK    8  A    between atoms: N_18  and  C_19
REMARK    9  A    between atoms: C_19  and  C_20
REMARK   10  A    between atoms: C_27  and  C_28
REMARK                            x       y       z     vdW  Elec       q    Type
REMARK                         _______ _______ _______ _____ _____    ______ ____
ROOT
ATOM      1  C   UNL     1       2.167   7.682  17.893  0.00  0.00    +0.000 C 
ENDROOT
BRANCH   1   5
ATOM      2  C   UNL     1       0.192  10.860  20.129  0.00  0.00    +0.000 C 
ATOM      3  C   UNL     1       0.889  11.138  18.794  0.00  0.00    +0.000 C 
ATOM      4  C   UNL     1       1.065   9.860  17.976  0.00  0.00    +0.000 C 
ATOM      5  N   UNL     1       1.841   8.862  18.725  0.00  0.00    +0.000 NA
ATOM      6  C   UNL     1       1.154   8.501  19.971  0.00  0.00    +0.000 C 
ATOM      7  C   UNL     1       0.937   9.737  20.864  0.00  0.00    +0.000 C 
BRANCH   2   8
ATOM      8  O   UNL     1      -1.146  10.416  19.866  0.00  0.00    +0.000 OA
ATOM      9  H   UNL     1      -1.742  10.881  20.478  0.00  0.00    +0.000 HD
ENDBRANCH   2   8
BRANCH   2  10
ATOM     10  C   UNL     1       0.113  12.167  20.951  0.00  0.00    +0.000 C 
BRANCH  10  11
ATOM     11  C   UNL     1      -0.965  12.150  22.038  0.00  0.00    +0.000 C 
BRANCH  11  12
ATOM     12  C   UNL     1      -2.047  13.205  21.789  0.00  0.00    +0.000 C 
BRANCH  12  13
ATOM     13  C   UNL     1      -3.278  12.897  22.596  0.00  0.00    +0.000 A 
ATOM     14  C   UNL     1      -3.219  12.748  23.983  0.00  0.00    +0.000 A 
ATOM     15  C   UNL     1      -4.391  12.531  24.703  0.00  0.00    +0.000 A 
ATOM     16  C   UNL     1      -5.587  12.474  24.007  0.00  0.00    +0.000 A 
ATOM     17  N   UNL     1      -5.685  12.610  22.668  0.00  0.00    +0.000 NA
ATOM     18  C   UNL     1      -4.531  12.821  21.996  0.00  0.00    +0.000 A 
ENDBRANCH  12  13
ENDBRANCH  11  12
ENDBRANCH  10  11
ENDBRANCH   2  10
ENDBRANCH   1   5
BRANCH   1  19
ATOM     19  C   UNL     1       3.450   6.992  18.415  0.00  0.00    +0.000 C 
ATOM     20  C   UNL     1       3.128   5.760  19.259  0.00  0.00    +0.000 C 
ATOM     21  N   UNL     1       3.082   4.597  18.351  0.00  0.00    +0.000 NA
ATOM     22  C   UNL     1       3.831   4.980  17.134  0.00  0.00    +0.000 C 
ATOM     23  C   UNL     1       4.359   6.416  17.315  0.00  0.00    +0.000 C 
BRANCH  23  24
ATOM     24  C   UNL     1       5.828   6.538  17.736  0.00  0.00    +0.000 A 
ATOM     25  C   UNL     1       6.570   7.664  17.338  0.00  0.00    +0.000 A 
ATOM     26  C   UNL     1       7.870   7.874  17.814  0.00  0.00    +0.000 A 
ATOM     27  C   UNL     1       8.445   6.970  18.704  0.00  0.00    +0.000 A 
ATOM     28  C   UNL     1       7.732   5.841  19.095  0.00  0.00    +0.000 A 
ATOM     29  C   UNL     1       6.442   5.622  18.605  0.00  0.00    +0.000 A 
ENDBRANCH  23  24
BRANCH  21  30
ATOM     30  C   UNL     1       1.701   4.157  18.087  0.00  0.00    +0.000 C 
BRANCH  30  31
ATOM     31  C   UNL     1       1.354   2.780  18.710  0.00  0.00    +0.000 C 
ATOM     32  C   UNL     1       2.588   1.901  18.939  0.00  0.00    +0.000 C 
ATOM     33  C   UNL     1       3.470   2.412  20.069  0.00  0.00    +0.000 C 
ATOM     34  C   UNL     1       2.696   2.506  21.378  0.00  0.00    +0.000 C 
ATOM     35  C   UNL     1       1.390   3.285  21.250  0.00  0.00    +0.000 C 
ATOM     36  C   UNL     1       0.558   2.920  20.021  0.00  0.00    +0.000 C 
ENDBRANCH  30  31
ENDBRANCH  21  30
ENDBRANCH   1  19
TORSDOF 10
ENDMDL
MODEL 2
REMARK VINA RESULT:      -8.4      1.005      1.156
REMARK  Name = 
REMARK  10 active torsions:
REMARK  status: ('A' for Active; 'I' for Inactive)
REMARK    1  A    between atoms: O_1  and  C_2
REMARK    2  A    between atoms: C_2  and  C_3
REMARK    3  A    between atoms: C_3  and  C_4
REMARK    4  A    between atoms: C_4  and  C_5
REMARK    5  A    between atoms: C_5  and  C_6
REMARK    6  A    between atoms: N_14  and  C_15
REMARK    7  A    between atoms: C_15  and  C_16
REMARK    8  A    between atoms: N_18  and  C_19
REMARK    9  A    between atoms: C_19  and  C_20
REMARK   10  A    between atoms: C_27  and  C_28
REMARK                            x       y       z     vdW  Elec       q    Type
REMARK                         _______ _______ _______ _____ _____    ______ ____
ROOT
ATOM      1  C   UNL     1       2.130   7.877  17.739  0.00  0.00    +0.000 C 
ENDROOT
BRANCH   1   5
ATOM      2  C   UNL     1       0.464  11.635  19.191  0.00  0.00    +0.000 C 
ATOM      3  C   UNL     1       1.903  11.547  18.676  0.00  0.00    +0.000 C 
ATOM      4  C   UNL     1       2.107  10.320  17.789  0.00  0.00    +0.000 C 
ATOM      5  N   UNL     1       1.782   9.087  18.519  0.00  0.00    +0.000 NA
ATOM      6  C   UNL     1       0.378   9.095  18.949  0.00  0.00    +0.000 C 
ATOM      7  C   UNL     1       0.082  10.304  19.856  0.00  0.00    +0.000 C 
BRANCH   2   8
ATOM      8  O   UNL     1      -0.412  11.848  18.077  0.00  0.00    +0.000 OA
ATOM      9  H   UNL     1      -0.705  12.776  18.099  0.00  0.00    +0.000 HD
ENDBRANCH   2   8
BRANCH   2  10
ATOM     10  C   UNL     1       0.332  12.843  20.147  0.00  0.00    +0.000 C 
BRANCH  10  11
ATOM     11  C   UNL     1      -0.022  12.457  21.585  0.00  0.00    +0.000 C 
BRANCH  11  12
ATOM     12  C   UNL     1      -0.386  13.680  22.434  0.00  0.00    +0.000 C 
BRANCH  12  13
ATOM     13  C   UNL     1      -1.646  13.424  23.213  0.00  0.00    +0.000 A 
ATOM     14  C   UNL     1      -2.206  14.405  24.033  0.00  0.00    +0.000 A 
ATOM     15  C   UNL     1      -3.411  14.154  24.684  0.00  0.00    +0.000 A 
ATOM     16  C   UNL     1      -4.018  12.924  24.490  0.00  0.00    +0.000 A 
ATOM     17  N   UNL     1      -3.507  11.950  23.709  0.00  0.00    +0.000 NA
ATOM     18  C   UNL     1      -2.338  12.223  23.088  0.00  0.00    +0.000 A 
ENDBRANCH  12  13
ENDBRANCH  11  12
ENDBRANCH  10  11
ENDBRANCH   2  10
ENDBRANCH   1   5
BRANCH   1  19
ATOM     19  C   UNL     1       3.389   7.199  18.330  0.00  0.00    +0.000 C 
ATOM     20  C   UNL     1       3.025   6.065  19.287  0.00  0.00    +0.000 C 
ATOM     21  N   UNL     1       2.940   4.822  18.496  0.00  0.00    +0.000 NA
ATOM     22  C   UNL     1       3.701   5.061  17.251  0.00  0.00    +0.000 C 
ATOM     23  C   UNL     1       4.278   6.489  17.294  0.00  0.00    +0.000 C 
BRANCH  23  24
ATOM     24  C   UNL     1       5.750   6.602  17.706  0.00  0.00    +0.000 A 
ATOM     25  C   UNL     1       6.505   7.708  17.279  0.00  0.00    +0.000 A 
ATOM     26  C   UNL     1       7.809   7.912  17.744  0.00  0.00    +0.000 A 
ATOM     27  C   UNL     1       8.377   7.022  18.653  0.00  0.00    +0.000 A 
ATOM     28  C   UNL     1       7.651   5.912  19.073  0.00  0.00    +0.000 A 
ATOM     29  C   UNL     1       6.355   5.698  18.594  0.00  0.00    +0.000 A 
ENDBRANCH  23  24
BRANCH  21  30
ATOM     30  C   UNL     1       1.545   4.406  18.271  0.00  0.00    +0.000 C 
BRANCH  30  31
ATOM     31  C   UNL     1       1.218   2.992  18.820  0.00  0.00    +0.000 C 
ATOM     32  C   UNL     1       2.447   2.078  18.880  0.00  0.00    +0.000 C 
ATOM     33  C   UNL     1       3.430   2.490  19.968  0.00  0.00    +0.000 C 
ATOM     34  C   UNL     1       2.768   2.500  21.340  0.00  0.00    +0.000 C 
ATOM     35  C   UNL     1       1.474   3.307  21.378  0.00  0.00    +0.000 C 
ATOM     36  C   UNL     1       0.536   3.049  20.199  0.00  0.00    +0.000 C 
ENDBRANCH  30  31
ENDBRANCH  21  30
ENDBRANCH   1  19
TORSDOF 10
ENDMDL
MODEL 3
REMARK VINA RESULT:      -8.4      0.742      1.130
REMARK  Name = 
REMARK  10 active torsions:
REMARK  status: ('A' for Active; 'I' for Inactive)
REMARK    1  A    between atoms: O_1  and  C_2
REMARK    2  A    between atoms: C_2  and  C_3
REMARK    3  A    between atoms: C_3  and  C_4
REMARK    4  A    between atoms: C_4  and  C_5
REMARK    5  A    between atoms: C_5  and  C_6
REMARK    6  A    between atoms: N_14  and  C_15
REMARK    7  A    between atoms: C_15  and  C_16
REMARK    8  A    between atoms: N_18  and  C_19
REMARK    9  A    between atoms: C_19  and  C_20
REMARK   10  A    between atoms: C_27  and  C_28
REMARK                            x       y       z     vdW  Elec       q    Type
REMARK                         _______ _______ _______ _____ _____    ______ ____
ROOT
ATOM      1  C   UNL     1       2.171   7.843  17.689  0.00  0.00    +0.000 C 
ENDROOT
BRANCH   1   5
ATOM      2  C   UNL     1       0.334  10.001  21.001  0.00  0.00    +0.000 C 
ATOM      3  C   UNL     1       0.956   8.616  21.198  0.00  0.00    +0.000 C 
ATOM      4  C   UNL     1       1.942   8.279  20.081  0.00  0.00    +0.000 C 
ATOM      5  N   UNL     1       1.282   8.327  18.769  0.00  0.00    +0.000 NA
ATOM      6  C   UNL     1       0.753   9.671  18.505  0.00  0.00    +0.000 C 
ATOM      7  C   UNL     1      -0.259  10.092  19.587  0.00  0.00    +0.000 C 
BRANCH   2   8
ATOM      8  O   UNL     1       1.364  10.991  21.122  0.00  0.00    +0.000 OA
ATOM      9  H   UNL     1       1.169  11.705  20.490  0.00  0.00    +0.000 HD
ENDBRANCH   2   8
BRANCH   2  10
ATOM     10  C   UNL     1      -0.714  10.258  22.108  0.00  0.00    +0.000 C 
BRANCH  10  11
ATOM     11  C   UNL     1      -0.800  11.721  22.551  0.00  0.00    +0.000 C 
BRANCH  11  12
ATOM     12  C   UNL     1      -1.883  12.489  21.786  0.00  0.00    +0.000 C 
BRANCH  12  13
ATOM     13  C   UNL     1      -3.167  12.507  22.568  0.00  0.00    +0.000 A 
ATOM     14  C   UNL     1      -3.171  12.426  23.962  0.00  0.00    +0.000 A 
ATOM     15  C   UNL     1      -4.375  12.515  24.654  0.00  0.00    +0.000 A 
ATOM     16  C   UNL     1      -5.541  12.684  23.924  0.00  0.00    +0.000 A 
ATOM     17  N   UNL     1      -5.579  12.763  22.577  0.00  0.00    +0.000 NA
ATOM     18  C   UNL     1      -4.394  12.676  21.933  0.00  0.00    +0.000 A 
ENDBRANCH  12  13
ENDBRANCH  11  12
ENDBRANCH  10  11
ENDBRANCH   2  10
ENDBRANCH   1   5
BRANCH   1  19
ATOM     19  C   UNL     1       3.417   7.146  18.287  0.00  0.00    +0.000 C 
ATOM     20  C   UNL     1       3.034   5.968  19.178  0.00  0.00    +0.000 C 
ATOM     21  N   UNL     1       2.983   4.762  18.328  0.00  0.00    +0.000 NA
ATOM     22  C   UNL     1       3.781   5.063  17.119  0.00  0.00    +0.000 C 
ATOM     23  C   UNL     1       4.344   6.492  17.247  0.00  0.00    +0.000 C 
BRANCH  23  24
ATOM     24  C   UNL     1       5.801   6.596  17.709  0.00  0.00    +0.000 A 
ATOM     25  C   UNL     1       6.571   7.709  17.327  0.00  0.00    +0.000 A 
ATOM     26  C   UNL     1       7.858   7.903  17.839  0.00  0.00    +0.000 A 
ATOM     27  C   UNL     1       8.395   6.997  18.750  0.00  0.00    +0.000 A 
ATOM     28  C   UNL     1       7.655   5.880  19.126  0.00  0.00    +0.000 A 
ATOM     29  C   UNL     1       6.377   5.676  18.601  0.00  0.00    +0.000 A 
ENDBRANCH  23  24
BRANCH  21  30
ATOM     30  C   UNL     1       1.599   4.346  18.041  0.00  0.00    +0.000 C 
BRANCH  30  31
ATOM     31  C   UNL     1       1.221   2.970  18.648  0.00  0.00    +0.000 C 
ATOM     32  C   UNL     1       2.425   2.034  18.798  0.00  0.00    +0.000 C 
ATOM     33  C   UNL     1       3.379   2.479  19.897  0.00  0.00    +0.000 C 
ATOM     34  C   UNL     1       2.672   2.574  21.243  0.00  0.00    +0.000 C 
ATOM     35  C   UNL     1       1.396   3.411  21.195  0.00  0.00    +0.000 C 
ATOM     36  C   UNL     1       0.494   3.113  19.998  0.00  0.00    +0.000 C 
ENDBRANCH  30  31
ENDBRANCH  21  30
ENDBRANCH   1  19
TORSDOF 10
ENDMDL
MODEL 4
REMARK VINA RESULT:      -8.3      2.673      4.004
REMARK  Name = 
REMARK  10 active torsions:
REMARK  status: ('A' for Active; 'I' for Inactive)
REMARK    1  A    between atoms: O_1  and  C_2
REMARK    2  A    between atoms: C_2  and  C_3
REMARK    3  A    between atoms: C_3  and  C_4
REMARK    4  A    between atoms: C_4  and  C_5
REMARK    5  A    between atoms: C_5  and  C_6
REMARK    6  A    between atoms: N_14  and  C_15
REMARK    7  A    between atoms: C_15  and  C_16
REMARK    8  A    between atoms: N_18  and  C_19
REMARK    9  A    between atoms: C_19  and  C_20
REMARK   10  A    between atoms: C_27  and  C_28
REMARK                            x       y       z     vdW  Elec       q    Type
REMARK                         _______ _______ _______ _____ _____    ______ ____
ROOT
ATOM      1  C   UNL     1       2.099   7.674  18.055  0.00  0.00    +0.000 C 
ENDROOT
BRANCH   1   5
ATOM      2  C   UNL     1       0.416  11.156  20.068  0.00  0.00    +0.000 C 
ATOM      3  C   UNL     1       1.201  11.292  18.760  0.00  0.00    +0.000 C 
ATOM      4  C   UNL     1       1.260   9.968  18.000  0.00  0.00    +0.000 C 
ATOM      5  N   UNL     1       1.877   8.919  18.825  0.00  0.00    +0.000 NA
ATOM      6  C   UNL     1       1.097   8.695  20.048  0.00  0.00    +0.000 C 
ATOM      7  C   UNL     1       0.989   9.986  20.882  0.00  0.00    +0.000 C 
BRANCH   2   8
ATOM      8  O   UNL     1      -0.952  10.859  19.756  0.00  0.00    +0.000 OA
ATOM      9  H   UNL     1      -1.389  11.692  19.508  0.00  0.00    +0.000 HD
ENDBRANCH   2   8
BRANCH   2  10
ATOM     10  C   UNL     1       0.456  12.497  20.835  0.00  0.00    +0.000 C 
BRANCH  10  11
ATOM     11  C   UNL     1       0.173  13.719  19.959  0.00  0.00    +0.000 C 
BRANCH  11  12
ATOM     12  C   UNL     1       0.892  14.972  20.470  0.00  0.00    +0.000 C 
BRANCH  12  13
ATOM     13  C   UNL     1       1.733  15.577  19.381  0.00  0.00    +0.000 A 
ATOM     14  C   UNL     1       2.670  14.817  18.677  0.00  0.00    +0.000 A 
ATOM     15  C   UNL     1       3.380  15.396  17.629  0.00  0.00    +0.000 A 
ATOM     16  C   UNL     1       3.126  16.722  17.317  0.00  0.00    +0.000 A 
ATOM     17  N   UNL     1       2.232  17.490  17.975  0.00  0.00    +0.000 NA
ATOM     18  C   UNL     1       1.556  16.900  18.986  0.00  0.00    +0.000 A 
ENDBRANCH  12  13
ENDBRANCH  11  12
ENDBRANCH  10  11
ENDBRANCH   2  10
ENDBRANCH   1   5
BRANCH   1  19
ATOM     19  C   UNL     1       3.399   6.976  18.521  0.00  0.00    +0.000 C 
ATOM     20  C   UNL     1       3.106   5.719  19.338  0.00  0.00    +0.000 C 
ATOM     21  N   UNL     1       3.039   4.582  18.399  0.00  0.00    +0.000 NA
ATOM     22  C   UNL     1       3.750   5.003  17.173  0.00  0.00    +0.000 C 
ATOM     23  C   UNL     1       4.278   6.436  17.379  0.00  0.00    +0.000 C 
BRANCH  23  24
ATOM     24  C   UNL     1       5.758   6.553  17.761  0.00  0.00    +0.000 A 
ATOM     25  C   UNL     1       6.508   7.646  17.293  0.00  0.00    +0.000 A 
ATOM     26  C   UNL     1       7.821   7.857  17.729  0.00  0.00    +0.000 A 
ATOM     27  C   UNL     1       8.403   6.987  18.649  0.00  0.00    +0.000 A 
ATOM     28  C   UNL     1       7.681   5.890  19.109  0.00  0.00    +0.000 A 
ATOM     29  C   UNL     1       6.377   5.669  18.660  0.00  0.00    +0.000 A 
ENDBRANCH  23  24
BRANCH  21  30
ATOM     30  C   UNL     1       1.652   4.143  18.163  0.00  0.00    +0.000 C 
BRANCH  30  31
ATOM     31  C   UNL     1       1.314   2.771  18.802  0.00  0.00    +0.000 C 
ATOM     32  C   UNL     1       2.549   1.888  19.008  0.00  0.00    +0.000 C 
ATOM     33  C   UNL     1       3.458   2.403  20.116  0.00  0.00    +0.000 C 
ATOM     34  C   UNL     1       2.714   2.507  21.440  0.00  0.00    +0.000 C 
ATOM     35  C   UNL     1       1.408   3.290  21.337  0.00  0.00    +0.000 C 
ATOM     36  C   UNL     1       0.548   2.922  20.128  0.00  0.00    +0.000 C 
ENDBRANCH  30  31
ENDBRANCH  21  30
ENDBRANCH   1  19
TORSDOF 10
ENDMDL
MODEL 5
REMARK VINA RESULT:      -8.1      1.332      1.533
REMARK  Name = 
REMARK  10 active torsions:
REMARK  status: ('A' for Active; 'I' for Inactive)
REMARK    1  A    between atoms: O_1  and  C_2
REMARK    2  A    between atoms: C_2  and  C_3
REMARK    3  A    between atoms: C_3  and  C_4
REMARK    4  A    between atoms: C_4  and  C_5
REMARK    5  A    between atoms: C_5  and  C_6
REMARK    6  A    between atoms: N_14  and  C_15
REMARK    7  A    between atoms: C_15  and  C_16
REMARK    8  A    between atoms: N_18  and  C_19
REMARK    9  A    between atoms: C_19  and  C_20
REMARK   10  A    between atoms: C_27  and  C_28
REMARK                            x       y       z     vdW  Elec       q    Type
REMARK                         _______ _______ _______ _____ _____    ______ ____
ROOT
ATOM      1  C   UNL     1       2.164   7.977  17.413  0.00  0.00    +0.000 C 
ENDROOT
BRANCH   1   5
ATOM      2  C   UNL     1       0.169  11.476  19.079  0.00  0.00    +0.000 C 
ATOM      3  C   UNL     1       1.687  11.301  19.177  0.00  0.00    +0.000 C 
ATOM      4  C   UNL     1       2.206  10.309  18.138  0.00  0.00    +0.000 C 
ATOM      5  N   UNL     1       1.559   8.999  18.297  0.00  0.00    +0.000 NA
ATOM      6  C   UNL     1       0.107   9.113  18.116  0.00  0.00    +0.000 C 
ATOM      7  C   UNL     1      -0.504  10.096  19.132  0.00  0.00    +0.000 C 
BRANCH   2   8
ATOM      8  O   UNL     1      -0.145  12.081  17.818  0.00  0.00    +0.000 OA
ATOM      9  H   UNL     1      -0.911  11.613  17.444  0.00  0.00    +0.000 HD
ENDBRANCH   2   8
BRANCH   2  10
ATOM     10  C   UNL     1      -0.314  12.422  20.202  0.00  0.00    +0.000 C 
BRANCH  10  11
ATOM     11  C   UNL     1      -1.342  11.790  21.144  0.00  0.00    +0.000 C 
BRANCH  11  12
ATOM     12  C   UNL     1      -0.929  11.918  22.614  0.00  0.00    +0.000 C 
BRANCH  12  13
ATOM     13  C   UNL     1      -1.817  12.901  23.326  0.00  0.00    +0.000 A 
ATOM     14  C   UNL     1      -3.135  12.581  23.658  0.00  0.00    +0.000 A 
ATOM     15  C   UNL     1      -3.903  13.492  24.379  0.00  0.00    +0.000 A 
ATOM     16  C   UNL     1      -3.324  14.695  24.746  0.00  0.00    +0.000 A 
ATOM     17  N   UNL     1      -2.056  15.041  24.440  0.00  0.00    +0.000 NA
ATOM     18  C   UNL     1      -1.333  14.137  23.743  0.00  0.00    +0.000 A 
ENDBRANCH  12  13
ENDBRANCH  11  12
ENDBRANCH  10  11
ENDBRANCH   2  10
ENDBRANCH   1   5
BRANCH   1  19
ATOM     19  C   UNL     1       3.389   7.327  18.099  0.00  0.00    +0.000 C 
ATOM     20  C   UNL     1       2.973   6.266  19.115  0.00  0.00    +0.000 C 
ATOM     21  N   UNL     1       2.902   4.972  18.407  0.00  0.00    +0.000 NA
ATOM     22  C   UNL     1       3.715   5.116  17.181  0.00  0.00    +0.000 C 
ATOM     23  C   UNL     1       4.309   6.538  17.150  0.00  0.00    +0.000 C 
BRANCH  23  24
ATOM     24  C   UNL     1       5.765   6.663  17.613  0.00  0.00    +0.000 A 
ATOM     25  C   UNL     1       6.504   7.810  17.271  0.00  0.00    +0.000 A 
ATOM     26  C   UNL     1       7.787   8.019  17.787  0.00  0.00    +0.000 A 
ATOM     27  C   UNL     1       8.351   7.094  18.662  0.00  0.00    +0.000 A 
ATOM     28  C   UNL     1       7.642   5.944  18.998  0.00  0.00    +0.000 A 
ATOM     29  C   UNL     1       6.367   5.726  18.469  0.00  0.00    +0.000 A 
ENDBRANCH  23  24
BRANCH  21  30
ATOM     30  C   UNL     1       1.512   4.556  18.156  0.00  0.00    +0.000 C 
BRANCH  30  31
ATOM     31  C   UNL     1       1.141   3.193  18.796  0.00  0.00    +0.000 C 
ATOM     32  C   UNL     1       2.285   2.175  18.735  0.00  0.00    +0.000 C 
ATOM     33  C   UNL     1       3.433   2.528  19.671  0.00  0.00    +0.000 C 
ATOM     34  C   UNL     1       2.958   2.634  21.115  0.00  0.00    +0.000 C 
ATOM     35  C   UNL     1       1.753   3.554  21.286  0.00  0.00    +0.000 C 
ATOM     36  C   UNL     1       0.651   3.348  20.247  0.00  0.00    +0.000 C 
ENDBRANCH  30  31
ENDBRANCH  21  30
ENDBRANCH   1  19
TORSDOF 10
ENDMDL
MODEL 6
REMARK VINA RESULT:      -8.1      3.115     10.873
REMARK  Name = 
REMARK  10 active torsions:
REMARK  status: ('A' for Active; 'I' for Inactive)
REMARK    1  A    between atoms: O_1  and  C_2
REMARK    2  A    between atoms: C_2  and  C_3
REMARK    3  A    between atoms: C_3  and  C_4
REMARK    4  A    between atoms: C_4  and  C_5
REMARK    5  A    between atoms: C_5  and  C_6
REMARK    6  A    between atoms: N_14  and  C_15
REMARK    7  A    between atoms: C_15  and  C_16
REMARK    8  A    between atoms: N_18  and  C_19
REMARK    9  A    between atoms: C_19  and  C_20
REMARK   10  A    between atoms: C_27  and  C_28
REMARK                            x       y       z     vdW  Elec       q    Type
REMARK                         _______ _______ _______ _____ _____    ______ ____
ROOT
ATOM      1  C   UNL     1       1.250  10.422  18.422  0.00  0.00    +0.000 C 
ENDROOT
BRANCH   1   5
ATOM      2  C   UNL     1       2.762   6.388  19.089  0.00  0.00    +0.000 C 
ATOM      3  C   UNL     1       2.187   7.224  20.235  0.00  0.00    +0.000 C 
ATOM      4  C   UNL     1       1.295   8.350  19.716  0.00  0.00    +0.000 C 
ATOM      5  N   UNL     1       2.041   9.231  18.806  0.00  0.00    +0.000 NA
ATOM      6  C   UNL     1       2.530   8.479  17.643  0.00  0.00    +0.000 C 
ATOM      7  C   UNL     1       3.446   7.319  18.077  0.00  0.00    +0.000 C 
BRANCH   2   8
ATOM      8  O   UNL     1       1.684   5.715  18.424  0.00  0.00    +0.000 OA
ATOM      9  H   UNL     1       1.580   4.839  18.834  0.00  0.00    +0.000 HD
ENDBRANCH   2   8
BRANCH   2  10
ATOM     10  C   UNL     1       3.719   5.317  19.661  0.00  0.00    +0.000 C 
BRANCH  10  11
ATOM     11  C   UNL     1       5.017   5.159  18.864  0.00  0.00    +0.000 C 
BRANCH  11  12
ATOM     12  C   UNL     1       4.951   3.980  17.888  0.00  0.00    +0.000 C 
BRANCH  12  13
ATOM     13  C   UNL     1       5.728   4.288  16.638  0.00  0.00    +0.000 A 
ATOM     14  C   UNL     1       5.420   3.675  15.421  0.00  0.00    +0.000 A 
ATOM     15  C   UNL     1       6.117   4.038  14.272  0.00  0.00    +0.000 A 
ATOM     16  C   UNL     1       7.101   5.007  14.379  0.00  0.00    +0.000 A 
ATOM     17  N   UNL     1       7.429   5.620  15.536  0.00  0.00    +0.000 NA
ATOM     18  C   UNL     1       6.734   5.250  16.635  0.00  0.00    +0.000 A 
ENDBRANCH  12  13
ENDBRANCH  11  12
ENDBRANCH  10  11
ENDBRANCH   2  10
ENDBRANCH   1   5
BRANCH   1  19
ATOM     19  C   UNL     1       0.748  11.165  19.682  0.00  0.00    +0.000 C 
ATOM     20  C   UNL     1       1.693  12.294  20.089  0.00  0.00    +0.000 C 
ATOM     21  N   UNL     1       1.246  13.521  19.401  0.00  0.00    +0.000 NA
ATOM     22  C   UNL     1      -0.165  13.300  19.017  0.00  0.00    +0.000 C 
ATOM     23  C   UNL     1      -0.592  11.900  19.499  0.00  0.00    +0.000 C 
BRANCH  23  24
ATOM     24  C   UNL     1      -1.391  11.860  20.806  0.00  0.00    +0.000 A 
ATOM     25  C   UNL     1      -0.897  11.123  21.897  0.00  0.00    +0.000 A 
ATOM     26  C   UNL     1      -1.530  11.173  23.144  0.00  0.00    +0.000 A 
ATOM     27  C   UNL     1      -2.659  11.968  23.327  0.00  0.00    +0.000 A 
ATOM     28  C   UNL     1      -3.172  12.691  22.254  0.00  0.00    +0.000 A 
ATOM     29  C   UNL     1      -2.551  12.627  21.004  0.00  0.00    +0.000 A 
ENDBRANCH  23  24
BRANCH  21  30
ATOM     30  C   UNL     1       2.124  13.870  18.270  0.00  0.00    +0.000 C 
BRANCH  30  31
ATOM     31  C   UNL     1       2.710  15.304  18.354  0.00  0.00    +0.000 C 
ATOM     32  C   UNL     1       3.153  15.685  19.771  0.00  0.00    +0.000 C 
ATOM     33  C   UNL     1       4.400  14.935  20.216  0.00  0.00    +0.000 C 
ATOM     34  C   UNL     1       5.564  15.180  19.265  0.00  0.00    +0.000 C 
ATOM     35  C   UNL     1       5.212  14.923  17.803  0.00  0.00    +0.000 C 
ATOM     36  C   UNL     1       3.872  15.513  17.366  0.00  0.00    +0.000 C 
ENDBRANCH  30  31
ENDBRANCH  21  30
ENDBRANCH   1  19
TORSDOF 10
ENDMDL
MODEL 7
REMARK VINA RESULT:      -8.1      3.054      5.026
REMARK  Name = 
REMARK  10 active torsions:
REMARK  status: ('A' for Active; 'I' for Inactive)
REMARK    1  A    between atoms: O_1  and  C_2
REMARK    2  A    between atoms: C_2  and  C_3
REMARK    3  A    between atoms: C_3  and  C_4
REMARK    4  A    between atoms: C_4  and  C_5
REMARK    5  A    between atoms: C_5  and  C_6
REMARK    6  A    between atoms: N_14  and  C_15
REMARK    7  A    between atoms: C_15  and  C_16
REMARK    8  A    between atoms: N_18  and  C_19
REMARK    9  A    between atoms: C_19  and  C_20
REMARK   10  A    between atoms: C_27  and  C_28
REMARK                            x       y       z     vdW  Elec       q    Type
REMARK                         _______ _______ _______ _____ _____    ______ ____
ROOT
ATOM      1  C   UNL     1       2.047   7.816  18.027  0.00  0.00    +0.000 C 
ENDROOT
BRANCH   1   5
ATOM      2  C   UNL     1       0.914  11.875  19.143  0.00  0.00    +0.000 C 
ATOM      3  C   UNL     1       2.181  11.596  18.330  0.00  0.00    +0.000 C 
ATOM      4  C   UNL     1       2.121  10.229  17.650  0.00  0.00    +0.000 C 
ATOM      5  N   UNL     1       1.940   9.159  18.641  0.00  0.00    +0.000 NA
ATOM      6  C   UNL     1       0.685   9.344  19.379  0.00  0.00    +0.000 C 
ATOM      7  C   UNL     1       0.660  10.703  20.103  0.00  0.00    +0.000 C 
BRANCH   2   8
ATOM      8  O   UNL     1      -0.199  11.970  18.245  0.00  0.00    +0.000 OA
ATOM      9  H   UNL     1       0.147  12.181  17.360  0.00  0.00    +0.000 HD
ENDBRANCH   2   8
BRANCH   2  10
ATOM     10  C   UNL     1       1.060  13.229  19.875  0.00  0.00    +0.000 C 
BRANCH  10  11
ATOM     11  C   UNL     1       2.508  13.602  20.202  0.00  0.00    +0.000 C 
BRANCH  11  12
ATOM     12  C   UNL     1       2.949  14.880  19.482  0.00  0.00    +0.000 C 
BRANCH  12  13
ATOM     13  C   UNL     1       4.437  14.876  19.265  0.00  0.00    +0.000 A 
ATOM     14  C   UNL     1       4.985  14.713  17.991  0.00  0.00    +0.000 A 
ATOM     15  C   UNL     1       6.365  14.784  17.821  0.00  0.00    +0.000 A 
ATOM     16  C   UNL     1       7.153  15.019  18.936  0.00  0.00    +0.000 A 
ATOM     17  N   UNL     1       6.661  15.178  20.183  0.00  0.00    +0.000 NA
ATOM     18  C   UNL     1       5.318  15.107  20.317  0.00  0.00    +0.000 A 
ENDBRANCH  12  13
ENDBRANCH  11  12
ENDBRANCH  10  11
ENDBRANCH   2  10
ENDBRANCH   1   5
BRANCH   1  19
ATOM     19  C   UNL     1       3.332   7.103  18.509  0.00  0.00    +0.000 C 
ATOM     20  C   UNL     1       3.015   5.892  19.384  0.00  0.00    +0.000 C 
ATOM     21  N   UNL     1       2.904   4.717  18.497  0.00  0.00    +0.000 NA
ATOM     22  C   UNL     1       3.613   5.063  17.246  0.00  0.00    +0.000 C 
ATOM     23  C   UNL     1       4.182   6.488  17.383  0.00  0.00    +0.000 C 
BRANCH  23  24
ATOM     24  C   UNL     1       5.669   6.580  17.744  0.00  0.00    +0.000 A 
ATOM     25  C   UNL     1       6.433   7.657  17.260  0.00  0.00    +0.000 A 
ATOM     26  C   UNL     1       7.756   7.845  17.677  0.00  0.00    +0.000 A 
ATOM     27  C   UNL     1       8.334   6.969  18.592  0.00  0.00    +0.000 A 
ATOM     28  C   UNL     1       7.599   5.888  19.068  0.00  0.00    +0.000 A 
ATOM     29  C   UNL     1       6.285   5.689  18.638  0.00  0.00    +0.000 A 
ENDBRANCH  23  24
BRANCH  21  30
ATOM     30  C   UNL     1       1.503   4.308  18.296  0.00  0.00    +0.000 C 
BRANCH  30  31
ATOM     31  C   UNL     1       1.158   2.931  18.921  0.00  0.00    +0.000 C 
ATOM     32  C   UNL     1       2.346   1.963  18.924  0.00  0.00    +0.000 C 
ATOM     33  C   UNL     1       3.427   2.365  19.918  0.00  0.00    +0.000 C 
ATOM     34  C   UNL     1       2.874   2.454  21.334  0.00  0.00    +0.000 C 
ATOM     35  C   UNL     1       1.623   3.322  21.439  0.00  0.00    +0.000 C 
ATOM     36  C   UNL     1       0.587   3.067  20.344  0.00  0.00    +0.000 C 
ENDBRANCH  30  31
ENDBRANCH  21  30
ENDBRANCH   1  19
TORSDOF 10
ENDMDL
MODEL 8
REMARK VINA RESULT:      -8.0      3.265     10.823
REMARK  Name = 
REMARK  10 active torsions:
REMARK  status: ('A' for Active; 'I' for Inactive)
REMARK    1  A    between atoms: O_1  and  C_2
REMARK    2  A    between atoms: C_2  and  C_3
REMARK    3  A    between atoms: C_3  and  C_4
REMARK    4  A    between atoms: C_4  and  C_5
REMARK    5  A    between atoms: C_5  and  C_6
REMARK    6  A    between atoms: N_14  and  C_15
REMARK    7  A    between atoms: C_15  and  C_16
REMARK    8  A    between atoms: N_18  and  C_19
REMARK    9  A    between atoms: C_19  and  C_20
REMARK   10  A    between atoms: C_27  and  C_28
REMARK                            x       y       z     vdW  Elec       q    Type
REMARK                         _______ _______ _______ _____ _____    ______ ____
ROOT
ATOM      1  C   UNL     1       1.410  10.210  19.380  0.00  0.00    +0.000 C 
ENDROOT
BRANCH   1   5
ATOM      2  C   UNL     1       2.489   5.986  19.386  0.00  0.00    +0.000 C 
ATOM      3  C   UNL     1       2.319   6.764  18.078  0.00  0.00    +0.000 C 
ATOM      4  C   UNL     1       2.434   8.271  18.303  0.00  0.00    +0.000 C 
ATOM      5  N   UNL     1       1.430   8.733  19.271  0.00  0.00    +0.000 NA
ATOM      6  C   UNL     1       1.621   8.075  20.569  0.00  0.00    +0.000 C 
ATOM      7  C   UNL     1       1.517   6.544  20.436  0.00  0.00    +0.000 C 
BRANCH   2   8
ATOM      8  O   UNL     1       3.827   6.176  19.865  0.00  0.00    +0.000 OA
ATOM      9  H   UNL     1       4.298   6.735  19.223  0.00  0.00    +0.000 HD
ENDBRANCH   2   8
BRANCH   2  10
ATOM     10  C   UNL     1       2.282   4.478  19.119  0.00  0.00    +0.000 C 
BRANCH  10  11
ATOM     11  C   UNL     1       2.991   3.970  17.861  0.00  0.00    +0.000 C 
BRANCH  11  12
ATOM     12  C   UNL     1       4.444   3.573  18.141  0.00  0.00    +0.000 C 
BRANCH  12  13
ATOM     13  C   UNL     1       5.342   4.043  17.031  0.00  0.00    +0.000 A 
ATOM     14  C   UNL     1       4.855   4.247  15.738  0.00  0.00    +0.000 A 
ATOM     15  C   UNL     1       5.702   4.749  14.754  0.00  0.00    +0.000 A 
ATOM     16  C   UNL     1       7.013   5.033  15.099  0.00  0.00    +0.000 A 
ATOM     17  N   UNL     1       7.522   4.847  16.335  0.00  0.00    +0.000 NA
ATOM     18  C   UNL     1       6.676   4.361  17.270  0.00  0.00    +0.000 A 
ENDBRANCH  12  13
ENDBRANCH  11  12
ENDBRANCH  10  11
ENDBRANCH   2  10
ENDBRANCH   1   5
BRANCH   1  19
ATOM     19  C   UNL     1      -0.044  10.720  19.531  0.00  0.00    +0.000 C 
ATOM     20  C   UNL     1      -0.165  11.768  20.634  0.00  0.00    +0.000 C 
ATOM     21  N   UNL     1       0.051  13.092  20.019  0.00  0.00    +0.000 NA
ATOM     22  C   UNL     1      -0.198  12.930  18.570  0.00  0.00    +0.000 C 
ATOM     23  C   UNL     1      -0.590  11.465  18.300  0.00  0.00    +0.000 C 
BRANCH  23  24
ATOM     24  C   UNL     1      -2.090  11.193  18.150  0.00  0.00    +0.000 A 
ATOM     25  C   UNL     1      -2.520   9.990  17.562  0.00  0.00    +0.000 A 
ATOM     26  C   UNL     1      -3.877   9.649  17.530  0.00  0.00    +0.000 A 
ATOM     27  C   UNL     1      -4.827  10.498  18.095  0.00  0.00    +0.000 A 
ATOM     28  C   UNL     1      -4.422  11.701  18.665  0.00  0.00    +0.000 A 
ATOM     29  C   UNL     1      -3.069  12.050  18.680  0.00  0.00    +0.000 A 
ENDBRANCH  23  24
BRANCH  21  30
ATOM     30  C   UNL     1       1.381  13.639  20.339  0.00  0.00    +0.000 C 
BRANCH  30  31
ATOM     31  C   UNL     1       1.993  14.499  19.203  0.00  0.00    +0.000 C 
ATOM     32  C   UNL     1       1.713  15.996  19.372  0.00  0.00    +0.000 C 
ATOM     33  C   UNL     1       2.491  16.611  20.527  0.00  0.00    +0.000 C 
ATOM     34  C   UNL     1       3.992  16.418  20.350  0.00  0.00    +0.000 C 
ATOM     35  C   UNL     1       4.385  14.969  20.078  0.00  0.00    +0.000 C 
ATOM     36  C   UNL     1       3.506  14.261  19.047  0.00  0.00    +0.000 C 
ENDBRANCH  30  31
ENDBRANCH  21  30
ENDBRANCH   1  19
TORSDOF 10
ENDMDL
MODEL 9
REMARK VINA RESULT:      -8.0      3.017     10.436
REMARK  Name = 
REMARK  10 active torsions:
REMARK  status: ('A' for Active; 'I' for Inactive)
REMARK    1  A    between atoms: O_1  and  C_2
REMARK    2  A    between atoms: C_2  and  C_3
REMARK    3  A    between atoms: C_3  and  C_4
REMARK    4  A    between atoms: C_4  and  C_5
REMARK    5  A    between atoms: C_5  and  C_6
REMARK    6  A    between atoms: N_14  and  C_15
REMARK    7  A    between atoms: C_15  and  C_16
REMARK    8  A    between atoms: N_18  and  C_19
REMARK    9  A    between atoms: C_19  and  C_20
REMARK   10  A    between atoms: C_27  and  C_28
REMARK                            x       y       z     vdW  Elec       q    Type
REMARK                         _______ _______ _______ _____ _____    ______ ____
ROOT
ATOM      1  C   UNL     1       1.120   9.792  20.707  0.00  0.00    +0.000 C 
ENDROOT
BRANCH   1   5
ATOM      2  C   UNL     1       2.346   5.803  19.447  0.00  0.00    +0.000 C 
ATOM      3  C   UNL     1       2.170   6.940  18.437  0.00  0.00    +0.000 C 
ATOM      4  C   UNL     1       2.229   8.308  19.115  0.00  0.00    +0.000 C 
ATOM      5  N   UNL     1       1.194   8.422  20.152  0.00  0.00    +0.000 NA
ATOM      6  C   UNL     1       1.387   7.402  21.191  0.00  0.00    +0.000 C 
ATOM      7  C   UNL     1       1.339   5.984  20.592  0.00  0.00    +0.000 C 
BRANCH   2   8
ATOM      8  O   UNL     1       3.669   5.875  19.996  0.00  0.00    +0.000 OA
ATOM      9  H   UNL     1       4.260   6.228  19.309  0.00  0.00    +0.000 HD
ENDBRANCH   2   8
BRANCH   2  10
ATOM     10  C   UNL     1       2.197   4.444  18.726  0.00  0.00    +0.000 C 
BRANCH  10  11
ATOM     11  C   UNL     1       2.818   4.415  17.327  0.00  0.00    +0.000 C 
BRANCH  11  12
ATOM     12  C   UNL     1       4.195   3.744  17.324  0.00  0.00    +0.000 C 
BRANCH  12  13
ATOM     13  C   UNL     1       5.286   4.779  17.325  0.00  0.00    +0.000 A 
ATOM     14  C   UNL     1       6.436   4.622  18.102  0.00  0.00    +0.000 A 
ATOM     15  C   UNL     1       7.454   5.568  18.023  0.00  0.00    +0.000 A 
ATOM     16  C   UNL     1       7.287   6.643  17.166  0.00  0.00    +0.000 A 
ATOM     17  N   UNL     1       6.189   6.832  16.403  0.00  0.00    +0.000 NA
ATOM     18  C   UNL     1       5.219   5.896  16.498  0.00  0.00    +0.000 A 
ENDBRANCH  12  13
ENDBRANCH  11  12
ENDBRANCH  10  11
ENDBRANCH   2  10
ENDBRANCH   1   5
BRANCH   1  19
ATOM     19  C   UNL     1      -0.153  10.511  20.202  0.00  0.00    +0.000 C 
ATOM     20  C   UNL     1      -0.409  11.812  20.960  0.00  0.00    +0.000 C 
ATOM     21  N   UNL     1       0.281  12.896  20.233  0.00  0.00    +0.000 NA
ATOM     22  C   UNL     1       0.503  12.406  18.855  0.00  0.00    +0.000 C 
ATOM     23  C   UNL     1      -0.082  10.985  18.740  0.00  0.00    +0.000 C 
BRANCH  23  24
ATOM     24  C   UNL     1      -1.467  10.884  18.091  0.00  0.00    +0.000 A 
ATOM     25  C   UNL     1      -1.703   9.905  17.110  0.00  0.00    +0.000 A 
ATOM     26  C   UNL     1      -2.987   9.697  16.595  0.00  0.00    +0.000 A 
ATOM     27  C   UNL     1      -4.060  10.455  17.059  0.00  0.00    +0.000 A 
ATOM     28  C   UNL     1      -3.843  11.440  18.017  0.00  0.00    +0.000 A 
ATOM     29  C   UNL     1      -2.557  11.661  18.518  0.00  0.00    +0.000 A 
ENDBRANCH  23  24
BRANCH  21  30
ATOM     30  C   UNL     1       1.512  13.325  20.919  0.00  0.00    +0.000 C 
BRANCH  30  31
ATOM     31  C   UNL     1       1.484  14.803  21.388  0.00  0.00    +0.000 C 
ATOM     32  C   UNL     1       2.883  15.415  21.513  0.00  0.00    +0.000 C 
ATOM     33  C   UNL     1       3.542  15.650  20.160  0.00  0.00    +0.000 C 
ATOM     34  C   UNL     1       2.694  16.559  19.280  0.00  0.00    +0.000 C 
ATOM     35  C   UNL     1       1.245  16.098  19.158  0.00  0.00    +0.000 C 
ATOM     36  C   UNL     1       0.603  15.682  20.481  0.00  0.00    +0.000 C 
ENDBRANCH  30  31
ENDBRANCH  21  30
ENDBRANCH   1  19
TORSDOF 10
ENDMDL
