MODEL 1
REMARK VINA RESULT:      -7.7      0.000      0.000
REMARK  Name = 
REMARK  5 active torsions:
REMARK  status: ('A' for Active; 'I' for Inactive)
REMARK    1  A    between atoms: C_1  and  O_2
REMARK    2  A    between atoms: O_2  and  C_3
REMARK    3  A    between atoms: C_14  and  N_15
REMARK    4  A    between atoms: N_15  and  C_16
REMARK    5  A    between atoms: C_16  and  C_17
REMARK                            x       y       z     vdW  Elec       q    Type
REMARK                         _______ _______ _______ _____ _____    ______ ____
ROOT
ATOM      1  C   UNL     1       5.589   4.368  15.930  0.00  0.00    +0.000 C 
ATOM      2  C   UNL     1       4.206   3.825  16.321  0.00  0.00    +0.000 C 
ATOM      3  C   UNL     1       3.642   4.464  17.559  0.00  0.00    +0.000 A 
ATOM      4  C   UNL     1       2.258   4.392  17.813  0.00  0.00    +0.000 A 
ATOM      5  C   UNL     1       1.725   4.943  18.979  0.00  0.00    +0.000 A 
ATOM      6  C   UNL     1       2.572   5.499  19.932  0.00  0.00    +0.000 A 
ATOM      7  C   UNL     1       3.940   5.572  19.693  0.00  0.00    +0.000 A 
ATOM      8  C   UNL     1       4.488   5.118  18.476  0.00  0.00    +0.000 A 
ATOM      9  C   UNL     1       5.863   5.598  17.990  0.00  0.00    +0.000 C 
ATOM     10  C   UNL     1       5.576   6.987  17.366  0.00  0.00    +0.000 C 
ATOM     11  C   UNL     1       6.778   7.778  16.887  0.00  0.00    +0.000 C 
ATOM     12  C   UNL     1       8.011   7.799  17.796  0.00  0.00    +0.000 C 
ATOM     13  C   UNL     1       8.220   6.459  18.539  0.00  0.00    +0.000 C 
ATOM     14  C   UNL     1       6.951   5.774  19.075  0.00  0.00    +0.000 C 
ATOM     15  O   UNL     1       6.407   4.651  17.058  0.00  0.00    +0.000 OA
ENDROOT
BRANCH   1  17
ATOM     16  C   UNL     1       6.236   3.817  13.727  0.00  0.00    +0.000 C 
ATOM     17  O   UNL     1       6.222   3.391  15.084  0.00  0.00    +0.000 OA
ENDBRANCH   1  17
BRANCH  12  18
ATOM     18  N   UNL     1       7.910   8.987  18.667  0.00  0.00    +0.000 NA
ATOM     19  H   UNL     1       7.438   8.756  19.540  0.00  0.00    +0.000 HD
BRANCH  18  20
ATOM     20  C   UNL     1       9.209   9.620  18.930  0.00  0.00    +0.000 C 
BRANCH  20  21
ATOM     21  C   UNL     1       9.232  11.149  18.661  0.00  0.00    +0.000 C 
ATOM     22  C   UNL     1       9.231  12.021  19.926  0.00  0.00    +0.000 C 
ATOM     23  C   UNL     1      10.515  11.865  20.735  0.00  0.00    +0.000 C 
ATOM     24  C   UNL     1      11.751  12.176  19.895  0.00  0.00    +0.000 C 
ATOM     25  C   UNL     1      11.777  11.411  18.575  0.00  0.00    +0.000 C 
ATOM     26  C   UNL     1      10.459  11.543  17.806  0.00  0.00    +0.000 C 
ENDBRANCH  20  21
ENDBRANCH  18  20
ENDBRANCH  12  18
TORSDOF 4
ENDMDL
MODEL 2
REMARK VINA RESULT:      -7.7      5.977      9.411
REMARK  Name = 
REMARK  5 active torsions:
REMARK  status: ('A' for Active; 'I' for Inactive)
REMARK    1  A    between atoms: C_1  and  O_2
REMARK    2  A    between atoms: O_2  and  C_3
REMARK    3  A    between atoms: C_14  and  N_15
REMARK    4  A    between atoms: N_15  and  C_16
REMARK    5  A    between atoms: C_16  and  C_17
REMARK                            x       y       z     vdW  Elec       q    Type
REMARK                         _______ _______ _______ _____ _____    ______ ____
ROOT
ATOM      1  C   UNL     1       1.119  12.142  19.722  0.00  0.00    +0.000 C 
ATOM      2  C   UNL     1      -0.206  12.799  19.307  0.00  0.00    +0.000 C 
ATOM      3  C   UNL     1      -1.212  11.824  18.763  0.00  0.00    +0.000 A 
ATOM      4  C   UNL     1      -2.577  12.175  18.728  0.00  0.00    +0.000 A 
ATOM      5  C   UNL     1      -3.517  11.297  18.187  0.00  0.00    +0.000 A 
ATOM      6  C   UNL     1      -3.099  10.103  17.611  0.00  0.00    +0.000 A 
ATOM      7  C   UNL     1      -1.754   9.749  17.637  0.00  0.00    +0.000 A 
ATOM      8  C   UNL     1      -0.801  10.570  18.272  0.00  0.00    +0.000 A 
ATOM      9  C   UNL     1       0.555  10.014  18.729  0.00  0.00    +0.000 C 
ATOM     10  C   UNL     1       0.238   9.309  20.072  0.00  0.00    +0.000 C 
ATOM     11  C   UNL     1       1.378   8.553  20.728  0.00  0.00    +0.000 C 
ATOM     12  C   UNL     1       2.262   7.692  19.821  0.00  0.00    +0.000 C 
ATOM     13  C   UNL     1       2.463   8.320  18.422  0.00  0.00    +0.000 C 
ATOM     14  C   UNL     1       1.226   8.982  17.792  0.00  0.00    +0.000 C 
ATOM     15  O   UNL     1       1.504  11.085  18.852  0.00  0.00    +0.000 OA
ENDROOT
BRANCH   1  17
ATOM     16  C   UNL     1       2.520  13.535  18.429  0.00  0.00    +0.000 C 
ATOM     17  O   UNL     1       2.130  13.166  19.746  0.00  0.00    +0.000 OA
ENDBRANCH   1  17
BRANCH  12  18
ATOM     18  N   UNL     1       1.709   6.324  19.818  0.00  0.00    +0.000 NA
ATOM     19  H   UNL     1       0.995   6.224  19.097  0.00  0.00    +0.000 HD
BRANCH  18  20
ATOM     20  C   UNL     1       2.738   5.286  19.676  0.00  0.00    +0.000 C 
BRANCH  20  21
ATOM     21  C   UNL     1       2.532   4.060  20.606  0.00  0.00    +0.000 C 
ATOM     22  C   UNL     1       1.102   3.498  20.614  0.00  0.00    +0.000 C 
ATOM     23  C   UNL     1       0.712   2.891  19.270  0.00  0.00    +0.000 C 
ATOM     24  C   UNL     1       1.692   1.803  18.839  0.00  0.00    +0.000 C 
ATOM     25  C   UNL     1       3.147   2.262  18.891  0.00  0.00    +0.000 C 
ATOM     26  C   UNL     1       3.498   2.912  20.232  0.00  0.00    +0.000 C 
ENDBRANCH  20  21
ENDBRANCH  18  20
ENDBRANCH  12  18
TORSDOF 4
ENDMDL
MODEL 3
REMARK VINA RESULT:      -7.7      5.913      9.331
REMARK  Name = 
REMARK  5 active torsions:
REMARK  status: ('A' for Active; 'I' for Inactive)
REMARK    1  A    between atoms: C_1  and  O_2
REMARK    2  A    between atoms: O_2  and  C_3
REMARK    3  A    between atoms: C_14  and  N_15
REMARK    4  A    between atoms: N_15  and  C_16
REMARK    5  A    between atoms: C_16  and  C_17
REMARK                            x       y       z     vdW  Elec       q    Type
REMARK                         _______ _______ _______ _____ _____    ______ ____
ROOT
ATOM      1  C   UNL     1       1.116  12.183  19.605  0.00  0.00    +0.000 C 
ATOM      2  C   UNL     1      -0.232  12.812  19.220  0.00  0.00    +0.000 C 
ATOM      3  C   UNL     1      -1.229  11.815  18.700  0.00  0.00    +0.000 A 
ATOM      4  C   UNL     1      -2.601  12.137  18.696  0.00  0.00    +0.000 A 
ATOM      5  C   UNL     1      -3.535  11.238  18.178  0.00  0.00    +0.000 A 
ATOM      6  C   UNL     1      -3.104  10.053  17.592  0.00  0.00    +0.000 A 
ATOM      7  C   UNL     1      -1.753   9.727  17.587  0.00  0.00    +0.000 A 
ATOM      8  C   UNL     1      -0.802  10.569  18.200  0.00  0.00    +0.000 A 
ATOM      9  C   UNL     1       0.575  10.043  18.626  0.00  0.00    +0.000 C 
ATOM     10  C   UNL     1       0.305   9.332  19.976  0.00  0.00    +0.000 C 
ATOM     11  C   UNL     1       1.475   8.601  20.607  0.00  0.00    +0.000 C 
ATOM     12  C   UNL     1       2.356   7.758  19.679  0.00  0.00    +0.000 C 
ATOM     13  C   UNL     1       2.511   8.390  18.276  0.00  0.00    +0.000 C 
ATOM     14  C   UNL     1       1.246   9.025  17.674  0.00  0.00    +0.000 C 
ATOM     15  O   UNL     1       1.503  11.134  18.727  0.00  0.00    +0.000 OA
ENDROOT
BRANCH   1  17
ATOM     16  C   UNL     1       1.497  14.513  19.671  0.00  0.00    +0.000 C 
ATOM     17  O   UNL     1       2.105  13.229  19.605  0.00  0.00    +0.000 OA
ENDBRANCH   1  17
BRANCH  12  18
ATOM     18  N   UNL     1       1.832   6.379  19.689  0.00  0.00    +0.000 NA
ATOM     19  H   UNL     1       1.062   6.279  19.029  0.00  0.00    +0.000 HD
BRANCH  18  20
ATOM     20  C   UNL     1       2.866   5.368  19.437  0.00  0.00    +0.000 C 
BRANCH  20  21
ATOM     21  C   UNL     1       2.821   4.760  18.008  0.00  0.00    +0.000 C 
ATOM     22  C   UNL     1       3.894   3.696  17.732  0.00  0.00    +0.000 C 
ATOM     23  C   UNL     1       3.690   2.439  18.571  0.00  0.00    +0.000 C 
ATOM     24  C   UNL     1       2.302   1.840  18.359  0.00  0.00    +0.000 C 
ATOM     25  C   UNL     1       1.183   2.863  18.529  0.00  0.00    +0.000 C 
ATOM     26  C   UNL     1       1.437   4.135  17.716  0.00  0.00    +0.000 C 
ENDBRANCH  20  21
ENDBRANCH  18  20
ENDBRANCH  12  18
TORSDOF 4
ENDMDL
MODEL 4
REMARK VINA RESULT:      -7.7      4.281      6.857
REMARK  Name = 
REMARK  5 active torsions:
REMARK  status: ('A' for Active; 'I' for Inactive)
REMARK    1  A    between atoms: C_1  and  O_2
REMARK    2  A    between atoms: O_2  and  C_3
REMARK    3  A    between atoms: C_14  and  N_15
REMARK    4  A    between atoms: N_15  and  C_16
REMARK    5  A    between atoms: C_16  and  C_17
REMARK                            x       y       z     vdW  Elec       q    Type
REMARK                         _______ _______ _______ _____ _____    ______ ____
ROOT
ATOM      1  C   UNL     1       5.172   5.010  19.150  0.00  0.00    +0.000 C 
ATOM      2  C   UNL     1       4.881   3.502  19.153  0.00  0.00    +0.000 C 
ATOM      3  C   UNL     1       3.419   3.175  19.023  0.00  0.00    +0.000 A 
ATOM      4  C   UNL     1       3.026   1.889  18.602  0.00  0.00    +0.000 A 
ATOM      5  C   UNL     1       1.673   1.558  18.517  0.00  0.00    +0.000 A 
ATOM      6  C   UNL     1       0.709   2.474  18.921  0.00  0.00    +0.000 A 
ATOM      7  C   UNL     1       1.086   3.745  19.341  0.00  0.00    +0.000 A 
ATOM      8  C   UNL     1       2.439   4.138  19.335  0.00  0.00    +0.000 A 
ATOM      9  C   UNL     1       2.842   5.620  19.329  0.00  0.00    +0.000 C 
ATOM     10  C   UNL     1       2.690   6.044  17.847  0.00  0.00    +0.000 C 
ATOM     11  C   UNL     1       2.915   7.511  17.533  0.00  0.00    +0.000 C 
ATOM     12  C   UNL     1       2.297   8.534  18.490  0.00  0.00    +0.000 C 
ATOM     13  C   UNL     1       2.310   8.053  19.960  0.00  0.00    +0.000 C 
ATOM     14  C   UNL     1       1.977   6.569  20.191  0.00  0.00    +0.000 C 
ATOM     15  O   UNL     1       4.178   5.763  19.834  0.00  0.00    +0.000 OA
ENDROOT
BRANCH   1  17
ATOM     16  C   UNL     1       7.344   5.893  18.877  0.00  0.00    +0.000 C 
ATOM     17  O   UNL     1       6.461   5.210  19.757  0.00  0.00    +0.000 OA
ENDBRANCH   1  17
BRANCH  12  18
ATOM     18  N   UNL     1       0.967   8.899  17.965  0.00  0.00    +0.000 NA
ATOM     19  H   UNL     1       0.284   8.173  18.174  0.00  0.00    +0.000 HD
BRANCH  18  20
ATOM     20  C   UNL     1       0.498  10.207  18.442  0.00  0.00    +0.000 C 
BRANCH  20  21
ATOM     21  C   UNL     1      -0.780  10.136  19.321  0.00  0.00    +0.000 C 
ATOM     22  C   UNL     1      -0.523   9.784  20.794  0.00  0.00    +0.000 C 
ATOM     23  C   UNL     1       0.252  10.878  21.523  0.00  0.00    +0.000 C 
ATOM     24  C   UNL     1      -0.457  12.227  21.431  0.00  0.00    +0.000 C 
ATOM     25  C   UNL     1      -0.826  12.605  19.999  0.00  0.00    +0.000 C 
ATOM     26  C   UNL     1      -1.559  11.472  19.275  0.00  0.00    +0.000 C 
ENDBRANCH  20  21
ENDBRANCH  18  20
ENDBRANCH  12  18
TORSDOF 4
ENDMDL
MODEL 5
REMARK VINA RESULT:      -7.6      6.000      9.304
REMARK  Name = 
REMARK  5 active torsions:
REMARK  status: ('A' for Active; 'I' for Inactive)
REMARK    1  A    between atoms: C_1  and  O_2
REMARK    2  A    between atoms: O_2  and  C_3
REMARK    3  A    between atoms: C_14  and  N_15
REMARK    4  A    between atoms: N_15  and  C_16
REMARK    5  A    between atoms: C_16  and  C_17
REMARK                            x       y       z     vdW  Elec       q    Type
REMARK                         _______ _______ _______ _____ _____    ______ ____
ROOT
ATOM      1  C   UNL     1       1.186  12.155  19.598  0.00  0.00    +0.000 C 
ATOM      2  C   UNL     1      -0.132  12.826  19.184  0.00  0.00    +0.000 C 
ATOM      3  C   UNL     1      -1.167  11.855  18.687  0.00  0.00    +0.000 A 
ATOM      4  C   UNL     1      -2.524  12.232  18.663  0.00  0.00    +0.000 A 
ATOM      5  C   UNL     1      -3.490  11.357  18.165  0.00  0.00    +0.000 A 
ATOM      6  C   UNL     1      -3.105  10.138  17.620  0.00  0.00    +0.000 A 
ATOM      7  C   UNL     1      -1.768   9.757  17.635  0.00  0.00    +0.000 A 
ATOM      8  C   UNL     1      -0.788  10.578  18.229  0.00  0.00    +0.000 A 
ATOM      9  C   UNL     1       0.565  10.009  18.682  0.00  0.00    +0.000 C 
ATOM     10  C   UNL     1       0.256   9.353  20.051  0.00  0.00    +0.000 C 
ATOM     11  C   UNL     1       1.391   8.595  20.712  0.00  0.00    +0.000 C 
ATOM     12  C   UNL     1       2.243   7.688  19.819  0.00  0.00    +0.000 C 
ATOM     13  C   UNL     1       2.433   8.269  18.398  0.00  0.00    +0.000 C 
ATOM     14  C   UNL     1       1.199   8.936  17.766  0.00  0.00    +0.000 C 
ATOM     15  O   UNL     1       1.535  11.064  18.756  0.00  0.00    +0.000 OA
ENDROOT
BRANCH   1  17
ATOM     16  C   UNL     1       2.487  13.587  18.245  0.00  0.00    +0.000 C 
ATOM     17  O   UNL     1       2.217  13.159  19.574  0.00  0.00    +0.000 OA
ENDBRANCH   1  17
BRANCH  12  18
ATOM     18  N   UNL     1       1.663   6.332  19.867  0.00  0.00    +0.000 NA
ATOM     19  H   UNL     1       0.665   6.358  19.658  0.00  0.00    +0.000 HD
BRANCH  18  20
ATOM     20  C   UNL     1       2.353   5.378  18.989  0.00  0.00    +0.000 C 
BRANCH  20  21
ATOM     21  C   UNL     1       1.728   3.957  18.986  0.00  0.00    +0.000 C 
ATOM     22  C   UNL     1       2.728   2.820  18.721  0.00  0.00    +0.000 C 
ATOM     23  C   UNL     1       3.745   2.671  19.848  0.00  0.00    +0.000 C 
ATOM     24  C   UNL     1       3.062   2.454  21.196  0.00  0.00    +0.000 C 
ATOM     25  C   UNL     1       1.988   3.498  21.491  0.00  0.00    +0.000 C 
ATOM     26  C   UNL     1       1.011   3.664  20.324  0.00  0.00    +0.000 C 
ENDBRANCH  20  21
ENDBRANCH  18  20
ENDBRANCH  12  18
TORSDOF 4
ENDMDL
MODEL 6
REMARK VINA RESULT:      -7.5      5.545      8.608
REMARK  Name = 
REMARK  5 active torsions:
REMARK  status: ('A' for Active; 'I' for Inactive)
REMARK    1  A    between atoms: C_1  and  O_2
REMARK    2  A    between atoms: O_2  and  C_3
REMARK    3  A    between atoms: C_14  and  N_15
REMARK    4  A    between atoms: N_15  and  C_16
REMARK    5  A    between atoms: C_16  and  C_17
REMARK                            x       y       z     vdW  Elec       q    Type
REMARK                         _______ _______ _______ _____ _____    ______ ____
ROOT
ATOM      1  C   UNL     1       1.136  11.938  19.902  0.00  0.00    +0.000 C 
ATOM      2  C   UNL     1      -0.192  12.612  19.525  0.00  0.00    +0.000 C 
ATOM      3  C   UNL     1      -1.163  11.683  18.851  0.00  0.00    +0.000 A 
ATOM      4  C   UNL     1      -2.533  12.010  18.817  0.00  0.00    +0.000 A 
ATOM      5  C   UNL     1      -3.441  11.179  18.159  0.00  0.00    +0.000 A 
ATOM      6  C   UNL     1      -2.983  10.063  17.469  0.00  0.00    +0.000 A 
ATOM      7  C   UNL     1      -1.633   9.732  17.493  0.00  0.00    +0.000 A 
ATOM      8  C   UNL     1      -0.713  10.497  18.239  0.00  0.00    +0.000 A 
ATOM      9  C   UNL     1       0.643   9.920  18.670  0.00  0.00    +0.000 C 
ATOM     10  C   UNL     1       0.307   9.067  19.919  0.00  0.00    +0.000 C 
ATOM     11  C   UNL     1       1.446   8.266  20.521  0.00  0.00    +0.000 C 
ATOM     12  C   UNL     1       2.370   7.525  19.550  0.00  0.00    +0.000 C 
ATOM     13  C   UNL     1       2.593   8.305  18.234  0.00  0.00    +0.000 C 
ATOM     14  C   UNL     1       1.358   9.009  17.645  0.00  0.00    +0.000 C 
ATOM     15  O   UNL     1       1.565  10.988  18.934  0.00  0.00    +0.000 OA
ENDROOT
BRANCH   1  17
ATOM     16  C   UNL     1       2.275  13.730  18.870  0.00  0.00    +0.000 C 
ATOM     17  O   UNL     1       2.124  12.971  20.064  0.00  0.00    +0.000 OA
ENDBRANCH   1  17
BRANCH  12  18
ATOM     18  N   UNL     1       1.847   6.155  19.384  0.00  0.00    +0.000 NA
ATOM     19  H   UNL     1       0.829   6.147  19.446  0.00  0.00    +0.000 HD
BRANCH  18  20
ATOM     20  C   UNL     1       2.297   5.513  18.143  0.00  0.00    +0.000 C 
BRANCH  20  21
ATOM     21  C   UNL     1       3.063   4.180  18.363  0.00  0.00    +0.000 C 
ATOM     22  C   UNL     1       3.723   3.606  17.099  0.00  0.00    +0.000 C 
ATOM     23  C   UNL     1       4.853   4.492  16.585  0.00  0.00    +0.000 C 
ATOM     24  C   UNL     1       5.913   4.730  17.658  0.00  0.00    +0.000 C 
ATOM     25  C   UNL     1       5.321   5.219  18.977  0.00  0.00    +0.000 C 
ATOM     26  C   UNL     1       4.156   4.342  19.445  0.00  0.00    +0.000 C 
ENDBRANCH  20  21
ENDBRANCH  18  20
ENDBRANCH  12  18
TORSDOF 4
ENDMDL
MODEL 7
REMARK VINA RESULT:      -7.5      0.680      1.343
REMARK  Name = 
REMARK  5 active torsions:
REMARK  status: ('A' for Active; 'I' for Inactive)
REMARK    1  A    between atoms: C_1  and  O_2
REMARK    2  A    between atoms: O_2  and  C_3
REMARK    3  A    between atoms: C_14  and  N_15
REMARK    4  A    between atoms: N_15  and  C_16
REMARK    5  A    between atoms: C_16  and  C_17
REMARK                            x       y       z     vdW  Elec       q    Type
REMARK                         _______ _______ _______ _____ _____    ______ ____
ROOT
ATOM      1  C   UNL     1       5.616   4.385  16.008  0.00  0.00    +0.000 C 
ATOM      2  C   UNL     1       4.172   3.959  16.310  0.00  0.00    +0.000 C 
ATOM      3  C   UNL     1       3.605   4.599  17.547  0.00  0.00    +0.000 A 
ATOM      4  C   UNL     1       2.209   4.646  17.732  0.00  0.00    +0.000 A 
ATOM      5  C   UNL     1       1.670   5.199  18.894  0.00  0.00    +0.000 A 
ATOM      6  C   UNL     1       2.514   5.639  19.908  0.00  0.00    +0.000 A 
ATOM      7  C   UNL     1       3.893   5.594  19.737  0.00  0.00    +0.000 A 
ATOM      8  C   UNL     1       4.459   5.138  18.529  0.00  0.00    +0.000 A 
ATOM      9  C   UNL     1       5.894   5.507  18.129  0.00  0.00    +0.000 C 
ATOM     10  C   UNL     1       5.766   6.939  17.551  0.00  0.00    +0.000 C 
ATOM     11  C   UNL     1       7.058   7.634  17.163  0.00  0.00    +0.000 C 
ATOM     12  C   UNL     1       8.239   7.507  18.129  0.00  0.00    +0.000 C 
ATOM     13  C   UNL     1       8.289   6.126  18.824  0.00  0.00    +0.000 C 
ATOM     14  C   UNL     1       6.938   5.541  19.270  0.00  0.00    +0.000 C 
ATOM     15  O   UNL     1       6.398   4.550  17.185  0.00  0.00    +0.000 OA
ENDROOT
BRANCH   1  17
ATOM     16  C   UNL     1       6.179   3.799  13.792  0.00  0.00    +0.000 C 
ATOM     17  O   UNL     1       6.200   3.387  15.153  0.00  0.00    +0.000 OA
ENDBRANCH   1  17
BRANCH  12  18
ATOM     18  N   UNL     1       8.202   8.665  19.043  0.00  0.00    +0.000 NA
ATOM     19  H   UNL     1       8.802   8.507  19.852  0.00  0.00    +0.000 HD
BRANCH  18  20
ATOM     20  C   UNL     1       8.544   9.931  18.382  0.00  0.00    +0.000 C 
BRANCH  20  21
ATOM     21  C   UNL     1       9.919  10.515  18.808  0.00  0.00    +0.000 C 
ATOM     22  C   UNL     1      10.532  11.504  17.805  0.00  0.00    +0.000 C 
ATOM     23  C   UNL     1       9.714  12.786  17.685  0.00  0.00    +0.000 C 
ATOM     24  C   UNL     1       9.536  13.469  19.039  0.00  0.00    +0.000 C 
ATOM     25  C   UNL     1       9.013  12.521  20.115  0.00  0.00    +0.000 C 
ATOM     26  C   UNL     1       9.819  11.222  20.180  0.00  0.00    +0.000 C 
ENDBRANCH  20  21
ENDBRANCH  18  20
ENDBRANCH  12  18
TORSDOF 4
ENDMDL
MODEL 8
REMARK VINA RESULT:      -7.5      4.381      6.812
REMARK  Name = 
REMARK  5 active torsions:
REMARK  status: ('A' for Active; 'I' for Inactive)
REMARK    1  A    between atoms: C_1  and  O_2
REMARK    2  A    between atoms: O_2  and  C_3
REMARK    3  A    between atoms: C_14  and  N_15
REMARK    4  A    between atoms: N_15  and  C_16
REMARK    5  A    between atoms: C_16  and  C_17
REMARK                            x       y       z     vdW  Elec       q    Type
REMARK                         _______ _______ _______ _____ _____    ______ ____
ROOT
ATOM      1  C   UNL     1       5.172   5.185  19.150  0.00  0.00    +0.000 C 
ATOM      2  C   UNL     1       4.931   3.669  19.100  0.00  0.00    +0.000 C 
ATOM      3  C   UNL     1       3.483   3.300  18.936  0.00  0.00    +0.000 A 
ATOM      4  C   UNL     1       3.138   2.016  18.467  0.00  0.00    +0.000 A 
ATOM      5  C   UNL     1       1.798   1.645  18.349  0.00  0.00    +0.000 A 
ATOM      6  C   UNL     1       0.799   2.516  18.767  0.00  0.00    +0.000 A 
ATOM      7  C   UNL     1       1.128   3.784  19.234  0.00  0.00    +0.000 A 
ATOM      8  C   UNL     1       2.468   4.220  19.262  0.00  0.00    +0.000 A 
ATOM      9  C   UNL     1       2.821   5.713  19.311  0.00  0.00    +0.000 C 
ATOM     10  C   UNL     1       2.679   6.181  17.841  0.00  0.00    +0.000 C 
ATOM     11  C   UNL     1       2.860   7.664  17.578  0.00  0.00    +0.000 C 
ATOM     12  C   UNL     1       2.195   8.635  18.558  0.00  0.00    +0.000 C 
ATOM     13  C   UNL     1       2.201   8.106  20.011  0.00  0.00    +0.000 C 
ATOM     14  C   UNL     1       1.913   6.606  20.189  0.00  0.00    +0.000 C 
ATOM     15  O   UNL     1       4.144   5.883  19.842  0.00  0.00    +0.000 OA
ENDROOT
BRANCH   1  17
ATOM     16  C   UNL     1       7.465   5.648  18.823  0.00  0.00    +0.000 C 
ATOM     17  O   UNL     1       6.445   5.407  19.785  0.00  0.00    +0.000 OA
ENDBRANCH   1  17
BRANCH  12  18
ATOM     18  N   UNL     1       0.862   8.974  18.022  0.00  0.00    +0.000 NA
ATOM     19  H   UNL     1       0.352   8.131  17.761  0.00  0.00    +0.000 HD
BRANCH  18  20
ATOM     20  C   UNL     1       0.065   9.800  18.939  0.00  0.00    +0.000 C 
BRANCH  20  21
ATOM     21  C   UNL     1       0.495  11.292  18.980  0.00  0.00    +0.000 C 
ATOM     22  C   UNL     1      -0.607  12.285  18.577  0.00  0.00    +0.000 C 
ATOM     23  C   UNL     1      -1.760  12.303  19.575  0.00  0.00    +0.000 C 
ATOM     24  C   UNL     1      -1.276  12.615  20.989  0.00  0.00    +0.000 C 
ATOM     25  C   UNL     1      -0.117  11.724  21.428  0.00  0.00    +0.000 C 
ATOM     26  C   UNL     1       1.004  11.684  20.386  0.00  0.00    +0.000 C 
ENDBRANCH  20  21
ENDBRANCH  18  20
ENDBRANCH  12  18
TORSDOF 4
ENDMDL
MODEL 9
REMARK VINA RESULT:      -7.4      6.188      9.499
REMARK  Name = 
REMARK  5 active torsions:
REMARK  status: ('A' for Active; 'I' for Inactive)
REMARK    1  A    between atoms: C_1  and  O_2
REMARK    2  A    between atoms: O_2  and  C_3
REMARK    3  A    between atoms: C_14  and  N_15
REMARK    4  A    between atoms: N_15  and  C_16
REMARK    5  A    between atoms: C_16  and  C_17
REMARK                            x       y       z     vdW  Elec       q    Type
REMARK                         _______ _______ _______ _____ _____    ______ ____
ROOT
ATOM      1  C   UNL     1       0.462  12.453  19.630  0.00  0.00    +0.000 C 
ATOM      2  C   UNL     1      -0.891  12.969  19.117  0.00  0.00    +0.000 C 
ATOM      3  C   UNL     1      -1.802  11.877  18.630  0.00  0.00    +0.000 A 
ATOM      4  C   UNL     1      -3.185  12.119  18.521  0.00  0.00    +0.000 A 
ATOM      5  C   UNL     1      -4.038  11.128  18.031  0.00  0.00    +0.000 A 
ATOM      6  C   UNL     1      -3.512   9.925  17.576  0.00  0.00    +0.000 A 
ATOM      7  C   UNL     1      -2.147   9.677  17.675  0.00  0.00    +0.000 A 
ATOM      8  C   UNL     1      -1.281  10.620  18.265  0.00  0.00    +0.000 A 
ATOM      9  C   UNL     1       0.094  10.210  18.812  0.00  0.00    +0.000 C 
ATOM     10  C   UNL     1      -0.221   9.601  20.201  0.00  0.00    +0.000 C 
ATOM     11  C   UNL     1       0.944   8.993  20.958  0.00  0.00    +0.000 C 
ATOM     12  C   UNL     1       1.923   8.127  20.158  0.00  0.00    +0.000 C 
ATOM     13  C   UNL     1       2.130   8.647  18.716  0.00  0.00    +0.000 C 
ATOM     14  C   UNL     1       0.873   9.156  17.991  0.00  0.00    +0.000 C 
ATOM     15  O   UNL     1       0.956  11.357  18.870  0.00  0.00    +0.000 OA
ENDROOT
BRANCH   1  17
ATOM     16  C   UNL     1       0.730  14.781  19.342  0.00  0.00    +0.000 C 
ATOM     17  O   UNL     1       1.394  13.549  19.594  0.00  0.00    +0.000 OA
ENDBRANCH   1  17
BRANCH  12  18
ATOM     18  N   UNL     1       1.472   6.726  20.259  0.00  0.00    +0.000 NA
ATOM     19  H   UNL     1       0.507   6.633  19.943  0.00  0.00    +0.000 HD
BRANCH  18  20
ATOM     20  C   UNL     1       2.345   5.786  19.543  0.00  0.00    +0.000 C 
BRANCH  20  21
ATOM     21  C   UNL     1       1.670   4.429  19.206  0.00  0.00    +0.000 C 
ATOM     22  C   UNL     1       1.768   4.017  17.729  0.00  0.00    +0.000 C 
ATOM     23  C   UNL     1       3.203   3.724  17.305  0.00  0.00    +0.000 C 
ATOM     24  C   UNL     1       3.841   2.650  18.183  0.00  0.00    +0.000 C 
ATOM     25  C   UNL     1       3.704   2.947  19.674  0.00  0.00    +0.000 C 
ATOM     26  C   UNL     1       2.263   3.287  20.063  0.00  0.00    +0.000 C 
ENDBRANCH  20  21
ENDBRANCH  18  20
ENDBRANCH  12  18
TORSDOF 4
ENDMDL
