MODEL 1
REMARK VINA RESULT:      -8.5      0.000      0.000
REMARK  Name = 
REMARK  10 active torsions:
REMARK  status: ('A' for Active; 'I' for Inactive)
REMARK    1  A    between atoms: C_1  and  O_2
REMARK    2  A    between atoms: O_2  and  C_3
REMARK    3  A    between atoms: C_6  and  C_7
REMARK    4  A    between atoms: C_7  and  C_8
REMARK    5  A    between atoms: C_8  and  N_9
REMARK    6  A    between atoms: C_10  and  C_12
REMARK    7  A    between atoms: N_16  and  C_17
REMARK    8  A    between atoms: C_20  and  C_21
REMARK    9  A    between atoms: C_26  and  O_27
REMARK   10  A    between atoms: O_27  and  C_28
REMARK                            x       y       z     vdW  Elec       q    Type
REMARK                         _______ _______ _______ _____ _____    ______ ____
ROOT
ATOM      1  N   UNL     1       8.306   7.830  18.147  0.00  0.00    +0.000 N 
ATOM      2  C   UNL     1       7.363   7.100  17.453  0.00  0.00    +0.000 C 
ATOM      3  O   UNL     1       6.403   7.628  16.908  0.00  0.00    +0.000 OA
ATOM      4  H   UNL     1       9.121   7.379  18.540  0.00  0.00    +0.000 HD
ENDROOT
BRANCH   2   5
ATOM      5  C   UNL     1       7.563   5.590  17.495  0.00  0.00    +0.000 C 
ATOM      6  C   UNL     1       6.927   4.869  16.320  0.00  0.00    +0.000 C 
ATOM      7  C   UNL     1       5.569   4.457  16.835  0.00  0.00    +0.000 C 
ATOM      8  O   UNL     1       4.681   4.088  16.082  0.00  0.00    +0.000 OA
ATOM      9  N   UNL     1       5.581   4.548  18.230  0.00  0.00    +0.000 N 
ATOM     10  C   UNL     1       6.882   4.971  18.705  0.00  0.00    +0.000 C 
BRANCH   9  11
ATOM     11  C   UNL     1       4.530   4.159  19.112  0.00  0.00    +0.000 A 
ATOM     12  C   UNL     1       3.509   5.045  19.478  0.00  0.00    +0.000 A 
ATOM     13  C   UNL     1       2.462   4.648  20.320  0.00  0.00    +0.000 A 
ATOM     14  C   UNL     1       2.411   3.351  20.829  0.00  0.00    +0.000 A 
ATOM     15  C   UNL     1       1.289   2.911  21.720  0.00  0.00    +0.000 C 
ATOM     16  C   UNL     1       3.434   2.464  20.495  0.00  0.00    +0.000 A 
ATOM     17  C   UNL     1       4.474   2.862  19.644  0.00  0.00    +0.000 A 
ENDBRANCH   9  11
ENDBRANCH   2   5
BRANCH   1  18
ATOM     18  C   UNL     1       8.215   9.280  18.168  0.00  0.00    +0.000 C 
BRANCH  18  19
ATOM     19  C   UNL     1       9.198   9.925  19.143  0.00  0.00    +0.000 C 
BRANCH  19  23
ATOM     20  C   UNL     1      10.746  13.543  17.338  0.00  0.00    +0.000 A 
ATOM     21  C   UNL     1      11.580  12.435  17.560  0.00  0.00    +0.000 A 
ATOM     22  C   UNL     1      11.091  11.270  18.155  0.00  0.00    +0.000 A 
ATOM     23  C   UNL     1       9.765  11.203  18.579  0.00  0.00    +0.000 A 
ATOM     24  C   UNL     1       8.951  12.331  18.419  0.00  0.00    +0.000 A 
ATOM     25  C   UNL     1       9.425  13.506  17.810  0.00  0.00    +0.000 A 
BRANCH  20  27
ATOM     26  C   UNL     1      11.913  15.601  17.510  0.00  0.00    +0.000 C 
ATOM     27  O   UNL     1      11.207  14.663  16.699  0.00  0.00    +0.000 OA
ENDBRANCH  20  27
BRANCH  25  28
ATOM     28  O   UNL     1       8.460  14.476  17.752  0.00  0.00    +0.000 OA
ATOM     29  C   UNL     1       8.341  15.398  18.823  0.00  0.00    +0.000 C 
ENDBRANCH  25  28
ENDBRANCH  19  23
ENDBRANCH  18  19
ENDBRANCH   1  18
TORSDOF 7
ENDMDL
MODEL 2
REMARK VINA RESULT:      -7.9      1.417      1.467
REMARK  Name = 
REMARK  10 active torsions:
REMARK  status: ('A' for Active; 'I' for Inactive)
REMARK    1  A    between atoms: C_1  and  O_2
REMARK    2  A    between atoms: O_2  and  C_3
REMARK    3  A    between atoms: C_6  and  C_7
REMARK    4  A    between atoms: C_7  and  C_8
REMARK    5  A    between atoms: C_8  and  N_9
REMARK    6  A    between atoms: C_10  and  C_12
REMARK    7  A    between atoms: N_16  and  C_17
REMARK    8  A    between atoms: C_20  and  C_21
REMARK    9  A    between atoms: C_26  and  O_27
REMARK   10  A    between atoms: O_27  and  C_28
REMARK                            x       y       z     vdW  Elec       q    Type
REMARK                         _______ _______ _______ _____ _____    ______ ____
ROOT
ATOM      1  N   UNL     1       8.531   7.931  18.574  0.00  0.00    +0.000 N 
ATOM      2  C   UNL     1       7.665   7.162  17.823  0.00  0.00    +0.000 C 
ATOM      3  O   UNL     1       6.811   7.661  17.101  0.00  0.00    +0.000 OA
ATOM      4  H   UNL     1       9.265   7.498  19.119  0.00  0.00    +0.000 HD
ENDROOT
BRANCH   2   5
ATOM      5  C   UNL     1       7.797   5.659  18.032  0.00  0.00    +0.000 C 
ATOM      6  C   UNL     1       7.509   4.853  16.777  0.00  0.00    +0.000 C 
ATOM      7  C   UNL     1       6.047   4.495  16.900  0.00  0.00    +0.000 C 
ATOM      8  O   UNL     1       5.406   4.075  15.949  0.00  0.00    +0.000 OA
ATOM      9  N   UNL     1       5.655   4.694  18.228  0.00  0.00    +0.000 N 
ATOM     10  C   UNL     1       6.773   5.143  19.030  0.00  0.00    +0.000 C 
BRANCH   9  11
ATOM     11  C   UNL     1       4.381   4.386  18.789  0.00  0.00    +0.000 A 
ATOM     12  C   UNL     1       3.452   5.385  19.105  0.00  0.00    +0.000 A 
ATOM     13  C   UNL     1       2.190   5.074  19.627  0.00  0.00    +0.000 A 
ATOM     14  C   UNL     1       1.823   3.748  19.857  0.00  0.00    +0.000 A 
ATOM     15  C   UNL     1       0.471   3.401  20.403  0.00  0.00    +0.000 C 
ATOM     16  C   UNL     1       2.746   2.742  19.571  0.00  0.00    +0.000 A 
ATOM     17  C   UNL     1       4.004   3.057  19.039  0.00  0.00    +0.000 A 
ENDBRANCH   9  11
ENDBRANCH   2   5
BRANCH   1  18
ATOM     18  C   UNL     1       8.496   9.377  18.449  0.00  0.00    +0.000 C 
BRANCH  18  19
ATOM     19  C   UNL     1       9.200  10.093  19.600  0.00  0.00    +0.000 C 
BRANCH  19  23
ATOM     20  C   UNL     1      10.512  14.042  18.404  0.00  0.00    +0.000 A 
ATOM     21  C   UNL     1      10.104  13.098  17.447  0.00  0.00    +0.000 A 
ATOM     22  C   UNL     1       9.693  11.818  17.824  0.00  0.00    +0.000 A 
ATOM     23  C   UNL     1       9.721  11.440  19.166  0.00  0.00    +0.000 A 
ATOM     24  C   UNL     1      10.192  12.358  20.112  0.00  0.00    +0.000 A 
ATOM     25  C   UNL     1      10.596  13.654  19.750  0.00  0.00    +0.000 A 
BRANCH  20  27
ATOM     26  C   UNL     1       9.823  16.098  17.440  0.00  0.00    +0.000 C 
ATOM     27  O   UNL     1      10.856  15.317  18.041  0.00  0.00    +0.000 OA
ENDBRANCH  20  27
BRANCH  25  28
ATOM     28  O   UNL     1      11.011  14.382  20.833  0.00  0.00    +0.000 OA
ATOM     29  C   UNL     1      10.057  15.123  21.576  0.00  0.00    +0.000 C 
ENDBRANCH  25  28
ENDBRANCH  19  23
ENDBRANCH  18  19
ENDBRANCH   1  18
TORSDOF 7
ENDMDL
MODEL 3
REMARK VINA RESULT:      -7.9      1.861      2.245
REMARK  Name = 
REMARK  10 active torsions:
REMARK  status: ('A' for Active; 'I' for Inactive)
REMARK    1  A    between atoms: C_1  and  O_2
REMARK    2  A    between atoms: O_2  and  C_3
REMARK    3  A    between atoms: C_6  and  C_7
REMARK    4  A    between atoms: C_7  and  C_8
REMARK    5  A    between atoms: C_8  and  N_9
REMARK    6  A    between atoms: C_10  and  C_12
REMARK    7  A    between atoms: N_16  and  C_17
REMARK    8  A    between atoms: C_20  and  C_21
REMARK    9  A    between atoms: C_26  and  O_27
REMARK   10  A    between atoms: O_27  and  C_28
REMARK                            x       y       z     vdW  Elec       q    Type
REMARK                         _______ _______ _______ _____ _____    ______ ____
ROOT
ATOM      1  N   UNL     1       7.762   8.177  17.685  0.00  0.00    +0.000 N 
ATOM      2  C   UNL     1       7.602   6.848  18.022  0.00  0.00    +0.000 C 
ATOM      3  O   UNL     1       8.198   6.340  18.962  0.00  0.00    +0.000 OA
ATOM      4  H   UNL     1       7.216   8.589  16.940  0.00  0.00    +0.000 HD
ENDROOT
BRANCH   2   5
ATOM      5  C   UNL     1       6.703   6.053  17.084  0.00  0.00    +0.000 C 
ATOM      6  C   UNL     1       5.532   6.860  16.550  0.00  0.00    +0.000 C 
ATOM      7  C   UNL     1       4.404   6.543  17.503  0.00  0.00    +0.000 C 
ATOM      8  O   UNL     1       3.385   7.216  17.539  0.00  0.00    +0.000 OA
ATOM      9  N   UNL     1       4.748   5.397  18.226  0.00  0.00    +0.000 N 
ATOM     10  C   UNL     1       6.036   4.891  17.803  0.00  0.00    +0.000 C 
BRANCH   9  11
ATOM     11  C   UNL     1       3.921   4.708  19.161  0.00  0.00    +0.000 A 
ATOM     12  C   UNL     1       2.962   5.378  19.932  0.00  0.00    +0.000 A 
ATOM     13  C   UNL     1       2.131   4.691  20.826  0.00  0.00    +0.000 A 
ATOM     14  C   UNL     1       2.242   3.310  20.984  0.00  0.00    +0.000 A 
ATOM     15  C   UNL     1       1.351   2.563  21.929  0.00  0.00    +0.000 C 
ATOM     16  C   UNL     1       3.210   2.632  20.243  0.00  0.00    +0.000 A 
ATOM     17  C   UNL     1       4.032   3.321  19.341  0.00  0.00    +0.000 A 
ENDBRANCH   9  11
ENDBRANCH   2   5
BRANCH   1  18
ATOM     18  C   UNL     1       8.593   9.031  18.514  0.00  0.00    +0.000 C 
BRANCH  18  19
ATOM     19  C   UNL     1       8.976  10.341  17.827  0.00  0.00    +0.000 C 
BRANCH  19  23
ATOM     20  C   UNL     1      10.108  13.393  20.681  0.00  0.00    +0.000 A 
ATOM     21  C   UNL     1       9.831  12.082  21.101  0.00  0.00    +0.000 A 
ATOM     22  C   UNL     1       9.452  11.096  20.188  0.00  0.00    +0.000 A 
ATOM     23  C   UNL     1       9.300  11.411  18.838  0.00  0.00    +0.000 A 
ATOM     24  C   UNL     1       9.510  12.734  18.430  0.00  0.00    +0.000 A 
ATOM     25  C   UNL     1       9.906  13.734  19.335  0.00  0.00    +0.000 A 
BRANCH  20  27
ATOM     26  C   UNL     1       9.543  14.906  22.419  0.00  0.00    +0.000 C 
ATOM     27  O   UNL     1      10.539  14.346  21.565  0.00  0.00    +0.000 OA
ENDBRANCH  20  27
BRANCH  25  28
ATOM     28  O   UNL     1      10.060  14.947  18.719  0.00  0.00    +0.000 OA
ATOM     29  C   UNL     1       8.966  15.849  18.684  0.00  0.00    +0.000 C 
ENDBRANCH  25  28
ENDBRANCH  19  23
ENDBRANCH  18  19
ENDBRANCH   1  18
TORSDOF 7
ENDMDL
MODEL 4
REMARK VINA RESULT:      -7.8      1.801      2.344
REMARK  Name = 
REMARK  10 active torsions:
REMARK  status: ('A' for Active; 'I' for Inactive)
REMARK    1  A    between atoms: C_1  and  O_2
REMARK    2  A    between atoms: O_2  and  C_3
REMARK    3  A    between atoms: C_6  and  C_7
REMARK    4  A    between atoms: C_7  and  C_8
REMARK    5  A    between atoms: C_8  and  N_9
REMARK    6  A    between atoms: C_10  and  C_12
REMARK    7  A    between atoms: N_16  and  C_17
REMARK    8  A    between atoms: C_20  and  C_21
REMARK    9  A    between atoms: C_26  and  O_27
REMARK   10  A    between atoms: O_27  and  C_28
REMARK                            x       y       z     vdW  Elec       q    Type
REMARK                         _______ _______ _______ _____ _____    ______ ____
ROOT
ATOM      1  N   UNL     1       8.254   7.657  17.973  0.00  0.00    +0.000 N 
ATOM      2  C   UNL     1       7.262   6.966  17.306  0.00  0.00    +0.000 C 
ATOM      3  O   UNL     1       6.258   7.520  16.879  0.00  0.00    +0.000 OA
ATOM      4  H   UNL     1       9.101   7.189  18.266  0.00  0.00    +0.000 HD
ENDROOT
BRANCH   2   5
ATOM      5  C   UNL     1       7.474   5.460  17.225  0.00  0.00    +0.000 C 
ATOM      6  C   UNL     1       7.288   4.904  15.824  0.00  0.00    +0.000 C 
ATOM      7  C   UNL     1       5.847   4.456  15.797  0.00  0.00    +0.000 C 
ATOM      8  O   UNL     1       5.272   4.200  14.750  0.00  0.00    +0.000 OA
ATOM      9  N   UNL     1       5.387   4.370  17.115  0.00  0.00    +0.000 N 
ATOM     10  C   UNL     1       6.442   4.707  18.048  0.00  0.00    +0.000 C 
BRANCH   9  11
ATOM     11  C   UNL     1       4.112   3.894  17.536  0.00  0.00    +0.000 A 
ATOM     12  C   UNL     1       3.884   2.540  17.814  0.00  0.00    +0.000 A 
ATOM     13  C   UNL     1       2.637   2.082  18.258  0.00  0.00    +0.000 A 
ATOM     14  C   UNL     1       1.574   2.968  18.429  0.00  0.00    +0.000 A 
ATOM     15  C   UNL     1       0.238   2.493  18.915  0.00  0.00    +0.000 C 
ATOM     16  C   UNL     1       1.776   4.316  18.133  0.00  0.00    +0.000 A 
ATOM     17  C   UNL     1       3.029   4.772  17.698  0.00  0.00    +0.000 A 
ENDBRANCH   9  11
ENDBRANCH   2   5
BRANCH   1  18
ATOM     18  C   UNL     1       8.157   9.101  18.103  0.00  0.00    +0.000 C 
BRANCH  18  19
ATOM     19  C   UNL     1       9.242   9.693  19.000  0.00  0.00    +0.000 C 
BRANCH  19  23
ATOM     20  C   UNL     1       8.846  14.003  19.095  0.00  0.00    +0.000 A 
ATOM     21  C   UNL     1       8.815  13.304  17.878  0.00  0.00    +0.000 A 
ATOM     22  C   UNL     1       8.955  11.915  17.838  0.00  0.00    +0.000 A 
ATOM     23  C   UNL     1       9.174  11.199  19.014  0.00  0.00    +0.000 A 
ATOM     24  C   UNL     1       9.273  11.903  20.220  0.00  0.00    +0.000 A 
ATOM     25  C   UNL     1       9.119  13.299  20.278  0.00  0.00    +0.000 A 
BRANCH  20  27
ATOM     26  C   UNL     1       8.240  15.973  17.920  0.00  0.00    +0.000 C 
ATOM     27  O   UNL     1       8.646  15.357  19.142  0.00  0.00    +0.000 OA
ENDBRANCH  20  27
BRANCH  25  28
ATOM     28  O   UNL     1       9.247  13.775  21.556  0.00  0.00    +0.000 OA
ATOM     29  C   UNL     1       8.088  13.921  22.359  0.00  0.00    +0.000 C 
ENDBRANCH  25  28
ENDBRANCH  19  23
ENDBRANCH  18  19
ENDBRANCH   1  18
TORSDOF 7
ENDMDL
MODEL 5
REMARK VINA RESULT:      -7.8      1.385      1.654
REMARK  Name = 
REMARK  10 active torsions:
REMARK  status: ('A' for Active; 'I' for Inactive)
REMARK    1  A    between atoms: C_1  and  O_2
REMARK    2  A    between atoms: O_2  and  C_3
REMARK    3  A    between atoms: C_6  and  C_7
REMARK    4  A    between atoms: C_7  and  C_8
REMARK    5  A    between atoms: C_8  and  N_9
REMARK    6  A    between atoms: C_10  and  C_12
REMARK    7  A    between atoms: N_16  and  C_17
REMARK    8  A    between atoms: C_20  and  C_21
REMARK    9  A    between atoms: C_26  and  O_27
REMARK   10  A    between atoms: O_27  and  C_28
REMARK                            x       y       z     vdW  Elec       q    Type
REMARK                         _______ _______ _______ _____ _____    ______ ____
ROOT
ATOM      1  N   UNL     1       8.338   7.900  17.768  0.00  0.00    +0.000 N 
ATOM      2  C   UNL     1       7.211   7.175  17.437  0.00  0.00    +0.000 C 
ATOM      3  O   UNL     1       6.100   7.686  17.388  0.00  0.00    +0.000 OA
ATOM      4  H   UNL     1       9.253   7.469  17.746  0.00  0.00    +0.000 HD
ENDROOT
BRANCH   2   5
ATOM      5  C   UNL     1       7.447   5.684  17.227  0.00  0.00    +0.000 C 
ATOM      6  C   UNL     1       7.224   5.239  15.792  0.00  0.00    +0.000 C 
ATOM      7  C   UNL     1       5.790   4.766  15.774  0.00  0.00    +0.000 C 
ATOM      8  O   UNL     1       5.186   4.585  14.729  0.00  0.00    +0.000 OA
ATOM      9  N   UNL     1       5.376   4.566  17.095  0.00  0.00    +0.000 N 
ATOM     10  C   UNL     1       6.455   4.847  18.019  0.00  0.00    +0.000 C 
BRANCH   9  11
ATOM     11  C   UNL     1       4.124   4.031  17.517  0.00  0.00    +0.000 A 
ATOM     12  C   UNL     1       3.938   2.658  17.720  0.00  0.00    +0.000 A 
ATOM     13  C   UNL     1       2.713   2.142  18.164  0.00  0.00    +0.000 A 
ATOM     14  C   UNL     1       1.632   2.988  18.411  0.00  0.00    +0.000 A 
ATOM     15  C   UNL     1       0.321   2.450  18.898  0.00  0.00    +0.000 C 
ATOM     16  C   UNL     1       1.793   4.356  18.189  0.00  0.00    +0.000 A 
ATOM     17  C   UNL     1       3.023   4.869  17.754  0.00  0.00    +0.000 A 
ENDBRANCH   9  11
ENDBRANCH   2   5
BRANCH   1  18
ATOM     18  C   UNL     1       8.231   9.332  17.984  0.00  0.00    +0.000 C 
BRANCH  18  19
ATOM     19  C   UNL     1       8.956   9.802  19.244  0.00  0.00    +0.000 C 
BRANCH  19  23
ATOM     20  C   UNL     1      10.869  13.589  18.387  0.00  0.00    +0.000 A 
ATOM     21  C   UNL     1      11.614  12.399  18.424  0.00  0.00    +0.000 A 
ATOM     22  C   UNL     1      11.006  11.176  18.713  0.00  0.00    +0.000 A 
ATOM     23  C   UNL     1       9.645  11.123  19.014  0.00  0.00    +0.000 A 
ATOM     24  C   UNL     1       8.917  12.318  19.043  0.00  0.00    +0.000 A 
ATOM     25  C   UNL     1       9.512  13.555  18.740  0.00  0.00    +0.000 A 
BRANCH  20  27
ATOM     26  C   UNL     1      11.219  15.228  16.707  0.00  0.00    +0.000 C 
ATOM     27  O   UNL     1      11.451  14.780  18.042  0.00  0.00    +0.000 OA
ENDBRANCH  20  27
BRANCH  25  28
ATOM     28  O   UNL     1       8.615  14.587  18.823  0.00  0.00    +0.000 OA
ATOM     29  C   UNL     1       7.502  14.609  17.944  0.00  0.00    +0.000 C 
ENDBRANCH  25  28
ENDBRANCH  19  23
ENDBRANCH  18  19
ENDBRANCH   1  18
TORSDOF 7
ENDMDL
MODEL 6
REMARK VINA RESULT:      -7.7      1.072      1.404
REMARK  Name = 
REMARK  10 active torsions:
REMARK  status: ('A' for Active; 'I' for Inactive)
REMARK    1  A    between atoms: C_1  and  O_2
REMARK    2  A    between atoms: O_2  and  C_3
REMARK    3  A    between atoms: C_6  and  C_7
REMARK    4  A    between atoms: C_7  and  C_8
REMARK    5  A    between atoms: C_8  and  N_9
REMARK    6  A    between atoms: C_10  and  C_12
REMARK    7  A    between atoms: N_16  and  C_17
REMARK    8  A    between atoms: C_20  and  C_21
REMARK    9  A    between atoms: C_26  and  O_27
REMARK   10  A    between atoms: O_27  and  C_28
REMARK                            x       y       z     vdW  Elec       q    Type
REMARK                         _______ _______ _______ _____ _____    ______ ____
ROOT
ATOM      1  N   UNL     1       8.502   7.935  18.455  0.00  0.00    +0.000 N 
ATOM      2  C   UNL     1       7.616   7.197  17.697  0.00  0.00    +0.000 C 
ATOM      3  O   UNL     1       6.736   7.724  17.029  0.00  0.00    +0.000 OA
ATOM      4  H   UNL     1       9.257   7.482  18.954  0.00  0.00    +0.000 HD
ENDROOT
BRANCH   2   5
ATOM      5  C   UNL     1       7.762   5.687  17.830  0.00  0.00    +0.000 C 
ATOM      6  C   UNL     1       7.440   4.940  16.548  0.00  0.00    +0.000 C 
ATOM      7  C   UNL     1       5.985   4.566  16.697  0.00  0.00    +0.000 C 
ATOM      8  O   UNL     1       5.317   4.187  15.747  0.00  0.00    +0.000 OA
ATOM      9  N   UNL     1       5.632   4.699  18.044  0.00  0.00    +0.000 N 
ATOM     10  C   UNL     1       6.771   5.117  18.833  0.00  0.00    +0.000 C 
BRANCH   9  11
ATOM     11  C   UNL     1       4.378   4.356  18.627  0.00  0.00    +0.000 A 
ATOM     12  C   UNL     1       4.229   3.230  19.447  0.00  0.00    +0.000 A 
ATOM     13  C   UNL     1       3.001   2.914  20.043  0.00  0.00    +0.000 A 
ATOM     14  C   UNL     1       1.879   3.714  19.827  0.00  0.00    +0.000 A 
ATOM     15  C   UNL     1       0.563   3.395  20.469  0.00  0.00    +0.000 C 
ATOM     16  C   UNL     1       2.004   4.825  18.993  0.00  0.00    +0.000 A 
ATOM     17  C   UNL     1       3.237   5.143  18.407  0.00  0.00    +0.000 A 
ENDBRANCH   9  11
ENDBRANCH   2   5
BRANCH   1  18
ATOM     18  C   UNL     1       8.457   9.386  18.400  0.00  0.00    +0.000 C 
BRANCH  18  19
ATOM     19  C   UNL     1       9.384  10.051  19.415  0.00  0.00    +0.000 C 
BRANCH  19  23
ATOM     20  C   UNL     1       9.847  14.247  18.454  0.00  0.00    +0.000 A 
ATOM     21  C   UNL     1      10.760  13.598  19.300  0.00  0.00    +0.000 A 
ATOM     22  C   UNL     1      10.610  12.248  19.625  0.00  0.00    +0.000 A 
ATOM     23  C   UNL     1       9.516  11.529  19.144  0.00  0.00    +0.000 A 
ATOM     24  C   UNL     1       8.569  12.194  18.356  0.00  0.00    +0.000 A 
ATOM     25  C   UNL     1       8.715  13.548  18.008  0.00  0.00    +0.000 A 
BRANCH  20  27
ATOM     26  C   UNL     1      10.753  15.767  16.873  0.00  0.00    +0.000 C 
ATOM     27  O   UNL     1      10.027  15.553  18.083  0.00  0.00    +0.000 OA
ENDBRANCH  20  27
BRANCH  25  28
ATOM     28  O   UNL     1       7.679  13.989  17.228  0.00  0.00    +0.000 OA
ATOM     29  C   UNL     1       6.567  14.617  17.845  0.00  0.00    +0.000 C 
ENDBRANCH  25  28
ENDBRANCH  19  23
ENDBRANCH  18  19
ENDBRANCH   1  18
TORSDOF 7
ENDMDL
MODEL 7
REMARK VINA RESULT:      -7.7      1.807      2.342
REMARK  Name = 
REMARK  10 active torsions:
REMARK  status: ('A' for Active; 'I' for Inactive)
REMARK    1  A    between atoms: C_1  and  O_2
REMARK    2  A    between atoms: O_2  and  C_3
REMARK    3  A    between atoms: C_6  and  C_7
REMARK    4  A    between atoms: C_7  and  C_8
REMARK    5  A    between atoms: C_8  and  N_9
REMARK    6  A    between atoms: C_10  and  C_12
REMARK    7  A    between atoms: N_16  and  C_17
REMARK    8  A    between atoms: C_20  and  C_21
REMARK    9  A    between atoms: C_26  and  O_27
REMARK   10  A    between atoms: O_27  and  C_28
REMARK                            x       y       z     vdW  Elec       q    Type
REMARK                         _______ _______ _______ _____ _____    ______ ____
ROOT
ATOM      1  N   UNL     1       8.104   7.868  18.191  0.00  0.00    +0.000 N 
ATOM      2  C   UNL     1       7.333   7.000  17.445  0.00  0.00    +0.000 C 
ATOM      3  O   UNL     1       6.479   7.395  16.662  0.00  0.00    +0.000 OA
ATOM      4  H   UNL     1       8.842   7.520  18.788  0.00  0.00    +0.000 HD
ENDROOT
BRANCH   2   5
ATOM      5  C   UNL     1       7.567   5.523  17.738  0.00  0.00    +0.000 C 
ATOM      6  C   UNL     1       7.576   4.659  16.488  0.00  0.00    +0.000 C 
ATOM      7  C   UNL     1       6.155   4.161  16.377  0.00  0.00    +0.000 C 
ATOM      8  O   UNL     1       5.729   3.654  15.351  0.00  0.00    +0.000 OA
ATOM      9  N   UNL     1       5.523   4.356  17.610  0.00  0.00    +0.000 N 
ATOM     10  C   UNL     1       6.439   4.934  18.570  0.00  0.00    +0.000 C 
BRANCH   9  11
ATOM     11  C   UNL     1       4.206   3.937  17.960  0.00  0.00    +0.000 A 
ATOM     12  C   UNL     1       3.075   4.680  17.599  0.00  0.00    +0.000 A 
ATOM     13  C   UNL     1       1.781   4.247  17.919  0.00  0.00    +0.000 A 
ATOM     14  C   UNL     1       1.582   3.058  18.619  0.00  0.00    +0.000 A 
ATOM     15  C   UNL     1       0.203   2.578  18.956  0.00  0.00    +0.000 C 
ATOM     16  C   UNL     1       2.699   2.318  19.008  0.00  0.00    +0.000 A 
ATOM     17  C   UNL     1       3.991   2.750  18.677  0.00  0.00    +0.000 A 
ENDBRANCH   9  11
ENDBRANCH   2   5
BRANCH   1  18
ATOM     18  C   UNL     1       7.967   9.300  17.989  0.00  0.00    +0.000 C 
BRANCH  18  19
ATOM     19  C   UNL     1       9.300  10.043  18.064  0.00  0.00    +0.000 C 
BRANCH  19  23
ATOM     20  C   UNL     1       9.343  13.277  20.941  0.00  0.00    +0.000 A 
ATOM     21  C   UNL     1       9.428  11.940  21.361  0.00  0.00    +0.000 A 
ATOM     22  C   UNL     1       9.401  10.891  20.440  0.00  0.00    +0.000 A 
ATOM     23  C   UNL     1       9.245  11.156  19.079  0.00  0.00    +0.000 A 
ATOM     24  C   UNL     1       9.092  12.486  18.668  0.00  0.00    +0.000 A 
ATOM     25  C   UNL     1       9.131  13.553  19.582  0.00  0.00    +0.000 A 
BRANCH  20  27
ATOM     26  C   UNL     1       8.219  14.675  22.495  0.00  0.00    +0.000 C 
ATOM     27  O   UNL     1       9.432  14.310  21.837  0.00  0.00    +0.000 OA
ENDBRANCH  20  27
BRANCH  25  28
ATOM     28  O   UNL     1       8.968  14.763  18.961  0.00  0.00    +0.000 OA
ATOM     29  C   UNL     1       7.835  14.968  18.133  0.00  0.00    +0.000 C 
ENDBRANCH  25  28
ENDBRANCH  19  23
ENDBRANCH  18  19
ENDBRANCH   1  18
TORSDOF 7
ENDMDL
MODEL 8
REMARK VINA RESULT:      -7.6      6.306      9.340
REMARK  Name = 
REMARK  10 active torsions:
REMARK  status: ('A' for Active; 'I' for Inactive)
REMARK    1  A    between atoms: C_1  and  O_2
REMARK    2  A    between atoms: O_2  and  C_3
REMARK    3  A    between atoms: C_6  and  C_7
REMARK    4  A    between atoms: C_7  and  C_8
REMARK    5  A    between atoms: C_8  and  N_9
REMARK    6  A    between atoms: C_10  and  C_12
REMARK    7  A    between atoms: N_16  and  C_17
REMARK    8  A    between atoms: C_20  and  C_21
REMARK    9  A    between atoms: C_26  and  O_27
REMARK   10  A    between atoms: O_27  and  C_28
REMARK                            x       y       z     vdW  Elec       q    Type
REMARK                         _______ _______ _______ _____ _____    ______ ____
ROOT
ATOM      1  N   UNL     1       2.059   8.194  18.516  0.00  0.00    +0.000 N 
ATOM      2  C   UNL     1       1.361   9.031  19.363  0.00  0.00    +0.000 C 
ATOM      3  O   UNL     1       1.192   8.767  20.546  0.00  0.00    +0.000 OA
ATOM      4  H   UNL     1       2.234   8.460  17.557  0.00  0.00    +0.000 HD
ENDROOT
BRANCH   2   5
ATOM      5  C   UNL     1       0.746  10.253  18.692  0.00  0.00    +0.000 C 
ATOM      6  C   UNL     1       1.521  11.533  18.955  0.00  0.00    +0.000 C 
ATOM      7  C   UNL     1       0.826  12.143  20.149  0.00  0.00    +0.000 C 
ATOM      8  O   UNL     1       1.337  13.041  20.800  0.00  0.00    +0.000 OA
ATOM      9  N   UNL     1      -0.423  11.531  20.291  0.00  0.00    +0.000 N 
ATOM     10  C   UNL     1      -0.638  10.555  19.243  0.00  0.00    +0.000 C 
BRANCH   9  11
ATOM     11  C   UNL     1      -1.433  11.880  21.235  0.00  0.00    +0.000 A 
ATOM     12  C   UNL     1      -2.550  12.643  20.872  0.00  0.00    +0.000 A 
ATOM     13  C   UNL     1      -3.555  12.956  21.797  0.00  0.00    +0.000 A 
ATOM     14  C   UNL     1      -3.466  12.521  23.119  0.00  0.00    +0.000 A 
ATOM     15  C   UNL     1      -4.540  12.839  24.115  0.00  0.00    +0.000 C 
ATOM     16  C   UNL     1      -2.347  11.781  23.502  0.00  0.00    +0.000 A 
ATOM     17  C   UNL     1      -1.349  11.461  22.572  0.00  0.00    +0.000 A 
ENDBRANCH   9  11
ENDBRANCH   2   5
BRANCH   1  18
ATOM     18  C   UNL     1       2.692   7.001  19.051  0.00  0.00    +0.000 C 
BRANCH  18  19
ATOM     19  C   UNL     1       2.571   5.794  18.123  0.00  0.00    +0.000 C 
BRANCH  19  23
ATOM     20  C   UNL     1       6.282   4.984  16.045  0.00  0.00    +0.000 A 
ATOM     21  C   UNL     1       5.331   3.970  16.241  0.00  0.00    +0.000 A 
ATOM     22  C   UNL     1       4.137   4.220  16.922  0.00  0.00    +0.000 A 
ATOM     23  C   UNL     1       3.889   5.483  17.460  0.00  0.00    +0.000 A 
ATOM     24  C   UNL     1       4.867   6.475  17.324  0.00  0.00    +0.000 A 
ATOM     25  C   UNL     1       6.066   6.242  16.629  0.00  0.00    +0.000 A 
BRANCH  20  27
ATOM     26  C   UNL     1       7.286   4.798  13.904  0.00  0.00    +0.000 C 
ATOM     27  O   UNL     1       7.423   4.757  15.324  0.00  0.00    +0.000 OA
ENDBRANCH  20  27
BRANCH  25  28
ATOM     28  O   UNL     1       6.871   7.351  16.613  0.00  0.00    +0.000 OA
ATOM     29  C   UNL     1       7.663   7.647  17.751  0.00  0.00    +0.000 C 
ENDBRANCH  25  28
ENDBRANCH  19  23
ENDBRANCH  18  19
ENDBRANCH   1  18
TORSDOF 7
ENDMDL
MODEL 9
REMARK VINA RESULT:      -7.6      1.978      2.845
REMARK  Name = 
REMARK  10 active torsions:
REMARK  status: ('A' for Active; 'I' for Inactive)
REMARK    1  A    between atoms: C_1  and  O_2
REMARK    2  A    between atoms: O_2  and  C_3
REMARK    3  A    between atoms: C_6  and  C_7
REMARK    4  A    between atoms: C_7  and  C_8
REMARK    5  A    between atoms: C_8  and  N_9
REMARK    6  A    between atoms: C_10  and  C_12
REMARK    7  A    between atoms: N_16  and  C_17
REMARK    8  A    between atoms: C_20  and  C_21
REMARK    9  A    between atoms: C_26  and  O_27
REMARK   10  A    between atoms: O_27  and  C_28
REMARK                            x       y       z     vdW  Elec       q    Type
REMARK                         _______ _______ _______ _____ _____    ______ ____
ROOT
ATOM      1  N   UNL     1       8.345   8.135  18.349  0.00  0.00    +0.000 N 
ATOM      2  C   UNL     1       7.534   7.215  17.716  0.00  0.00    +0.000 C 
ATOM      3  O   UNL     1       6.648   7.553  16.942  0.00  0.00    +0.000 OA
ATOM      4  H   UNL     1       9.108   7.831  18.939  0.00  0.00    +0.000 HD
ENDROOT
BRANCH   2   5
ATOM      5  C   UNL     1       7.769   5.766  18.123  0.00  0.00    +0.000 C 
ATOM      6  C   UNL     1       7.651   4.792  16.964  0.00  0.00    +0.000 C 
ATOM      7  C   UNL     1       6.219   4.321  17.026  0.00  0.00    +0.000 C 
ATOM      8  O   UNL     1       5.694   3.733  16.093  0.00  0.00    +0.000 OA
ATOM      9  N   UNL     1       5.703   4.643  18.286  0.00  0.00    +0.000 N 
ATOM     10  C   UNL     1       6.711   5.284  19.103  0.00  0.00    +0.000 C 
BRANCH   9  11
ATOM     11  C   UNL     1       4.417   4.290  18.788  0.00  0.00    +0.000 A 
ATOM     12  C   UNL     1       4.169   3.041  19.371  0.00  0.00    +0.000 A 
ATOM     13  C   UNL     1       2.911   2.712  19.892  0.00  0.00    +0.000 A 
ATOM     14  C   UNL     1       1.857   3.623  19.836  0.00  0.00    +0.000 A 
ATOM     15  C   UNL     1       0.510   3.287  20.400  0.00  0.00    +0.000 C 
ATOM     16  C   UNL     1       2.080   4.862  19.235  0.00  0.00    +0.000 A 
ATOM     17  C   UNL     1       3.343   5.192  18.725  0.00  0.00    +0.000 A 
ENDBRANCH   9  11
ENDBRANCH   2   5
BRANCH   1  18
ATOM     18  C   UNL     1       8.211   9.546  18.030  0.00  0.00    +0.000 C 
BRANCH  18  19
ATOM     19  C   UNL     1       9.508  10.328  18.230  0.00  0.00    +0.000 C 
BRANCH  19  23
ATOM     20  C   UNL     1       8.661  13.768  20.719  0.00  0.00    +0.000 A 
ATOM     21  C   UNL     1       8.709  13.886  19.320  0.00  0.00    +0.000 A 
ATOM     22  C   UNL     1       8.994  12.783  18.512  0.00  0.00    +0.000 A 
ATOM     23  C   UNL     1       9.282  11.547  19.088  0.00  0.00    +0.000 A 
ATOM     24  C   UNL     1       9.302  11.446  20.485  0.00  0.00    +0.000 A 
ATOM     25  C   UNL     1       9.002  12.542  21.311  0.00  0.00    +0.000 A 
BRANCH  20  27
ATOM     26  C   UNL     1       6.922  15.069  21.673  0.00  0.00    +0.000 C 
ATOM     27  O   UNL     1       8.320  14.832  21.510  0.00  0.00    +0.000 OA
ENDBRANCH  20  27
BRANCH  25  28
ATOM     28  O   UNL     1       9.074  12.215  22.639  0.00  0.00    +0.000 OA
ATOM     29  C   UNL     1       7.924  11.698  23.288  0.00  0.00    +0.000 C 
ENDBRANCH  25  28
ENDBRANCH  19  23
ENDBRANCH  18  19
ENDBRANCH   1  18
TORSDOF 7
ENDMDL
