MODEL 1
REMARK VINA RESULT:      -8.2      0.000      0.000
REMARK  Name = 
REMARK  5 active torsions:
REMARK  status: ('A' for Active; 'I' for Inactive)
REMARK    1  A    between atoms: C_1  and  O_2
REMARK    2  A    between atoms: O_2  and  C_3
REMARK    3  A    between atoms: C_7  and  C_8
REMARK    4  A    between atoms: N_10  and  C_11
REMARK    5  A    between atoms: C_16  and  O_17
REMARK                            x       y       z     vdW  Elec       q    Type
REMARK                         _______ _______ _______ _____ _____    ______ ____
ROOT
ATOM      1  C   UNL     1       6.895   4.857  15.909  0.00  0.00    +0.000 C 
ATOM      2  O   UNL     1       7.836   4.539  16.634  0.00  0.00    +0.000 OA
ATOM      3  N   UNL     1       5.733   5.438  16.380  0.00  0.00    +0.000 N 
ATOM      4  H   UNL     1       4.960   5.501  15.723  0.00  0.00    +0.000 HD
ENDROOT
BRANCH   3   5
ATOM      5  C   UNL     1       5.514   5.653  17.810  0.00  0.00    +0.000 C 
ATOM      6  C   UNL     1       4.323   6.573  18.093  0.00  0.00    +0.000 C 
ATOM      7  C   UNL     1       2.980   5.935  17.745  0.00  0.00    +0.000 C 
ATOM      8  C   UNL     1       2.860   4.489  18.151  0.00  0.00    +0.000 A 
ATOM      9  C   UNL     1       1.595   3.878  18.116  0.00  0.00    +0.000 A 
ATOM     10  C   UNL     1       1.458   2.534  18.452  0.00  0.00    +0.000 A 
ATOM     11  C   UNL     1       2.560   1.783  18.830  0.00  0.00    +0.000 A 
ATOM     12  C   UNL     1       3.820   2.378  18.865  0.00  0.00    +0.000 A 
ATOM     13  C   UNL     1       3.987   3.725  18.507  0.00  0.00    +0.000 A 
ATOM     14  C   UNL     1       5.365   4.338  18.591  0.00  0.00    +0.000 C 
BRANCH  10  15
ATOM     15  O   UNL     1       0.245   1.912  18.417  0.00  0.00    +0.000 OA
ATOM     16  H   UNL     1      -0.370   2.460  17.905  0.00  0.00    +0.000 HD
ENDBRANCH  10  15
ENDBRANCH   3   5
BRANCH   1  21
ATOM     17  C   UNL     1       6.229   3.549  12.577  0.00  0.00    +0.000 A 
ATOM     18  N   UNL     1       7.019   4.259  11.758  0.00  0.00    +0.000 NA
ATOM     19  C   UNL     1       7.817   5.175  12.328  0.00  0.00    +0.000 A 
ATOM     20  C   UNL     1       7.848   5.399  13.678  0.00  0.00    +0.000 A 
ATOM     21  C   UNL     1       6.976   4.633  14.429  0.00  0.00    +0.000 A 
ATOM     22  N   UNL     1       6.152   3.691  13.909  0.00  0.00    +0.000 NA
BRANCH  17  24
ATOM     23  C   UNL     1       4.286   3.150  11.351  0.00  0.00    +0.000 C 
ATOM     24  O   UNL     1       5.458   2.603  11.938  0.00  0.00    +0.000 OA
ENDBRANCH  17  24
ENDBRANCH   1  21
TORSDOF 4
ENDMDL
MODEL 2
REMARK VINA RESULT:      -7.5      4.012      7.660
REMARK  Name = 
REMARK  5 active torsions:
REMARK  status: ('A' for Active; 'I' for Inactive)
REMARK    1  A    between atoms: C_1  and  O_2
REMARK    2  A    between atoms: O_2  and  C_3
REMARK    3  A    between atoms: C_7  and  C_8
REMARK    4  A    between atoms: N_10  and  C_11
REMARK    5  A    between atoms: C_16  and  O_17
REMARK                            x       y       z     vdW  Elec       q    Type
REMARK                         _______ _______ _______ _____ _____    ______ ____
ROOT
ATOM      1  C   UNL     1       2.367   6.393  19.956  0.00  0.00    +0.000 C 
ATOM      2  O   UNL     1       1.842   5.661  20.794  0.00  0.00    +0.000 OA
ATOM      3  N   UNL     1       3.441   6.008  19.176  0.00  0.00    +0.000 N 
ATOM      4  H   UNL     1       3.900   6.743  18.644  0.00  0.00    +0.000 HD
ENDROOT
BRANCH   3   5
ATOM      5  C   UNL     1       4.082   4.704  19.350  0.00  0.00    +0.000 C 
ATOM      6  C   UNL     1       3.365   3.587  18.588  0.00  0.00    +0.000 C 
ATOM      7  C   UNL     1       3.504   3.714  17.073  0.00  0.00    +0.000 C 
ATOM      8  C   UNL     1       4.884   4.104  16.610  0.00  0.00    +0.000 A 
ATOM      9  C   UNL     1       5.195   4.000  15.244  0.00  0.00    +0.000 A 
ATOM     10  C   UNL     1       6.450   4.385  14.781  0.00  0.00    +0.000 A 
ATOM     11  C   UNL     1       7.410   4.869  15.657  0.00  0.00    +0.000 A 
ATOM     12  C   UNL     1       7.111   4.979  17.014  0.00  0.00    +0.000 A 
ATOM     13  C   UNL     1       5.844   4.619  17.500  0.00  0.00    +0.000 A 
ATOM     14  C   UNL     1       5.574   4.724  18.983  0.00  0.00    +0.000 C 
BRANCH  10  15
ATOM     15  O   UNL     1       6.777   4.307  13.459  0.00  0.00    +0.000 OA
ATOM     16  H   UNL     1       6.910   3.374  13.227  0.00  0.00    +0.000 HD
ENDBRANCH  10  15
ENDBRANCH   3   5
BRANCH   1  21
ATOM     17  C   UNL     1       0.778   9.617  20.530  0.00  0.00    +0.000 A 
ATOM     18  N   UNL     1       0.949  10.300  19.389  0.00  0.00    +0.000 NA
ATOM     19  C   UNL     1       1.580   9.664  18.390  0.00  0.00    +0.000 A 
ATOM     20  C   UNL     1       2.041   8.379  18.499  0.00  0.00    +0.000 A 
ATOM     21  C   UNL     1       1.837   7.776  19.726  0.00  0.00    +0.000 A 
ATOM     22  N   UNL     1       1.203   8.367  20.767  0.00  0.00    +0.000 NA
BRANCH  17  24
ATOM     23  C   UNL     1       0.094   9.643  22.760  0.00  0.00    +0.000 C 
ATOM     24  O   UNL     1       0.095  10.311  21.506  0.00  0.00    +0.000 OA
ENDBRANCH  17  24
ENDBRANCH   1  21
TORSDOF 4
ENDMDL
MODEL 3
REMARK VINA RESULT:      -7.3      3.828      7.354
REMARK  Name = 
REMARK  5 active torsions:
REMARK  status: ('A' for Active; 'I' for Inactive)
REMARK    1  A    between atoms: C_1  and  O_2
REMARK    2  A    between atoms: O_2  and  C_3
REMARK    3  A    between atoms: C_7  and  C_8
REMARK    4  A    between atoms: N_10  and  C_11
REMARK    5  A    between atoms: C_16  and  O_17
REMARK                            x       y       z     vdW  Elec       q    Type
REMARK                         _______ _______ _______ _____ _____    ______ ____
ROOT
ATOM      1  C   UNL     1       2.226   6.077  20.158  0.00  0.00    +0.000 C 
ATOM      2  O   UNL     1       1.596   5.262  20.829  0.00  0.00    +0.000 OA
ATOM      3  N   UNL     1       3.345   5.749  19.416  0.00  0.00    +0.000 N 
ATOM      4  H   UNL     1       3.883   6.526  19.041  0.00  0.00    +0.000 HD
ENDROOT
BRANCH   3   5
ATOM      5  C   UNL     1       3.905   4.398  19.437  0.00  0.00    +0.000 C 
ATOM      6  C   UNL     1       3.180   3.443  18.485  0.00  0.00    +0.000 C 
ATOM      7  C   UNL     1       3.422   3.771  17.013  0.00  0.00    +0.000 C 
ATOM      8  C   UNL     1       4.846   4.137  16.688  0.00  0.00    +0.000 A 
ATOM      9  C   UNL     1       5.238   4.206  15.340  0.00  0.00    +0.000 A 
ATOM     10  C   UNL     1       6.538   4.576  15.007  0.00  0.00    +0.000 A 
ATOM     11  C   UNL     1       7.464   4.875  15.994  0.00  0.00    +0.000 A 
ATOM     12  C   UNL     1       7.086   4.813  17.335  0.00  0.00    +0.000 A 
ATOM     13  C   UNL     1       5.774   4.465  17.694  0.00  0.00    +0.000 A 
ATOM     14  C   UNL     1       5.417   4.378  19.159  0.00  0.00    +0.000 C 
BRANCH  10  15
ATOM     15  O   UNL     1       6.943   4.663  13.707  0.00  0.00    +0.000 OA
ATOM     16  H   UNL     1       6.847   3.791  13.294  0.00  0.00    +0.000 HD
ENDBRANCH  10  15
ENDBRANCH   3   5
BRANCH   1  21
ATOM     17  C   UNL     1       1.595   9.446  18.931  0.00  0.00    +0.000 A 
ATOM     18  N   UNL     1       0.928  10.060  19.919  0.00  0.00    +0.000 NA
ATOM     19  C   UNL     1       0.709   9.348  21.036  0.00  0.00    +0.000 A 
ATOM     20  C   UNL     1       1.132   8.055  21.190  0.00  0.00    +0.000 A 
ATOM     21  C   UNL     1       1.785   7.509  20.102  0.00  0.00    +0.000 A 
ATOM     22  N   UNL     1       2.039   8.180  18.952  0.00  0.00    +0.000 NA
BRANCH  17  24
ATOM     23  C   UNL     1       2.199  11.563  18.162  0.00  0.00    +0.000 C 
ATOM     24  O   UNL     1       1.818  10.237  17.825  0.00  0.00    +0.000 OA
ENDBRANCH  17  24
ENDBRANCH   1  21
TORSDOF 4
ENDMDL
MODEL 4
REMARK VINA RESULT:      -7.0      5.389      8.515
REMARK  Name = 
REMARK  5 active torsions:
REMARK  status: ('A' for Active; 'I' for Inactive)
REMARK    1  A    between atoms: C_1  and  O_2
REMARK    2  A    between atoms: O_2  and  C_3
REMARK    3  A    between atoms: C_7  and  C_8
REMARK    4  A    between atoms: N_10  and  C_11
REMARK    5  A    between atoms: C_16  and  O_17
REMARK                            x       y       z     vdW  Elec       q    Type
REMARK                         _______ _______ _______ _____ _____    ______ ____
ROOT
ATOM      1  C   UNL     1       1.419   8.838  19.028  0.00  0.00    +0.000 C 
ATOM      2  O   UNL     1       1.095   9.443  18.007  0.00  0.00    +0.000 OA
ATOM      3  N   UNL     1       2.124   7.649  19.015  0.00  0.00    +0.000 N 
ATOM      4  H   UNL     1       2.187   7.151  19.900  0.00  0.00    +0.000 HD
ENDROOT
BRANCH   3   5
ATOM      5  C   UNL     1       2.476   6.984  17.761  0.00  0.00    +0.000 C 
ATOM      6  C   UNL     1       3.979   7.030  17.470  0.00  0.00    +0.000 C 
ATOM      7  C   UNL     1       4.799   6.169  18.428  0.00  0.00    +0.000 C 
ATOM      8  C   UNL     1       4.185   4.827  18.731  0.00  0.00    +0.000 A 
ATOM      9  C   UNL     1       4.963   3.857  19.386  0.00  0.00    +0.000 A 
ATOM     10  C   UNL     1       4.413   2.621  19.711  0.00  0.00    +0.000 A 
ATOM     11  C   UNL     1       3.097   2.325  19.389  0.00  0.00    +0.000 A 
ATOM     12  C   UNL     1       2.315   3.280  18.742  0.00  0.00    +0.000 A 
ATOM     13  C   UNL     1       2.841   4.542  18.426  0.00  0.00    +0.000 A 
ATOM     14  C   UNL     1       1.967   5.535  17.695  0.00  0.00    +0.000 C 
BRANCH  10  15
ATOM     15  O   UNL     1       5.141   1.665  20.357  0.00  0.00    +0.000 OA
ATOM     16  H   UNL     1       5.846   1.359  19.765  0.00  0.00    +0.000 HD
ENDBRANCH  10  15
ENDBRANCH   3   5
BRANCH   1  21
ATOM     17  C   UNL     1       0.201  11.077  21.626  0.00  0.00    +0.000 A 
ATOM     18  N   UNL     1       0.321  10.386  22.769  0.00  0.00    +0.000 NA
ATOM     19  C   UNL     1       0.849   9.155  22.681  0.00  0.00    +0.000 A 
ATOM     20  C   UNL     1       1.256   8.602  21.496  0.00  0.00    +0.000 A 
ATOM     21  C   UNL     1       1.063   9.388  20.375  0.00  0.00    +0.000 A 
ATOM     22  N   UNL     1       0.540  10.638  20.405  0.00  0.00    +0.000 NA
BRANCH  17  24
ATOM     23  C   UNL     1      -1.187  12.450  22.903  0.00  0.00    +0.000 C 
ATOM     24  O   UNL     1      -0.316  12.345  21.785  0.00  0.00    +0.000 OA
ENDBRANCH  17  24
ENDBRANCH   1  21
TORSDOF 4
ENDMDL
MODEL 5
REMARK VINA RESULT:      -6.8      3.328      5.142
REMARK  Name = 
REMARK  5 active torsions:
REMARK  status: ('A' for Active; 'I' for Inactive)
REMARK    1  A    between atoms: C_1  and  O_2
REMARK    2  A    between atoms: O_2  and  C_3
REMARK    3  A    between atoms: C_7  and  C_8
REMARK    4  A    between atoms: N_10  and  C_11
REMARK    5  A    between atoms: C_16  and  O_17
REMARK                            x       y       z     vdW  Elec       q    Type
REMARK                         _______ _______ _______ _____ _____    ______ ____
ROOT
ATOM      1  C   UNL     1       5.452   5.926  16.786  0.00  0.00    +0.000 C 
ATOM      2  O   UNL     1       4.999   6.374  15.734  0.00  0.00    +0.000 OA
ATOM      3  N   UNL     1       4.966   4.787  17.400  0.00  0.00    +0.000 N 
ATOM      4  H   UNL     1       5.296   4.607  18.344  0.00  0.00    +0.000 HD
ENDROOT
BRANCH   3   5
ATOM      5  C   UNL     1       3.813   4.065  16.863  0.00  0.00    +0.000 C 
ATOM      6  C   UNL     1       3.958   2.546  16.986  0.00  0.00    +0.000 C 
ATOM      7  C   UNL     1       3.889   2.055  18.431  0.00  0.00    +0.000 C 
ATOM      8  C   UNL     1       2.826   2.726  19.260  0.00  0.00    +0.000 A 
ATOM      9  C   UNL     1       2.499   2.182  20.514  0.00  0.00    +0.000 A 
ATOM     10  C   UNL     1       1.546   2.800  21.318  0.00  0.00    +0.000 A 
ATOM     11  C   UNL     1       0.902   3.952  20.895  0.00  0.00    +0.000 A 
ATOM     12  C   UNL     1       1.220   4.503  19.655  0.00  0.00    +0.000 A 
ATOM     13  C   UNL     1       2.195   3.911  18.837  0.00  0.00    +0.000 A 
ATOM     14  C   UNL     1       2.485   4.523  17.486  0.00  0.00    +0.000 C 
BRANCH  10  15
ATOM     15  O   UNL     1       1.217   2.301  22.545  0.00  0.00    +0.000 OA
ATOM     16  H   UNL     1       0.515   2.851  22.925  0.00  0.00    +0.000 HD
ENDBRANCH  10  15
ENDBRANCH   3   5
BRANCH   1  21
ATOM     17  C   UNL     1       7.826   8.496  17.794  0.00  0.00    +0.000 A 
ATOM     18  N   UNL     1       8.591   7.917  18.732  0.00  0.00    +0.000 NA
ATOM     19  C   UNL     1       8.334   6.631  19.015  0.00  0.00    +0.000 A 
ATOM     20  C   UNL     1       7.345   5.915  18.396  0.00  0.00    +0.000 A 
ATOM     21  C   UNL     1       6.598   6.613  17.466  0.00  0.00    +0.000 A 
ATOM     22  N   UNL     1       6.815   7.909  17.135  0.00  0.00    +0.000 NA
BRANCH  17  24
ATOM     23  C   UNL     1       9.047  10.359  18.483  0.00  0.00    +0.000 C 
ATOM     24  O   UNL     1       8.159   9.805  17.523  0.00  0.00    +0.000 OA
ENDBRANCH  17  24
ENDBRANCH   1  21
TORSDOF 4
ENDMDL
MODEL 6
REMARK VINA RESULT:      -6.8      4.488      7.904
REMARK  Name = 
REMARK  5 active torsions:
REMARK  status: ('A' for Active; 'I' for Inactive)
REMARK    1  A    between atoms: C_1  and  O_2
REMARK    2  A    between atoms: O_2  and  C_3
REMARK    3  A    between atoms: C_7  and  C_8
REMARK    4  A    between atoms: N_10  and  C_11
REMARK    5  A    between atoms: C_16  and  O_17
REMARK                            x       y       z     vdW  Elec       q    Type
REMARK                         _______ _______ _______ _____ _____    ______ ____
ROOT
ATOM      1  C   UNL     1       1.808   7.237  20.080  0.00  0.00    +0.000 C 
ATOM      2  O   UNL     1       1.409   6.798  21.157  0.00  0.00    +0.000 OA
ATOM      3  N   UNL     1       2.529   6.484  19.171  0.00  0.00    +0.000 N 
ATOM      4  H   UNL     1       2.953   6.992  18.399  0.00  0.00    +0.000 HD
ENDROOT
BRANCH   3   5
ATOM      5  C   UNL     1       2.931   5.110  19.468  0.00  0.00    +0.000 C 
ATOM      6  C   UNL     1       2.456   4.113  18.407  0.00  0.00    +0.000 C 
ATOM      7  C   UNL     1       3.171   4.281  17.069  0.00  0.00    +0.000 C 
ATOM      8  C   UNL     1       4.653   4.525  17.187  0.00  0.00    +0.000 A 
ATOM      9  C   UNL     1       5.449   4.438  16.032  0.00  0.00    +0.000 A 
ATOM     10  C   UNL     1       6.816   4.692  16.104  0.00  0.00    +0.000 A 
ATOM     11  C   UNL     1       7.412   5.027  17.310  0.00  0.00    +0.000 A 
ATOM     12  C   UNL     1       6.631   5.120  18.461  0.00  0.00    +0.000 A 
ATOM     13  C   UNL     1       5.247   4.891  18.409  0.00  0.00    +0.000 A 
ATOM     14  C   UNL     1       4.446   4.970  19.688  0.00  0.00    +0.000 C 
BRANCH  10  15
ATOM     15  O   UNL     1       7.611   4.626  14.998  0.00  0.00    +0.000 OA
ATOM     16  H   UNL     1       7.415   5.387  14.429  0.00  0.00    +0.000 HD
ENDBRANCH  10  15
ENDBRANCH   3   5
BRANCH   1  21
ATOM     17  C   UNL     1       0.771  10.722  20.261  0.00  0.00    +0.000 A 
ATOM     18  N   UNL     1       1.044  11.232  19.051  0.00  0.00    +0.000 NA
ATOM     19  C   UNL     1       1.557  10.391  18.140  0.00  0.00    +0.000 A 
ATOM     20  C   UNL     1       1.802   9.069  18.401  0.00  0.00    +0.000 A 
ATOM     21  C   UNL     1       1.510   8.652  19.686  0.00  0.00    +0.000 A 
ATOM     22  N   UNL     1       0.987   9.454  20.644  0.00  0.00    +0.000 NA
BRANCH  17  24
ATOM     23  C   UNL     1       0.702  12.947  20.957  0.00  0.00    +0.000 C 
ATOM     24  O   UNL     1       0.217  11.625  21.142  0.00  0.00    +0.000 OA
ENDBRANCH  17  24
ENDBRANCH   1  21
TORSDOF 4
ENDMDL
MODEL 7
REMARK VINA RESULT:      -6.8      1.374      1.901
REMARK  Name = 
REMARK  5 active torsions:
REMARK  status: ('A' for Active; 'I' for Inactive)
REMARK    1  A    between atoms: C_1  and  O_2
REMARK    2  A    between atoms: O_2  and  C_3
REMARK    3  A    between atoms: C_7  and  C_8
REMARK    4  A    between atoms: N_10  and  C_11
REMARK    5  A    between atoms: C_16  and  O_17
REMARK                            x       y       z     vdW  Elec       q    Type
REMARK                         _______ _______ _______ _____ _____    ______ ____
ROOT
ATOM      1  C   UNL     1       6.809   4.853  16.556  0.00  0.00    +0.000 C 
ATOM      2  O   UNL     1       7.749   4.517  17.274  0.00  0.00    +0.000 OA
ATOM      3  N   UNL     1       5.632   5.386  17.046  0.00  0.00    +0.000 N 
ATOM      4  H   UNL     1       4.862   5.467  16.386  0.00  0.00    +0.000 HD
ENDROOT
BRANCH   3   5
ATOM      5  C   UNL     1       5.396   5.524  18.483  0.00  0.00    +0.000 C 
ATOM      6  C   UNL     1       4.245   6.481  18.804  0.00  0.00    +0.000 C 
ATOM      7  C   UNL     1       2.880   5.929  18.398  0.00  0.00    +0.000 C 
ATOM      8  C   UNL     1       2.686   4.469  18.712  0.00  0.00    +0.000 A 
ATOM      9  C   UNL     1       1.395   3.921  18.621  0.00  0.00    +0.000 A 
ATOM     10  C   UNL     1       1.190   2.568  18.871  0.00  0.00    +0.000 A 
ATOM     11  C   UNL     1       2.249   1.743  19.218  0.00  0.00    +0.000 A 
ATOM     12  C   UNL     1       3.534   2.275  19.309  0.00  0.00    +0.000 A 
ATOM     13  C   UNL     1       3.769   3.632  19.037  0.00  0.00    +0.000 A 
ATOM     14  C   UNL     1       5.173   4.172  19.180  0.00  0.00    +0.000 C 
BRANCH  10  15
ATOM     15  O   UNL     1      -0.050   2.006  18.779  0.00  0.00    +0.000 OA
ATOM     16  H   UNL     1      -0.418   2.209  17.904  0.00  0.00    +0.000 HD
ENDBRANCH  10  15
ENDBRANCH   3   5
BRANCH   1  21
ATOM     17  C   UNL     1       7.868   5.324  13.106  0.00  0.00    +0.000 A 
ATOM     18  N   UNL     1       7.183   4.412  12.401  0.00  0.00    +0.000 NA
ATOM     19  C   UNL     1       6.322   3.641  13.083  0.00  0.00    +0.000 A 
ATOM     20  C   UNL     1       6.130   3.753  14.434  0.00  0.00    +0.000 A 
ATOM     21  C   UNL     1       6.905   4.705  15.068  0.00  0.00    +0.000 A 
ATOM     22  N   UNL     1       7.786   5.515  14.431  0.00  0.00    +0.000 NA
BRANCH  17  24
ATOM     23  C   UNL     1       8.073   6.655  11.201  0.00  0.00    +0.000 C 
ATOM     24  O   UNL     1       8.710   6.107  12.346  0.00  0.00    +0.000 OA
ENDBRANCH  17  24
ENDBRANCH   1  21
TORSDOF 4
ENDMDL
MODEL 8
REMARK VINA RESULT:      -6.8      1.399      1.605
REMARK  Name = 
REMARK  5 active torsions:
REMARK  status: ('A' for Active; 'I' for Inactive)
REMARK    1  A    between atoms: C_1  and  O_2
REMARK    2  A    between atoms: O_2  and  C_3
REMARK    3  A    between atoms: C_7  and  C_8
REMARK    4  A    between atoms: N_10  and  C_11
REMARK    5  A    between atoms: C_16  and  O_17
REMARK                            x       y       z     vdW  Elec       q    Type
REMARK                         _______ _______ _______ _____ _____    ______ ____
ROOT
ATOM      1  C   UNL     1       6.531   4.690  14.621  0.00  0.00    +0.000 C 
ATOM      2  O   UNL     1       7.564   5.356  14.671  0.00  0.00    +0.000 OA
ATOM      3  N   UNL     1       5.622   4.617  15.659  0.00  0.00    +0.000 N 
ATOM      4  H   UNL     1       4.898   3.908  15.577  0.00  0.00    +0.000 HD
ENDROOT
BRANCH   3   5
ATOM      5  C   UNL     1       5.867   5.286  16.937  0.00  0.00    +0.000 C 
ATOM      6  C   UNL     1       4.951   6.492  17.157  0.00  0.00    +0.000 C 
ATOM      7  C   UNL     1       3.491   6.101  17.377  0.00  0.00    +0.000 C 
ATOM      8  C   UNL     1       3.301   4.904  18.271  0.00  0.00    +0.000 A 
ATOM      9  C   UNL     1       2.011   4.612  18.748  0.00  0.00    +0.000 A 
ATOM     10  C   UNL     1       1.798   3.493  19.548  0.00  0.00    +0.000 A 
ATOM     11  C   UNL     1       2.849   2.657  19.891  0.00  0.00    +0.000 A 
ATOM     12  C   UNL     1       4.132   2.935  19.421  0.00  0.00    +0.000 A 
ATOM     13  C   UNL     1       4.367   4.044  18.593  0.00  0.00    +0.000 A 
ATOM     14  C   UNL     1       5.779   4.326  18.134  0.00  0.00    +0.000 C 
BRANCH  10  15
ATOM     15  O   UNL     1       0.556   3.178  20.015  0.00  0.00    +0.000 OA
ATOM     16  H   UNL     1       0.044   3.997  20.111  0.00  0.00    +0.000 HD
ENDBRANCH  10  15
ENDBRANCH   3   5
BRANCH   1  21
ATOM     17  C   UNL     1       4.646   3.226  11.872  0.00  0.00    +0.000 A 
ATOM     18  N   UNL     1       5.559   2.600  11.115  0.00  0.00    +0.000 NA
ATOM     19  C   UNL     1       6.831   2.637  11.544  0.00  0.00    +0.000 A 
ATOM     20  C   UNL     1       7.211   3.275  12.694  0.00  0.00    +0.000 A 
ATOM     21  C   UNL     1       6.196   3.911  13.385  0.00  0.00    +0.000 A 
ATOM     22  N   UNL     1       4.896   3.903  13.004  0.00  0.00    +0.000 NA
BRANCH  17  24
ATOM     23  C   UNL     1       3.190   3.715  10.118  0.00  0.00    +0.000 C 
ATOM     24  O   UNL     1       3.356   3.125  11.399  0.00  0.00    +0.000 OA
ENDBRANCH  17  24
ENDBRANCH   1  21
TORSDOF 4
ENDMDL
MODEL 9
REMARK VINA RESULT:      -6.8      1.890      2.502
REMARK  Name = 
REMARK  5 active torsions:
REMARK  status: ('A' for Active; 'I' for Inactive)
REMARK    1  A    between atoms: C_1  and  O_2
REMARK    2  A    between atoms: O_2  and  C_3
REMARK    3  A    between atoms: C_7  and  C_8
REMARK    4  A    between atoms: N_10  and  C_11
REMARK    5  A    between atoms: C_16  and  O_17
REMARK                            x       y       z     vdW  Elec       q    Type
REMARK                         _______ _______ _______ _____ _____    ______ ____
ROOT
ATOM      1  C   UNL     1       6.535   4.555  13.946  0.00  0.00    +0.000 C 
ATOM      2  O   UNL     1       7.526   5.244  13.710  0.00  0.00    +0.000 OA
ATOM      3  N   UNL     1       5.920   4.504  15.182  0.00  0.00    +0.000 N 
ATOM      4  H   UNL     1       5.220   3.777  15.310  0.00  0.00    +0.000 HD
ENDROOT
BRANCH   3   5
ATOM      5  C   UNL     1       6.460   5.227  16.333  0.00  0.00    +0.000 C 
ATOM      6  C   UNL     1       5.836   6.614  16.505  0.00  0.00    +0.000 C 
ATOM      7  C   UNL     1       4.371   6.561  16.932  0.00  0.00    +0.000 C 
ATOM      8  C   UNL     1       4.071   5.523  17.981  0.00  0.00    +0.000 A 
ATOM      9  C   UNL     1       2.824   5.555  18.630  0.00  0.00    +0.000 A 
ATOM     10  C   UNL     1       2.505   4.589  19.579  0.00  0.00    +0.000 A 
ATOM     11  C   UNL     1       3.408   3.588  19.903  0.00  0.00    +0.000 A 
ATOM     12  C   UNL     1       4.646   3.544  19.263  0.00  0.00    +0.000 A 
ATOM     13  C   UNL     1       4.981   4.494  18.285  0.00  0.00    +0.000 A 
ATOM     14  C   UNL     1       6.346   4.428  17.642  0.00  0.00    +0.000 C 
BRANCH  10  15
ATOM     15  O   UNL     1       1.299   4.588  20.217  0.00  0.00    +0.000 OA
ATOM     16  H   UNL     1       1.229   5.396  20.750  0.00  0.00    +0.000 HD
ENDBRANCH  10  15
ENDBRANCH   3   5
BRANCH   1  21
ATOM     17  C   UNL     1       6.045   1.924  11.477  0.00  0.00    +0.000 A 
ATOM     18  N   UNL     1       4.820   2.138  10.976  0.00  0.00    +0.000 NA
ATOM     19  C   UNL     1       4.149   3.202  11.445  0.00  0.00    +0.000 A 
ATOM     20  C   UNL     1       4.663   4.048  12.392  0.00  0.00    +0.000 A 
ATOM     21  C   UNL     1       5.922   3.722  12.861  0.00  0.00    +0.000 A 
ATOM     22  N   UNL     1       6.647   2.665  12.421  0.00  0.00    +0.000 NA
BRANCH  17  24
ATOM     23  C   UNL     1       6.104  -0.400  11.297  0.00  0.00    +0.000 C 
ATOM     24  O   UNL     1       6.696   0.839  10.933  0.00  0.00    +0.000 OA
ENDBRANCH  17  24
ENDBRANCH   1  21
TORSDOF 4
ENDMDL
