MODEL 1
REMARK VINA RESULT:      -6.3      0.000      0.000
REMARK  Name = 
REMARK  9 active torsions:
REMARK  status: ('A' for Active; 'I' for Inactive)
REMARK    1  A    between atoms: C_1  and  O_2
REMARK    2  A    between atoms: O_2  and  C_3
REMARK    3  A    between atoms: N_8  and  C_9
REMARK    4  A    between atoms: N_16  and  C_17
REMARK    5  A    between atoms: N_20  and  C_21
REMARK    6  A    between atoms: C_21  and  C_22
REMARK    7  A    between atoms: C_21  and  C_23
REMARK    8  A    between atoms: C_28  and  O_29
REMARK    9  A    between atoms: O_29  and  C_30
REMARK                            x       y       z     vdW  Elec       q    Type
REMARK                         _______ _______ _______ _____ _____    ______ ____
ROOT
ATOM      1  C   UNL     1       1.199  15.828  19.237  0.00  0.00    +0.000 A 
ATOM      2  C   UNL     1       1.786  14.557  19.360  0.00  0.00    +0.000 A 
ATOM      3  C   UNL     1       1.103  13.366  19.128  0.00  0.00    +0.000 A 
ATOM      4  N   UNL     1       1.723  12.222  19.449  0.00  0.00    +0.000 NA
ATOM      5  C   UNL     1       1.057  11.075  19.290  0.00  0.00    +0.000 A 
ATOM      6  N   UNL     1       1.673   9.986  19.896  0.00  0.00    +0.000 N 
ATOM      7  N   UNL     1      -0.127  10.977  18.678  0.00  0.00    +0.000 NA
ATOM      8  C   UNL     1      -0.753  12.138  18.348  0.00  0.00    +0.000 A 
ATOM      9  N   UNL     1      -2.003  12.087  17.718  0.00  0.00    +0.000 N 
ATOM     10  C   UNL     1      -0.197  13.424  18.645  0.00  0.00    +0.000 A 
ATOM     11  C   UNL     1      -0.820  14.710  18.528  0.00  0.00    +0.000 A 
ATOM     12  C   UNL     1      -0.141  15.903  18.861  0.00  0.00    +0.000 A 
ATOM     13  H   UNL     1       2.630  10.259  20.087  0.00  0.00    +0.000 HD
ATOM     14  H   UNL     1      -2.751  12.348  18.360  0.00  0.00    +0.000 HD
ENDROOT
BRANCH   9  15
ATOM     15  C   UNL     1      -2.345  10.952  16.857  0.00  0.00    +0.000 C 
ATOM     16  C   UNL     1      -3.450  11.389  15.898  0.00  0.00    +0.000 C 
ATOM     17  C   UNL     1      -4.741  11.744  16.638  0.00  0.00    +0.000 C 
ATOM     18  N   UNL     1      -4.992  11.013  17.894  0.00  0.00    +0.000 NA
ATOM     19  C   UNL     1      -4.342   9.710  17.973  0.00  0.00    +0.000 C 
ATOM     20  C   UNL     1      -2.841   9.708  17.600  0.00  0.00    +0.000 C 
BRANCH  18  21
ATOM     21  C   UNL     1      -6.420  11.107  18.285  0.00  0.00    +0.000 C 
ATOM     22  C   UNL     1      -6.770  11.080  19.783  0.00  0.00    +0.000 C 
ATOM     23  C   UNL     1      -7.006  12.393  17.678  0.00  0.00    +0.000 C 
ENDBRANCH  18  21
ENDBRANCH   9  15
BRANCH   6  24
ATOM     24  C   UNL     1       1.469   8.652  19.382  0.00  0.00    +0.000 C 
ATOM     25  C   UNL     1       2.376   8.393  18.180  0.00  0.00    +0.000 C 
ATOM     26  C   UNL     1       2.443   6.876  18.076  0.00  0.00    +0.000 C 
ATOM     27  C   UNL     1       2.278   6.362  19.504  0.00  0.00    +0.000 C 
ATOM     28  C   UNL     1       1.929   7.576  20.366  0.00  0.00    +0.000 C 
ENDBRANCH   6  24
BRANCH   1  30
ATOM     29  C   UNL     1       3.350  16.823  19.597  0.00  0.00    +0.000 C 
ATOM     30  O   UNL     1       1.943  16.832  19.794  0.00  0.00    +0.000 OA
ENDBRANCH   1  30
BRANCH  12  31
ATOM     31  O   UNL     1      -0.915  16.990  19.189  0.00  0.00    +0.000 OA
ATOM     32  C   UNL     1      -1.173  17.920  18.148  0.00  0.00    +0.000 C 
ENDBRANCH  12  31
TORSDOF 5
ENDMDL
MODEL 2
REMARK VINA RESULT:      -6.3      8.914     10.830
REMARK  Name = 
REMARK  9 active torsions:
REMARK  status: ('A' for Active; 'I' for Inactive)
REMARK    1  A    between atoms: C_1  and  O_2
REMARK    2  A    between atoms: O_2  and  C_3
REMARK    3  A    between atoms: N_8  and  C_9
REMARK    4  A    between atoms: N_16  and  C_17
REMARK    5  A    between atoms: N_20  and  C_21
REMARK    6  A    between atoms: C_21  and  C_22
REMARK    7  A    between atoms: C_21  and  C_23
REMARK    8  A    between atoms: C_28  and  O_29
REMARK    9  A    between atoms: O_29  and  C_30
REMARK                            x       y       z     vdW  Elec       q    Type
REMARK                         _______ _______ _______ _____ _____    ______ ____
ROOT
ATOM      1  C   UNL     1       7.718   7.081  18.233  0.00  0.00    +0.000 A 
ATOM      2  C   UNL     1       7.443   6.785  16.887  0.00  0.00    +0.000 A 
ATOM      3  C   UNL     1       6.746   5.653  16.474  0.00  0.00    +0.000 A 
ATOM      4  N   UNL     1       6.703   5.396  15.159  0.00  0.00    +0.000 NA
ATOM      5  C   UNL     1       6.091   4.280  14.751  0.00  0.00    +0.000 A 
ATOM      6  N   UNL     1       6.333   3.969  13.418  0.00  0.00    +0.000 N 
ATOM      7  N   UNL     1       5.376   3.485  15.553  0.00  0.00    +0.000 NA
ATOM      8  C   UNL     1       5.416   3.749  16.886  0.00  0.00    +0.000 A 
ATOM      9  N   UNL     1       4.694   2.934  17.767  0.00  0.00    +0.000 N 
ATOM     10  C   UNL     1       6.195   4.818  17.436  0.00  0.00    +0.000 A 
ATOM     11  C   UNL     1       6.477   5.093  18.814  0.00  0.00    +0.000 A 
ATOM     12  C   UNL     1       7.269   6.194  19.210  0.00  0.00    +0.000 A 
ATOM     13  H   UNL     1       6.695   4.809  12.982  0.00  0.00    +0.000 HD
ATOM     14  H   UNL     1       5.314   2.316  18.291  0.00  0.00    +0.000 HD
ENDROOT
BRANCH   9  15
ATOM     15  C   UNL     1       3.462   2.280  17.319  0.00  0.00    +0.000 C 
ATOM     16  C   UNL     1       2.384   3.347  17.147  0.00  0.00    +0.000 C 
ATOM     17  C   UNL     1       2.029   4.020  18.474  0.00  0.00    +0.000 C 
ATOM     18  N   UNL     1       2.168   3.186  19.683  0.00  0.00    +0.000 NA
ATOM     19  C   UNL     1       2.052   1.753  19.443  0.00  0.00    +0.000 C 
ATOM     20  C   UNL     1       2.914   1.217  18.277  0.00  0.00    +0.000 C 
BRANCH  18  21
ATOM     21  C   UNL     1       1.409   3.769  20.817  0.00  0.00    +0.000 C 
ATOM     22  C   UNL     1       1.454   3.045  22.174  0.00  0.00    +0.000 C 
ATOM     23  C   UNL     1       1.887   5.216  21.029  0.00  0.00    +0.000 C 
ENDBRANCH  18  21
ENDBRANCH   9  15
BRANCH   6  24
ATOM     24  C   UNL     1       5.367   3.209  12.659  0.00  0.00    +0.000 C 
ATOM     25  C   UNL     1       4.533   4.130  11.771  0.00  0.00    +0.000 C 
ATOM     26  C   UNL     1       3.960   3.210  10.702  0.00  0.00    +0.000 C 
ATOM     27  C   UNL     1       4.989   2.095  10.530  0.00  0.00    +0.000 C 
ATOM     28  C   UNL     1       6.032   2.291  11.632  0.00  0.00    +0.000 C 
ENDBRANCH   6  24
BRANCH   1  30
ATOM     29  C   UNL     1       8.309   9.398  18.065  0.00  0.00    +0.000 C 
ATOM     30  O   UNL     1       8.659   8.061  18.397  0.00  0.00    +0.000 OA
ENDBRANCH   1  30
BRANCH  12  31
ATOM     31  O   UNL     1       7.882   6.112  20.437  0.00  0.00    +0.000 OA
ATOM     32  C   UNL     1       8.739   4.998  20.643  0.00  0.00    +0.000 C 
ENDBRANCH  12  31
TORSDOF 5
ENDMDL
MODEL 3
REMARK VINA RESULT:      -6.3      3.897      6.585
REMARK  Name = 
REMARK  9 active torsions:
REMARK  status: ('A' for Active; 'I' for Inactive)
REMARK    1  A    between atoms: C_1  and  O_2
REMARK    2  A    between atoms: O_2  and  C_3
REMARK    3  A    between atoms: N_8  and  C_9
REMARK    4  A    between atoms: N_16  and  C_17
REMARK    5  A    between atoms: N_20  and  C_21
REMARK    6  A    between atoms: C_21  and  C_22
REMARK    7  A    between atoms: C_21  and  C_23
REMARK    8  A    between atoms: C_28  and  O_29
REMARK    9  A    between atoms: O_29  and  C_30
REMARK                            x       y       z     vdW  Elec       q    Type
REMARK                         _______ _______ _______ _____ _____    ______ ____
ROOT
ATOM      1  C   UNL     1      -3.103  10.343  17.219  0.00  0.00    +0.000 A 
ATOM      2  C   UNL     1      -1.829  10.869  17.494  0.00  0.00    +0.000 A 
ATOM      3  C   UNL     1      -1.589  11.847  18.455  0.00  0.00    +0.000 A 
ATOM      4  N   UNL     1      -0.363  12.388  18.498  0.00  0.00    +0.000 NA
ATOM      5  C   UNL     1      -0.135  13.370  19.374  0.00  0.00    +0.000 A 
ATOM      6  N   UNL     1       1.063  14.040  19.157  0.00  0.00    +0.000 N 
ATOM      7  N   UNL     1      -0.999  13.739  20.324  0.00  0.00    +0.000 NA
ATOM      8  C   UNL     1      -2.241  13.187  20.283  0.00  0.00    +0.000 A 
ATOM      9  N   UNL     1      -3.186  13.554  21.249  0.00  0.00    +0.000 N 
ATOM     10  C   UNL     1      -2.636  12.257  19.268  0.00  0.00    +0.000 A 
ATOM     11  C   UNL     1      -3.948  11.746  18.994  0.00  0.00    +0.000 A 
ATOM     12  C   UNL     1      -4.188  10.826  17.949  0.00  0.00    +0.000 A 
ATOM     13  H   UNL     1       1.624  13.451  18.552  0.00  0.00    +0.000 HD
ATOM     14  H   UNL     1      -3.897  14.169  20.856  0.00  0.00    +0.000 HD
ENDROOT
BRANCH   9  15
ATOM     15  C   UNL     1      -2.748  13.954  22.589  0.00  0.00    +0.000 C 
ATOM     16  C   UNL     1      -3.260  12.923  23.592  0.00  0.00    +0.000 C 
ATOM     17  C   UNL     1      -4.789  12.896  23.654  0.00  0.00    +0.000 C 
ATOM     18  N   UNL     1      -5.473  14.172  23.372  0.00  0.00    +0.000 NA
ATOM     19  C   UNL     1      -4.670  15.359  23.642  0.00  0.00    +0.000 C 
ATOM     20  C   UNL     1      -3.245  15.330  23.043  0.00  0.00    +0.000 C 
BRANCH  18  21
ATOM     21  C   UNL     1      -6.870  14.144  23.870  0.00  0.00    +0.000 C 
ATOM     22  C   UNL     1      -7.911  15.038  23.172  0.00  0.00    +0.000 C 
ATOM     23  C   UNL     1      -7.374  12.692  23.823  0.00  0.00    +0.000 C 
ENDBRANCH  18  21
ENDBRANCH   9  15
BRANCH   6  24
ATOM     24  C   UNL     1       1.749  14.682  20.254  0.00  0.00    +0.000 C 
ATOM     25  C   UNL     1       2.812  13.756  20.842  0.00  0.00    +0.000 C 
ATOM     26  C   UNL     1       3.758  14.688  21.586  0.00  0.00    +0.000 C 
ATOM     27  C   UNL     1       3.701  16.013  20.832  0.00  0.00    +0.000 C 
ATOM     28  C   UNL     1       2.587  15.876  19.793  0.00  0.00    +0.000 C 
ENDBRANCH   6  24
BRANCH   1  30
ATOM     29  C   UNL     1      -3.050  10.333  14.823  0.00  0.00    +0.000 C 
ATOM     30  O   UNL     1      -3.163   9.630  16.053  0.00  0.00    +0.000 OA
ENDBRANCH   1  30
BRANCH  12  31
ATOM     31  O   UNL     1      -5.467  10.771  17.450  0.00  0.00    +0.000 OA
ATOM     32  C   UNL     1      -6.500  11.250  18.299  0.00  0.00    +0.000 C 
ENDBRANCH  12  31
TORSDOF 5
ENDMDL
MODEL 4
REMARK VINA RESULT:      -6.2      7.121      9.847
REMARK  Name = 
REMARK  9 active torsions:
REMARK  status: ('A' for Active; 'I' for Inactive)
REMARK    1  A    between atoms: C_1  and  O_2
REMARK    2  A    between atoms: O_2  and  C_3
REMARK    3  A    between atoms: N_8  and  C_9
REMARK    4  A    between atoms: N_16  and  C_17
REMARK    5  A    between atoms: N_20  and  C_21
REMARK    6  A    between atoms: C_21  and  C_22
REMARK    7  A    between atoms: C_21  and  C_23
REMARK    8  A    between atoms: C_28  and  O_29
REMARK    9  A    between atoms: O_29  and  C_30
REMARK                            x       y       z     vdW  Elec       q    Type
REMARK                         _______ _______ _______ _____ _____    ______ ____
ROOT
ATOM      1  C   UNL     1       3.107  15.638  18.986  0.00  0.00    +0.000 A 
ATOM      2  C   UNL     1       4.262  15.274  18.274  0.00  0.00    +0.000 A 
ATOM      3  C   UNL     1       5.498  15.045  18.875  0.00  0.00    +0.000 A 
ATOM      4  N   UNL     1       6.557  14.877  18.071  0.00  0.00    +0.000 NA
ATOM      5  C   UNL     1       7.759  14.718  18.633  0.00  0.00    +0.000 A 
ATOM      6  N   UNL     1       8.812  14.824  17.731  0.00  0.00    +0.000 N 
ATOM      7  N   UNL     1       7.954  14.551  19.944  0.00  0.00    +0.000 NA
ATOM      8  C   UNL     1       6.879  14.717  20.758  0.00  0.00    +0.000 A 
ATOM      9  N   UNL     1       7.037  14.566  22.142  0.00  0.00    +0.000 N 
ATOM     10  C   UNL     1       5.583  15.069  20.260  0.00  0.00    +0.000 A 
ATOM     11  C   UNL     1       4.419  15.455  21.004  0.00  0.00    +0.000 A 
ATOM     12  C   UNL     1       3.199  15.778  20.370  0.00  0.00    +0.000 A 
ATOM     13  H   UNL     1       8.415  14.723  16.804  0.00  0.00    +0.000 HD
ATOM     14  H   UNL     1       7.015  15.468  22.617  0.00  0.00    +0.000 HD
ENDROOT
BRANCH   9  15
ATOM     15  C   UNL     1       8.057  13.656  22.668  0.00  0.00    +0.000 C 
ATOM     16  C   UNL     1       7.456  12.255  22.754  0.00  0.00    +0.000 C 
ATOM     17  C   UNL     1       6.298  12.190  23.751  0.00  0.00    +0.000 C 
ATOM     18  N   UNL     1       6.372  13.119  24.895  0.00  0.00    +0.000 NA
ATOM     19  C   UNL     1       7.724  13.533  25.247  0.00  0.00    +0.000 C 
ATOM     20  C   UNL     1       8.586  14.019  24.059  0.00  0.00    +0.000 C 
BRANCH  18  21
ATOM     21  C   UNL     1       5.466  12.686  25.987  0.00  0.00    +0.000 C 
ATOM     22  C   UNL     1       5.472  11.202  26.396  0.00  0.00    +0.000 C 
ATOM     23  C   UNL     1       5.772  13.530  27.236  0.00  0.00    +0.000 C 
ENDBRANCH  18  21
ENDBRANCH   9  15
BRANCH   6  24
ATOM     24  C   UNL     1      10.059  14.140  17.982  0.00  0.00    +0.000 C 
ATOM     25  C   UNL     1       9.917  12.643  17.712  0.00  0.00    +0.000 C 
ATOM     26  C   UNL     1      11.345  12.156  17.511  0.00  0.00    +0.000 C 
ATOM     27  C   UNL     1      12.102  13.347  16.928  0.00  0.00    +0.000 C 
ATOM     28  C   UNL     1      11.149  14.541  16.987  0.00  0.00    +0.000 C 
ENDBRANCH   6  24
BRANCH   1  30
ATOM     29  C   UNL     1       2.370  17.184  17.309  0.00  0.00    +0.000 C 
ATOM     30  O   UNL     1       2.096  16.103  18.189  0.00  0.00    +0.000 OA
ENDBRANCH   1  30
BRANCH  12  31
ATOM     31  O   UNL     1       2.328  16.580  21.067  0.00  0.00    +0.000 OA
ATOM     32  C   UNL     1       2.679  17.951  21.178  0.00  0.00    +0.000 C 
ENDBRANCH  12  31
TORSDOF 5
ENDMDL
MODEL 5
REMARK VINA RESULT:      -6.2      4.257      6.665
REMARK  Name = 
REMARK  9 active torsions:
REMARK  status: ('A' for Active; 'I' for Inactive)
REMARK    1  A    between atoms: C_1  and  O_2
REMARK    2  A    between atoms: O_2  and  C_3
REMARK    3  A    between atoms: N_8  and  C_9
REMARK    4  A    between atoms: N_16  and  C_17
REMARK    5  A    between atoms: N_20  and  C_21
REMARK    6  A    between atoms: C_21  and  C_22
REMARK    7  A    between atoms: C_21  and  C_23
REMARK    8  A    between atoms: C_28  and  O_29
REMARK    9  A    between atoms: O_29  and  C_30
REMARK                            x       y       z     vdW  Elec       q    Type
REMARK                         _______ _______ _______ _____ _____    ______ ____
ROOT
ATOM      1  C   UNL     1      -3.819  11.049  16.798  0.00  0.00    +0.000 A 
ATOM      2  C   UNL     1      -2.477  11.326  17.110  0.00  0.00    +0.000 A 
ATOM      3  C   UNL     1      -2.069  11.924  18.300  0.00  0.00    +0.000 A 
ATOM      4  N   UNL     1      -0.785  12.293  18.401  0.00  0.00    +0.000 NA
ATOM      5  C   UNL     1      -0.393  12.923  19.512  0.00  0.00    +0.000 A 
ATOM      6  N   UNL     1       0.869  13.497  19.408  0.00  0.00    +0.000 N 
ATOM      7  N   UNL     1      -1.156  13.064  20.599  0.00  0.00    +0.000 NA
ATOM      8  C   UNL     1      -2.458  12.686  20.498  0.00  0.00    +0.000 A 
ATOM      9  N   UNL     1      -3.301  12.829  21.607  0.00  0.00    +0.000 N 
ATOM     10  C   UNL     1      -3.016  12.166  19.285  0.00  0.00    +0.000 A 
ATOM     11  C   UNL     1      -4.393  11.907  18.981  0.00  0.00    +0.000 A 
ATOM     12  C   UNL     1      -4.798  11.390  17.730  0.00  0.00    +0.000 A 
ATOM     13  H   UNL     1       1.321  13.072  18.608  0.00  0.00    +0.000 HD
ATOM     14  H   UNL     1      -3.948  13.607  21.481  0.00  0.00    +0.000 HD
ENDROOT
BRANCH   9  15
ATOM     15  C   UNL     1      -2.752  12.742  22.962  0.00  0.00    +0.000 C 
ATOM     16  C   UNL     1      -3.894  12.428  23.926  0.00  0.00    +0.000 C 
ATOM     17  C   UNL     1      -4.927  13.555  23.976  0.00  0.00    +0.000 C 
ATOM     18  N   UNL     1      -4.415  14.916  23.732  0.00  0.00    +0.000 NA
ATOM     19  C   UNL     1      -3.003  15.094  24.048  0.00  0.00    +0.000 C 
ATOM     20  C   UNL     1      -2.064  14.016  23.459  0.00  0.00    +0.000 C 
BRANCH  18  21
ATOM     21  C   UNL     1      -5.375  15.937  24.219  0.00  0.00    +0.000 C 
ATOM     22  C   UNL     1      -4.821  17.160  24.972  0.00  0.00    +0.000 C 
ATOM     23  C   UNL     1      -6.197  16.443  23.021  0.00  0.00    +0.000 C 
ENDBRANCH  18  21
ENDBRANCH   9  15
BRANCH   6  24
ATOM     24  C   UNL     1       1.683  13.689  20.587  0.00  0.00    +0.000 C 
ATOM     25  C   UNL     1       3.152  13.862  20.206  0.00  0.00    +0.000 C 
ATOM     26  C   UNL     1       3.779  14.544  21.413  0.00  0.00    +0.000 C 
ATOM     27  C   UNL     1       2.663  15.379  22.035  0.00  0.00    +0.000 C 
ATOM     28  C   UNL     1       1.378  15.011  21.292  0.00  0.00    +0.000 C 
ENDBRANCH   6  24
BRANCH   1  30
ATOM     29  C   UNL     1      -2.995  10.069  14.772  0.00  0.00    +0.000 C 
ATOM     30  O   UNL     1      -4.024  10.747  15.480  0.00  0.00    +0.000 OA
ENDBRANCH   1  30
BRANCH  12  31
ATOM     31  O   UNL     1      -6.096  11.628  17.348  0.00  0.00    +0.000 OA
ATOM     32  C   UNL     1      -6.465  12.988  17.171  0.00  0.00    +0.000 C 
ENDBRANCH  12  31
TORSDOF 5
ENDMDL
MODEL 6
REMARK VINA RESULT:      -6.1      3.742      6.674
REMARK  Name = 
REMARK  9 active torsions:
REMARK  status: ('A' for Active; 'I' for Inactive)
REMARK    1  A    between atoms: C_1  and  O_2
REMARK    2  A    between atoms: O_2  and  C_3
REMARK    3  A    between atoms: N_8  and  C_9
REMARK    4  A    between atoms: N_16  and  C_17
REMARK    5  A    between atoms: N_20  and  C_21
REMARK    6  A    between atoms: C_21  and  C_22
REMARK    7  A    between atoms: C_21  and  C_23
REMARK    8  A    between atoms: C_28  and  O_29
REMARK    9  A    between atoms: O_29  and  C_30
REMARK                            x       y       z     vdW  Elec       q    Type
REMARK                         _______ _______ _______ _____ _____    ______ ____
ROOT
ATOM      1  C   UNL     1      -3.304  13.006  24.134  0.00  0.00    +0.000 A 
ATOM      2  C   UNL     1      -2.704  11.891  23.525  0.00  0.00    +0.000 A 
ATOM      3  C   UNL     1      -1.623  11.978  22.651  0.00  0.00    +0.000 A 
ATOM      4  N   UNL     1      -1.257  10.862  22.004  0.00  0.00    +0.000 NA
ATOM      5  C   UNL     1      -0.262  10.944  21.116  0.00  0.00    +0.000 A 
ATOM      6  N   UNL     1      -0.141   9.815  20.313  0.00  0.00    +0.000 N 
ATOM      7  N   UNL     1       0.503  12.027  20.948  0.00  0.00    +0.000 NA
ATOM      8  C   UNL     1       0.133  13.156  21.608  0.00  0.00    +0.000 A 
ATOM      9  N   UNL     1       0.895  14.321  21.452  0.00  0.00    +0.000 N 
ATOM     10  C   UNL     1      -1.029  13.214  22.443  0.00  0.00    +0.000 A 
ATOM     11  C   UNL     1      -1.636  14.368  23.041  0.00  0.00    +0.000 A 
ATOM     12  C   UNL     1      -2.791  14.271  23.848  0.00  0.00    +0.000 A 
ATOM     13  H   UNL     1      -0.659   9.073  20.769  0.00  0.00    +0.000 HD
ATOM     14  H   UNL     1       0.414  15.002  20.865  0.00  0.00    +0.000 HD
ENDROOT
BRANCH   9  15
ATOM     15  C   UNL     1       2.331  14.226  21.175  0.00  0.00    +0.000 C 
ATOM     16  C   UNL     1       2.964  15.590  21.441  0.00  0.00    +0.000 C 
ATOM     17  C   UNL     1       2.434  16.662  20.487  0.00  0.00    +0.000 C 
ATOM     18  N   UNL     1       2.029  16.198  19.148  0.00  0.00    +0.000 NA
ATOM     19  C   UNL     1       2.692  14.976  18.708  0.00  0.00    +0.000 C 
ATOM     20  C   UNL     1       2.683  13.824  19.739  0.00  0.00    +0.000 C 
BRANCH  18  21
ATOM     21  C   UNL     1       1.950  17.333  18.195  0.00  0.00    +0.000 C 
ATOM     22  C   UNL     1       2.704  17.217  16.858  0.00  0.00    +0.000 C 
ATOM     23  C   UNL     1       0.468  17.609  17.889  0.00  0.00    +0.000 C 
ENDBRANCH  18  21
ENDBRANCH   9  15
BRANCH   6  24
ATOM     24  C   UNL     1       1.138   9.458  19.745  0.00  0.00    +0.000 C 
ATOM     25  C   UNL     1       1.457   7.988  20.013  0.00  0.00    +0.000 C 
ATOM     26  C   UNL     1       2.507   7.631  18.972  0.00  0.00    +0.000 C 
ATOM     27  C   UNL     1       2.211   8.526  17.771  0.00  0.00    +0.000 C 
ATOM     28  C   UNL     1       1.125   9.507  18.216  0.00  0.00    +0.000 C 
ENDBRANCH   6  24
BRANCH   1  30
ATOM     29  C   UNL     1      -5.681  12.817  23.894  0.00  0.00    +0.000 C 
ATOM     30  O   UNL     1      -4.517  12.733  24.704  0.00  0.00    +0.000 OA
ENDBRANCH   1  30
BRANCH  12  31
ATOM     31  O   UNL     1      -3.566  15.399  23.965  0.00  0.00    +0.000 OA
ATOM     32  C   UNL     1      -3.191  16.322  24.977  0.00  0.00    +0.000 C 
ENDBRANCH  12  31
TORSDOF 5
ENDMDL
MODEL 7
REMARK VINA RESULT:      -6.0      7.063      9.926
REMARK  Name = 
REMARK  9 active torsions:
REMARK  status: ('A' for Active; 'I' for Inactive)
REMARK    1  A    between atoms: C_1  and  O_2
REMARK    2  A    between atoms: O_2  and  C_3
REMARK    3  A    between atoms: N_8  and  C_9
REMARK    4  A    between atoms: N_16  and  C_17
REMARK    5  A    between atoms: N_20  and  C_21
REMARK    6  A    between atoms: C_21  and  C_22
REMARK    7  A    between atoms: C_21  and  C_23
REMARK    8  A    between atoms: C_28  and  O_29
REMARK    9  A    between atoms: O_29  and  C_30
REMARK                            x       y       z     vdW  Elec       q    Type
REMARK                         _______ _______ _______ _____ _____    ______ ____
ROOT
ATOM      1  C   UNL     1       6.859  12.353  26.358  0.00  0.00    +0.000 A 
ATOM      2  C   UNL     1       7.872  12.035  25.438  0.00  0.00    +0.000 A 
ATOM      3  C   UNL     1       7.877  12.471  24.116  0.00  0.00    +0.000 A 
ATOM      4  N   UNL     1       8.804  11.957  23.295  0.00  0.00    +0.000 NA
ATOM      5  C   UNL     1       8.783  12.319  22.010  0.00  0.00    +0.000 A 
ATOM      6  N   UNL     1       9.597  11.536  21.199  0.00  0.00    +0.000 N 
ATOM      7  N   UNL     1       8.003  13.286  21.519  0.00  0.00    +0.000 NA
ATOM      8  C   UNL     1       7.066  13.811  22.352  0.00  0.00    +0.000 A 
ATOM      9  N   UNL     1       6.215  14.817  21.879  0.00  0.00    +0.000 N 
ATOM     10  C   UNL     1       6.892  13.356  23.699  0.00  0.00    +0.000 A 
ATOM     11  C   UNL     1       5.840  13.680  24.618  0.00  0.00    +0.000 A 
ATOM     12  C   UNL     1       5.800  13.149  25.926  0.00  0.00    +0.000 A 
ATOM     13  H   UNL     1      10.236  11.043  21.812  0.00  0.00    +0.000 HD
ATOM     14  H   UNL     1       5.273  14.460  21.718  0.00  0.00    +0.000 HD
ENDROOT
BRANCH   9  15
ATOM     15  C   UNL     1       6.675  15.736  20.834  0.00  0.00    +0.000 C 
ATOM     16  C   UNL     1       5.782  16.974  20.853  0.00  0.00    +0.000 C 
ATOM     17  C   UNL     1       4.333  16.640  20.494  0.00  0.00    +0.000 C 
ATOM     18  N   UNL     1       4.137  15.507  19.571  0.00  0.00    +0.000 NA
ATOM     19  C   UNL     1       5.272  15.238  18.698  0.00  0.00    +0.000 C 
ATOM     20  C   UNL     1       6.641  15.162  19.414  0.00  0.00    +0.000 C 
BRANCH  18  21
ATOM     21  C   UNL     1       2.783  15.545  18.967  0.00  0.00    +0.000 C 
ATOM     22  C   UNL     1       2.448  16.693  17.998  0.00  0.00    +0.000 C 
ATOM     23  C   UNL     1       2.538  14.213  18.236  0.00  0.00    +0.000 C 
ENDBRANCH  18  21
ENDBRANCH   9  15
BRANCH   6  24
ATOM     24  C   UNL     1      10.157  12.081  19.983  0.00  0.00    +0.000 C 
ATOM     25  C   UNL     1      11.657  11.802  19.907  0.00  0.00    +0.000 C 
ATOM     26  C   UNL     1      11.995  11.948  18.431  0.00  0.00    +0.000 C 
ATOM     27  C   UNL     1      10.728  11.546  17.681  0.00  0.00    +0.000 C 
ATOM     28  C   UNL     1       9.636  11.366  18.736  0.00  0.00    +0.000 C 
ENDBRANCH   6  24
BRANCH   1  30
ATOM     29  C   UNL     1       7.383  12.171  28.690  0.00  0.00    +0.000 C 
ATOM     30  O   UNL     1       6.889  11.588  27.492  0.00  0.00    +0.000 OA
ENDBRANCH   1  30
BRANCH  12  31
ATOM     31  O   UNL     1       4.572  13.102  26.542  0.00  0.00    +0.000 OA
ATOM     32  C   UNL     1       4.386  13.971  27.650  0.00  0.00    +0.000 C 
ENDBRANCH  12  31
TORSDOF 5
ENDMDL
MODEL 8
REMARK VINA RESULT:      -6.0      3.744      6.136
REMARK  Name = 
REMARK  9 active torsions:
REMARK  status: ('A' for Active; 'I' for Inactive)
REMARK    1  A    between atoms: C_1  and  O_2
REMARK    2  A    between atoms: O_2  and  C_3
REMARK    3  A    between atoms: N_8  and  C_9
REMARK    4  A    between atoms: N_16  and  C_17
REMARK    5  A    between atoms: N_20  and  C_21
REMARK    6  A    between atoms: C_21  and  C_22
REMARK    7  A    between atoms: C_21  and  C_23
REMARK    8  A    between atoms: C_28  and  O_29
REMARK    9  A    between atoms: O_29  and  C_30
REMARK                            x       y       z     vdW  Elec       q    Type
REMARK                         _______ _______ _______ _____ _____    ______ ____
ROOT
ATOM      1  C   UNL     1      -2.721  14.266  24.065  0.00  0.00    +0.000 A 
ATOM      2  C   UNL     1      -1.571  14.992  23.711  0.00  0.00    +0.000 A 
ATOM      3  C   UNL     1      -0.575  14.499  22.872  0.00  0.00    +0.000 A 
ATOM      4  N   UNL     1       0.550  15.217  22.754  0.00  0.00    +0.000 NA
ATOM      5  C   UNL     1       1.539  14.726  22.001  0.00  0.00    +0.000 A 
ATOM      6  N   UNL     1       2.744  15.401  22.160  0.00  0.00    +0.000 N 
ATOM      7  N   UNL     1       1.420  13.646  21.225  0.00  0.00    +0.000 NA
ATOM      8  C   UNL     1       0.277  12.920  21.342  0.00  0.00    +0.000 A 
ATOM      9  N   UNL     1       0.113  11.770  20.559  0.00  0.00    +0.000 N 
ATOM     10  C   UNL     1      -0.766  13.268  22.259  0.00  0.00    +0.000 A 
ATOM     11  C   UNL     1      -1.925  12.504  22.619  0.00  0.00    +0.000 A 
ATOM     12  C   UNL     1      -2.877  12.981  23.548  0.00  0.00    +0.000 A 
ATOM     13  H   UNL     1       2.529  16.286  22.604  0.00  0.00    +0.000 HD
ATOM     14  H   UNL     1       0.217  10.924  21.118  0.00  0.00    +0.000 HD
ENDROOT
BRANCH   9  15
ATOM     15  C   UNL     1       0.753  11.680  19.244  0.00  0.00    +0.000 C 
ATOM     16  C   UNL     1      -0.022  12.563  18.269  0.00  0.00    +0.000 C 
ATOM     17  C   UNL     1      -1.454  12.066  18.061  0.00  0.00    +0.000 C 
ATOM     18  N   UNL     1      -1.660  10.611  18.186  0.00  0.00    +0.000 NA
ATOM     19  C   UNL     1      -0.474   9.808  17.914  0.00  0.00    +0.000 C 
ATOM     20  C   UNL     1       0.806  10.270  18.650  0.00  0.00    +0.000 C 
BRANCH  18  21
ATOM     21  C   UNL     1      -2.940  10.202  17.557  0.00  0.00    +0.000 C 
ATOM     22  C   UNL     1      -4.158  11.131  17.711  0.00  0.00    +0.000 C 
ATOM     23  C   UNL     1      -2.695   9.977  16.056  0.00  0.00    +0.000 C 
ENDBRANCH  18  21
ENDBRANCH   9  15
BRANCH   6  24
ATOM     24  C   UNL     1       3.710  15.431  21.086  0.00  0.00    +0.000 C 
ATOM     25  C   UNL     1       3.259  16.385  19.981  0.00  0.00    +0.000 C 
ATOM     26  C   UNL     1       4.534  16.708  19.215  0.00  0.00    +0.000 C 
ATOM     27  C   UNL     1       5.660  16.612  20.241  0.00  0.00    +0.000 C 
ATOM     28  C   UNL     1       5.039  16.051  21.521  0.00  0.00    +0.000 C 
ENDBRANCH   6  24
BRANCH   1  30
ATOM     29  C   UNL     1      -3.847  16.152  25.024  0.00  0.00    +0.000 C 
ATOM     30  O   UNL     1      -3.407  14.804  25.120  0.00  0.00    +0.000 OA
ENDBRANCH   1  30
BRANCH  12  31
ATOM     31  O   UNL     1      -3.648  12.041  24.188  0.00  0.00    +0.000 OA
ATOM     32  C   UNL     1      -5.001  12.394  24.434  0.00  0.00    +0.000 C 
ENDBRANCH  12  31
TORSDOF 5
ENDMDL
MODEL 9
REMARK VINA RESULT:      -6.0      3.873      6.346
REMARK  Name = 
REMARK  9 active torsions:
REMARK  status: ('A' for Active; 'I' for Inactive)
REMARK    1  A    between atoms: C_1  and  O_2
REMARK    2  A    between atoms: O_2  and  C_3
REMARK    3  A    between atoms: N_8  and  C_9
REMARK    4  A    between atoms: N_16  and  C_17
REMARK    5  A    between atoms: N_20  and  C_21
REMARK    6  A    between atoms: C_21  and  C_22
REMARK    7  A    between atoms: C_21  and  C_23
REMARK    8  A    between atoms: C_28  and  O_29
REMARK    9  A    between atoms: O_29  and  C_30
REMARK                            x       y       z     vdW  Elec       q    Type
REMARK                         _______ _______ _______ _____ _____    ______ ____
ROOT
ATOM      1  C   UNL     1      -2.780  12.937  23.662  0.00  0.00    +0.000 A 
ATOM      2  C   UNL     1      -2.135  11.707  23.452  0.00  0.00    +0.000 A 
ATOM      3  C   UNL     1      -1.137  11.512  22.501  0.00  0.00    +0.000 A 
ATOM      4  N   UNL     1      -0.727  10.255  22.280  0.00  0.00    +0.000 NA
ATOM      5  C   UNL     1       0.186  10.045  21.327  0.00  0.00    +0.000 A 
ATOM      6  N   UNL     1       0.341   8.705  20.993  0.00  0.00    +0.000 N 
ATOM      7  N   UNL     1       0.840  11.022  20.691  0.00  0.00    +0.000 NA
ATOM      8  C   UNL     1       0.427  12.296  20.919  0.00  0.00    +0.000 A 
ATOM      9  N   UNL     1       1.072  13.353  20.265  0.00  0.00    +0.000 N 
ATOM     10  C   UNL     1      -0.668  12.607  21.789  0.00  0.00    +0.000 A 
ATOM     11  C   UNL     1      -1.324  13.868  21.976  0.00  0.00    +0.000 A 
ATOM     12  C   UNL     1      -2.401  14.025  22.877  0.00  0.00    +0.000 A 
ATOM     13  H   UNL     1      -0.075   8.165  21.742  0.00  0.00    +0.000 HD
ATOM     14  H   UNL     1       0.490  13.737  19.521  0.00  0.00    +0.000 HD
ENDROOT
BRANCH   9  15
ATOM     15  C   UNL     1       2.485  13.234  19.895  0.00  0.00    +0.000 C 
ATOM     16  C   UNL     1       3.271  14.309  20.642  0.00  0.00    +0.000 C 
ATOM     17  C   UNL     1       2.856  15.719  20.218  0.00  0.00    +0.000 C 
ATOM     18  N   UNL     1       2.387  15.868  18.828  0.00  0.00    +0.000 NA
ATOM     19  C   UNL     1       2.903  14.862  17.907  0.00  0.00    +0.000 C 
ATOM     20  C   UNL     1       2.775  13.402  18.401  0.00  0.00    +0.000 C 
BRANCH  18  21
ATOM     21  C   UNL     1       2.428  17.289  18.405  0.00  0.00    +0.000 C 
ATOM     22  C   UNL     1       1.859  17.656  17.023  0.00  0.00    +0.000 C 
ATOM     23  C   UNL     1       1.698  18.133  19.464  0.00  0.00    +0.000 C 
ENDBRANCH  18  21
ENDBRANCH   9  15
BRANCH   6  24
ATOM     24  C   UNL     1       1.599   8.225  20.468  0.00  0.00    +0.000 C 
ATOM     25  C   UNL     1       1.682   6.703  20.574  0.00  0.00    +0.000 C 
ATOM     26  C   UNL     1       2.752   6.310  19.566  0.00  0.00    +0.000 C 
ATOM     27  C   UNL     1       2.685   7.368  18.468  0.00  0.00    +0.000 C 
ATOM     28  C   UNL     1       1.717   8.446  18.959  0.00  0.00    +0.000 C 
ENDBRANCH   6  24
BRANCH   1  30
ATOM     29  C   UNL     1      -5.164  12.702  23.747  0.00  0.00    +0.000 C 
ATOM     30  O   UNL     1      -3.918  12.839  24.416  0.00  0.00    +0.000 OA
ENDBRANCH   1  30
BRANCH  12  31
ATOM     31  O   UNL     1      -3.259  15.073  22.646  0.00  0.00    +0.000 OA
ATOM     32  C   UNL     1      -2.669  16.288  22.207  0.00  0.00    +0.000 C 
ENDBRANCH  12  31
TORSDOF 5
ENDMDL
