MODEL 1
REMARK VINA RESULT:      -9.1      0.000      0.000
REMARK  Name = 
REMARK  5 active torsions:
REMARK  status: ('A' for Active; 'I' for Inactive)
REMARK    1  A    between atoms: C_1  and  N_2
REMARK    2  A    between atoms: C_7  and  S_8
REMARK    3  A    between atoms: S_8  and  N_11
REMARK    4  A    between atoms: C_14  and  C_15
REMARK    5  A    between atoms: N_26  and  C_27
REMARK                            x       y       z     vdW  Elec       q    Type
REMARK                         _______ _______ _______ _____ _____    ______ ____
ROOT
ATOM      1  S   UNL     1       3.161   4.674  18.419  0.00  0.00    +0.000 S 
ATOM      2  O   UNL     1       3.413   3.694  19.456  0.00  0.00    +0.000 OA
ATOM      3  O   UNL     1       2.273   4.385  17.316  0.00  0.00    +0.000 OA
ENDROOT
BRANCH   1  10
ATOM      4  C   UNL     1       0.663  11.991  18.581  0.00  0.00    +0.000 C 
ATOM      5  N   UNL     1       0.938  10.737  19.264  0.00  0.00    +0.000 N 
ATOM      6  C   UNL     1       1.623   9.739  18.586  0.00  0.00    +0.000 A 
ATOM      7  O   UNL     1       2.102   9.869  17.464  0.00  0.00    +0.000 OA
ATOM      8  C   UNL     1       1.782   8.446  19.282  0.00  0.00    +0.000 A 
ATOM      9  C   UNL     1       2.380   7.358  18.602  0.00  0.00    +0.000 A 
ATOM     10  C   UNL     1       2.501   6.126  19.245  0.00  0.00    +0.000 A 
ATOM     11  C   UNL     1       1.999   5.980  20.538  0.00  0.00    +0.000 A 
ATOM     12  C   UNL     1       1.422   7.067  21.206  0.00  0.00    +0.000 A 
ATOM     13  C   UNL     1       1.302   8.320  20.589  0.00  0.00    +0.000 A 
ATOM     14  N   UNL     1       0.697   9.437  21.228  0.00  0.00    +0.000 N 
ATOM     15  C   UNL     1       0.179   9.378  22.588  0.00  0.00    +0.000 C 
ATOM     16  C   UNL     1       0.494  10.648  20.574  0.00  0.00    +0.000 A 
ATOM     17  O   UNL     1      -0.058  11.599  21.137  0.00  0.00    +0.000 OA
ENDBRANCH   1  10
BRANCH   1  18
ATOM     18  N   UNL     1       4.685   5.142  17.801  0.00  0.00    +0.000 NA
ATOM     19  C   UNL     1       5.688   4.065  17.661  0.00  0.00    +0.000 C 
ATOM     20  C   UNL     1       7.061   4.576  17.245  0.00  0.00    +0.000 C 
ATOM     21  C   UNL     1       7.037   5.573  16.084  0.00  0.00    +0.000 C 
ATOM     22  C   UNL     1       6.084   6.718  16.438  0.00  0.00    +0.000 C 
ATOM     23  C   UNL     1       4.685   6.267  16.837  0.00  0.00    +0.000 C 
BRANCH  21  24
ATOM     24  C   UNL     1       6.802   4.944  14.717  0.00  0.00    +0.000 A 
ATOM     25  C   UNL     1       5.740   4.068  14.451  0.00  0.00    +0.000 A 
ATOM     26  C   UNL     1       5.563   3.485  13.196  0.00  0.00    +0.000 A 
ATOM     27  C   UNL     1       6.444   3.779  12.167  0.00  0.00    +0.000 A 
ATOM     28  C   UNL     1       7.505   4.653  12.397  0.00  0.00    +0.000 A 
ATOM     29  C   UNL     1       7.682   5.229  13.661  0.00  0.00    +0.000 A 
ENDBRANCH  21  24
ENDBRANCH   1  18
TORSDOF 3
ENDMDL
MODEL 2
REMARK VINA RESULT:      -9.0      3.389      9.430
REMARK  Name = 
REMARK  5 active torsions:
REMARK  status: ('A' for Active; 'I' for Inactive)
REMARK    1  A    between atoms: C_1  and  N_2
REMARK    2  A    between atoms: C_7  and  S_8
REMARK    3  A    between atoms: S_8  and  N_11
REMARK    4  A    between atoms: C_14  and  C_15
REMARK    5  A    between atoms: N_26  and  C_27
REMARK                            x       y       z     vdW  Elec       q    Type
REMARK                         _______ _______ _______ _____ _____    ______ ____
ROOT
ATOM      1  S   UNL     1       0.404   9.653  20.622  0.00  0.00    +0.000 S 
ATOM      2  O   UNL     1      -0.563   8.841  21.333  0.00  0.00    +0.000 OA
ATOM      3  O   UNL     1       1.218  10.626  21.315  0.00  0.00    +0.000 OA
ENDROOT
BRANCH   1  10
ATOM      4  C   UNL     1       3.772   2.746  19.750  0.00  0.00    +0.000 C 
ATOM      5  N   UNL     1       3.608   4.130  19.336  0.00  0.00    +0.000 N 
ATOM      6  C   UNL     1       2.855   4.984  20.130  0.00  0.00    +0.000 A 
ATOM      7  O   UNL     1       2.384   4.678  21.220  0.00  0.00    +0.000 OA
ATOM      8  C   UNL     1       2.626   6.349  19.613  0.00  0.00    +0.000 A 
ATOM      9  C   UNL     1       1.781   7.231  20.328  0.00  0.00    +0.000 A 
ATOM     10  C   UNL     1       1.535   8.509  19.825  0.00  0.00    +0.000 A 
ATOM     11  C   UNL     1       2.103   8.882  18.607  0.00  0.00    +0.000 A 
ATOM     12  C   UNL     1       2.949   8.007  17.915  0.00  0.00    +0.000 A 
ATOM     13  C   UNL     1       3.225   6.722  18.406  0.00  0.00    +0.000 A 
ATOM     14  N   UNL     1       4.056   5.798  17.715  0.00  0.00    +0.000 N 
ATOM     15  C   UNL     1       4.714   6.121  16.457  0.00  0.00    +0.000 C 
ATOM     16  C   UNL     1       4.246   4.492  18.160  0.00  0.00    +0.000 A 
ATOM     17  O   UNL     1       4.950   3.696  17.533  0.00  0.00    +0.000 OA
ENDBRANCH   1  10
BRANCH   1  18
ATOM     18  N   UNL     1      -0.441  10.432  19.356  0.00  0.00    +0.000 NA
ATOM     19  C   UNL     1      -1.342   9.577  18.553  0.00  0.00    +0.000 C 
ATOM     20  C   UNL     1      -1.946  10.301  17.358  0.00  0.00    +0.000 C 
ATOM     21  C   UNL     1      -2.509  11.687  17.680  0.00  0.00    +0.000 C 
ATOM     22  C   UNL     1      -1.417  12.517  18.358  0.00  0.00    +0.000 C 
ATOM     23  C   UNL     1      -0.793  11.853  19.579  0.00  0.00    +0.000 C 
BRANCH  21  24
ATOM     24  C   UNL     1      -3.847  11.671  18.410  0.00  0.00    +0.000 A 
ATOM     25  C   UNL     1      -4.087  12.402  19.581  0.00  0.00    +0.000 A 
ATOM     26  C   UNL     1      -5.313  12.349  20.244  0.00  0.00    +0.000 A 
ATOM     27  C   UNL     1      -6.339  11.566  19.738  0.00  0.00    +0.000 A 
ATOM     28  C   UNL     1      -6.134  10.834  18.570  0.00  0.00    +0.000 A 
ATOM     29  C   UNL     1      -4.899  10.885  17.914  0.00  0.00    +0.000 A 
ENDBRANCH  21  24
ENDBRANCH   1  18
TORSDOF 3
ENDMDL
MODEL 3
REMARK VINA RESULT:      -8.7      3.149      9.539
REMARK  Name = 
REMARK  5 active torsions:
REMARK  status: ('A' for Active; 'I' for Inactive)
REMARK    1  A    between atoms: C_1  and  N_2
REMARK    2  A    between atoms: C_7  and  S_8
REMARK    3  A    between atoms: S_8  and  N_11
REMARK    4  A    between atoms: C_14  and  C_15
REMARK    5  A    between atoms: N_26  and  C_27
REMARK                            x       y       z     vdW  Elec       q    Type
REMARK                         _______ _______ _______ _____ _____    ______ ____
ROOT
ATOM      1  S   UNL     1       0.399   9.034  21.434  0.00  0.00    +0.000 S 
ATOM      2  O   UNL     1      -0.770   8.226  21.710  0.00  0.00    +0.000 OA
ATOM      3  O   UNL     1       1.212   9.566  22.505  0.00  0.00    +0.000 OA
ENDROOT
BRANCH   1  10
ATOM      4  C   UNL     1       3.663   2.340  19.348  0.00  0.00    +0.000 C 
ATOM      5  N   UNL     1       3.492   3.772  19.162  0.00  0.00    +0.000 N 
ATOM      6  C   UNL     1       2.784   4.495  20.113  0.00  0.00    +0.000 A 
ATOM      7  O   UNL     1       2.361   4.024  21.163  0.00  0.00    +0.000 OA
ATOM      8  C   UNL     1       2.543   5.923  19.824  0.00  0.00    +0.000 A 
ATOM      9  C   UNL     1       1.740   6.685  20.705  0.00  0.00    +0.000 A 
ATOM     10  C   UNL     1       1.483   8.026  20.418  0.00  0.00    +0.000 A 
ATOM     11  C   UNL     1       1.998   8.583  19.247  0.00  0.00    +0.000 A 
ATOM     12  C   UNL     1       2.803   7.823  18.389  0.00  0.00    +0.000 A 
ATOM     13  C   UNL     1       3.090   6.478  18.662  0.00  0.00    +0.000 A 
ATOM     14  N   UNL     1       3.880   5.670  17.799  0.00  0.00    +0.000 N 
ATOM     15  C   UNL     1       4.482   6.183  16.576  0.00  0.00    +0.000 C 
ATOM     16  C   UNL     1       4.078   4.311  18.027  0.00  0.00    +0.000 A 
ATOM     17  O   UNL     1       4.746   3.620  17.252  0.00  0.00    +0.000 OA
ENDBRANCH   1  10
BRANCH   1  18
ATOM     18  N   UNL     1      -0.115  10.321  20.432  0.00  0.00    +0.000 NA
ATOM     19  C   UNL     1      -0.959   9.949  19.277  0.00  0.00    +0.000 C 
ATOM     20  C   UNL     1      -1.257  11.120  18.351  0.00  0.00    +0.000 C 
ATOM     21  C   UNL     1      -1.699  12.396  19.072  0.00  0.00    +0.000 C 
ATOM     22  C   UNL     1      -0.649  12.754  20.126  0.00  0.00    +0.000 C 
ATOM     23  C   UNL     1      -0.330  11.627  21.099  0.00  0.00    +0.000 C 
BRANCH  21  24
ATOM     24  C   UNL     1      -3.135  12.368  19.581  0.00  0.00    +0.000 A 
ATOM     25  C   UNL     1      -3.507  12.847  20.844  0.00  0.00    +0.000 A 
ATOM     26  C   UNL     1      -4.825  12.786  21.296  0.00  0.00    +0.000 A 
ATOM     27  C   UNL     1      -5.811  12.251  20.481  0.00  0.00    +0.000 A 
ATOM     28  C   UNL     1      -5.474  11.774  19.216  0.00  0.00    +0.000 A 
ATOM     29  C   UNL     1      -4.148  11.830  18.771  0.00  0.00    +0.000 A 
ENDBRANCH  21  24
ENDBRANCH   1  18
TORSDOF 3
ENDMDL
MODEL 4
REMARK VINA RESULT:      -8.3      2.912      9.017
REMARK  Name = 
REMARK  5 active torsions:
REMARK  status: ('A' for Active; 'I' for Inactive)
REMARK    1  A    between atoms: C_1  and  N_2
REMARK    2  A    between atoms: C_7  and  S_8
REMARK    3  A    between atoms: S_8  and  N_11
REMARK    4  A    between atoms: C_14  and  C_15
REMARK    5  A    between atoms: N_26  and  C_27
REMARK                            x       y       z     vdW  Elec       q    Type
REMARK                         _______ _______ _______ _____ _____    ______ ____
ROOT
ATOM      1  S   UNL     1       0.667   8.815  21.515  0.00  0.00    +0.000 S 
ATOM      2  O   UNL     1      -0.586   8.273  21.999  0.00  0.00    +0.000 OA
ATOM      3  O   UNL     1       1.669   9.316  22.430  0.00  0.00    +0.000 OA
ENDROOT
BRANCH   1  10
ATOM      4  C   UNL     1       5.244   6.177  15.867  0.00  0.00    +0.000 C 
ATOM      5  N   UNL     1       4.351   5.927  16.986  0.00  0.00    +0.000 N 
ATOM      6  C   UNL     1       3.648   6.990  17.537  0.00  0.00    +0.000 A 
ATOM      7  O   UNL     1       3.656   8.130  17.085  0.00  0.00    +0.000 OA
ATOM      8  C   UNL     1       2.839   6.706  18.740  0.00  0.00    +0.000 A 
ATOM      9  C   UNL     1       2.185   7.769  19.405  0.00  0.00    +0.000 A 
ATOM     10  C   UNL     1       1.448   7.509  20.562  0.00  0.00    +0.000 A 
ATOM     11  C   UNL     1       1.397   6.207  21.058  0.00  0.00    +0.000 A 
ATOM     12  C   UNL     1       2.037   5.160  20.384  0.00  0.00    +0.000 A 
ATOM     13  C   UNL     1       2.772   5.391  19.212  0.00  0.00    +0.000 A 
ATOM     14  N   UNL     1       3.457   4.356  18.517  0.00  0.00    +0.000 N 
ATOM     15  C   UNL     1       3.426   2.966  18.950  0.00  0.00    +0.000 C 
ATOM     16  C   UNL     1       4.263   4.610  17.411  0.00  0.00    +0.000 A 
ATOM     17  O   UNL     1       4.871   3.702  16.837  0.00  0.00    +0.000 OA
ENDBRANCH   1  10
BRANCH   1  18
ATOM     18  N   UNL     1       0.274  10.042  20.392  0.00  0.00    +0.000 NA
ATOM     19  C   UNL     1      -0.616   9.645  19.280  0.00  0.00    +0.000 C 
ATOM     20  C   UNL     1      -0.805  10.744  18.243  0.00  0.00    +0.000 C 
ATOM     21  C   UNL     1      -1.107  12.123  18.834  0.00  0.00    +0.000 C 
ATOM     22  C   UNL     1      -0.014  12.475  19.846  0.00  0.00    +0.000 C 
ATOM     23  C   UNL     1       0.201  11.422  20.925  0.00  0.00    +0.000 C 
BRANCH  21  24
ATOM     24  C   UNL     1      -2.532  12.292  19.345  0.00  0.00    +0.000 A 
ATOM     25  C   UNL     1      -3.651  11.781  18.673  0.00  0.00    +0.000 A 
ATOM     26  C   UNL     1      -4.948  11.973  19.150  0.00  0.00    +0.000 A 
ATOM     27  C   UNL     1      -5.154  12.676  20.327  0.00  0.00    +0.000 A 
ATOM     28  C   UNL     1      -4.062  13.190  21.022  0.00  0.00    +0.000 A 
ATOM     29  C   UNL     1      -2.763  13.001  20.535  0.00  0.00    +0.000 A 
ENDBRANCH  21  24
ENDBRANCH   1  18
TORSDOF 3
ENDMDL
MODEL 5
REMARK VINA RESULT:      -8.3      1.543      2.944
REMARK  Name = 
REMARK  5 active torsions:
REMARK  status: ('A' for Active; 'I' for Inactive)
REMARK    1  A    between atoms: C_1  and  N_2
REMARK    2  A    between atoms: C_7  and  S_8
REMARK    3  A    between atoms: S_8  and  N_11
REMARK    4  A    between atoms: C_14  and  C_15
REMARK    5  A    between atoms: N_26  and  C_27
REMARK                            x       y       z     vdW  Elec       q    Type
REMARK                         _______ _______ _______ _____ _____    ______ ____
ROOT
ATOM      1  S   UNL     1       2.449   4.330  18.174  0.00  0.00    +0.000 S 
ATOM      2  O   UNL     1       2.906   3.354  19.143  0.00  0.00    +0.000 OA
ATOM      3  O   UNL     1       1.281   4.086  17.357  0.00  0.00    +0.000 OA
ENDROOT
BRANCH   1  10
ATOM      4  C   UNL     1       1.067  11.920  18.719  0.00  0.00    +0.000 C 
ATOM      5  N   UNL     1       1.256  10.624  19.350  0.00  0.00    +0.000 N 
ATOM      6  C   UNL     1       1.688   9.555  18.577  0.00  0.00    +0.000 A 
ATOM      7  O   UNL     1       2.013   9.644  17.398  0.00  0.00    +0.000 OA
ATOM      8  C   UNL     1       1.760   8.237  19.239  0.00  0.00    +0.000 A 
ATOM      9  C   UNL     1       2.093   7.093  18.476  0.00  0.00    +0.000 A 
ATOM     10  C   UNL     1       2.128   5.840  19.091  0.00  0.00    +0.000 A 
ATOM     11  C   UNL     1       1.803   5.737  20.443  0.00  0.00    +0.000 A 
ATOM     12  C   UNL     1       1.489   6.877  21.192  0.00  0.00    +0.000 A 
ATOM     13  C   UNL     1       1.461   8.149  20.602  0.00  0.00    +0.000 A 
ATOM     14  N   UNL     1       1.119   9.325  21.326  0.00  0.00    +0.000 N 
ATOM     15  C   UNL     1       0.800   9.307  22.747  0.00  0.00    +0.000 C 
ATOM     16  C   UNL     1       0.998  10.568  20.711  0.00  0.00    +0.000 A 
ATOM     17  O   UNL     1       0.674  11.573  21.351  0.00  0.00    +0.000 OA
ENDBRANCH   1  10
BRANCH   1  18
ATOM     18  N   UNL     1       3.779   4.676  17.157  0.00  0.00    +0.000 NA
ATOM     19  C   UNL     1       3.920   6.083  16.726  0.00  0.00    +0.000 C 
ATOM     20  C   UNL     1       5.034   6.289  15.710  0.00  0.00    +0.000 C 
ATOM     21  C   UNL     1       6.354   5.604  16.074  0.00  0.00    +0.000 C 
ATOM     22  C   UNL     1       6.083   4.120  16.331  0.00  0.00    +0.000 C 
ATOM     23  C   UNL     1       4.994   3.852  17.361  0.00  0.00    +0.000 C 
BRANCH  21  24
ATOM     24  C   UNL     1       7.151   6.308  17.164  0.00  0.00    +0.000 A 
ATOM     25  C   UNL     1       7.598   5.660  18.324  0.00  0.00    +0.000 A 
ATOM     26  C   UNL     1       8.303   6.335  19.320  0.00  0.00    +0.000 A 
ATOM     27  C   UNL     1       8.590   7.683  19.170  0.00  0.00    +0.000 A 
ATOM     28  C   UNL     1       8.166   8.354  18.025  0.00  0.00    +0.000 A 
ATOM     29  C   UNL     1       7.452   7.674  17.033  0.00  0.00    +0.000 A 
ENDBRANCH  21  24
ENDBRANCH   1  18
TORSDOF 3
ENDMDL
MODEL 6
REMARK VINA RESULT:      -8.3      2.842      9.346
REMARK  Name = 
REMARK  5 active torsions:
REMARK  status: ('A' for Active; 'I' for Inactive)
REMARK    1  A    between atoms: C_1  and  N_2
REMARK    2  A    between atoms: C_7  and  S_8
REMARK    3  A    between atoms: S_8  and  N_11
REMARK    4  A    between atoms: C_14  and  C_15
REMARK    5  A    between atoms: N_26  and  C_27
REMARK                            x       y       z     vdW  Elec       q    Type
REMARK                         _______ _______ _______ _____ _____    ______ ____
ROOT
ATOM      1  S   UNL     1       1.325   9.691  18.122  0.00  0.00    +0.000 S 
ATOM      2  O   UNL     1       2.181  10.667  17.479  0.00  0.00    +0.000 OA
ATOM      3  O   UNL     1       0.089   9.259  17.510  0.00  0.00    +0.000 OA
ENDROOT
BRANCH   1  10
ATOM      4  C   UNL     1       2.755   2.720  21.152  0.00  0.00    +0.000 C 
ATOM      5  N   UNL     1       3.150   3.830  20.300  0.00  0.00    +0.000 N 
ATOM      6  C   UNL     1       2.406   5.001  20.333  0.00  0.00    +0.000 A 
ATOM      7  O   UNL     1       1.476   5.207  21.106  0.00  0.00    +0.000 OA
ATOM      8  C   UNL     1       2.780   6.058  19.372  0.00  0.00    +0.000 A 
ATOM      9  C   UNL     1       1.994   7.232  19.287  0.00  0.00    +0.000 A 
ATOM     10  C   UNL     1       2.325   8.218  18.356  0.00  0.00    +0.000 A 
ATOM     11  C   UNL     1       3.409   8.012  17.502  0.00  0.00    +0.000 A 
ATOM     12  C   UNL     1       4.188   6.853  17.604  0.00  0.00    +0.000 A 
ATOM     13  C   UNL     1       3.887   5.854  18.541  0.00  0.00    +0.000 A 
ATOM     14  N   UNL     1       4.640   4.653  18.653  0.00  0.00    +0.000 N 
ATOM     15  C   UNL     1       5.805   4.376  17.824  0.00  0.00    +0.000 C 
ATOM     16  C   UNL     1       4.276   3.624  19.518  0.00  0.00    +0.000 A 
ATOM     17  O   UNL     1       4.927   2.577  19.582  0.00  0.00    +0.000 OA
ENDBRANCH   1  10
BRANCH   1  18
ATOM     18  N   UNL     1       0.994  10.283  19.691  0.00  0.00    +0.000 NA
ATOM     19  C   UNL     1       1.017  11.753  19.850  0.00  0.00    +0.000 C 
ATOM     20  C   UNL     1       0.858  12.201  21.296  0.00  0.00    +0.000 C 
ATOM     21  C   UNL     1      -0.273  11.501  22.053  0.00  0.00    +0.000 C 
ATOM     22  C   UNL     1      -0.076   9.988  21.943  0.00  0.00    +0.000 C 
ATOM     23  C   UNL     1       0.062   9.477  20.514  0.00  0.00    +0.000 C 
BRANCH  21  24
ATOM     24  C   UNL     1      -1.670  11.992  21.695  0.00  0.00    +0.000 A 
ATOM     25  C   UNL     1      -2.084  12.226  20.376  0.00  0.00    +0.000 A 
ATOM     26  C   UNL     1      -3.361  12.701  20.078  0.00  0.00    +0.000 A 
ATOM     27  C   UNL     1      -4.265  12.943  21.101  0.00  0.00    +0.000 A 
ATOM     28  C   UNL     1      -3.886  12.713  22.422  0.00  0.00    +0.000 A 
ATOM     29  C   UNL     1      -2.601  12.244  22.716  0.00  0.00    +0.000 A 
ENDBRANCH  21  24
ENDBRANCH   1  18
TORSDOF 3
ENDMDL
MODEL 7
REMARK VINA RESULT:      -8.2      3.097      9.104
REMARK  Name = 
REMARK  5 active torsions:
REMARK  status: ('A' for Active; 'I' for Inactive)
REMARK    1  A    between atoms: C_1  and  N_2
REMARK    2  A    between atoms: C_7  and  S_8
REMARK    3  A    between atoms: S_8  and  N_11
REMARK    4  A    between atoms: C_14  and  C_15
REMARK    5  A    between atoms: N_26  and  C_27
REMARK                            x       y       z     vdW  Elec       q    Type
REMARK                         _______ _______ _______ _____ _____    ______ ____
ROOT
ATOM      1  S   UNL     1       0.513   9.272  21.405  0.00  0.00    +0.000 S 
ATOM      2  O   UNL     1      -0.655   8.703  22.044  0.00  0.00    +0.000 OA
ATOM      3  O   UNL     1       1.536   9.944  22.174  0.00  0.00    +0.000 OA
ENDROOT
BRANCH   1  10
ATOM      4  C   UNL     1       5.140   6.359  15.935  0.00  0.00    +0.000 C 
ATOM      5  N   UNL     1       4.256   6.166  17.072  0.00  0.00    +0.000 N 
ATOM      6  C   UNL     1       3.529   7.247  17.551  0.00  0.00    +0.000 A 
ATOM      7  O   UNL     1       3.508   8.353  17.021  0.00  0.00    +0.000 OA
ATOM      8  C   UNL     1       2.730   7.028  18.774  0.00  0.00    +0.000 A 
ATOM      9  C   UNL     1       2.051   8.119  19.366  0.00  0.00    +0.000 A 
ATOM     10  C   UNL     1       1.324   7.922  20.541  0.00  0.00    +0.000 A 
ATOM     11  C   UNL     1       1.306   6.656  21.127  0.00  0.00    +0.000 A 
ATOM     12  C   UNL     1       1.970   5.581  20.524  0.00  0.00    +0.000 A 
ATOM     13  C   UNL     1       2.695   5.748  19.336  0.00  0.00    +0.000 A 
ATOM     14  N   UNL     1       3.404   4.684  18.712  0.00  0.00    +0.000 N 
ATOM     15  C   UNL     1       3.408   3.327  19.241  0.00  0.00    +0.000 C 
ATOM     16  C   UNL     1       4.201   4.880  17.588  0.00  0.00    +0.000 A 
ATOM     17  O   UNL     1       4.830   3.949  17.076  0.00  0.00    +0.000 OA
ENDBRANCH   1  10
BRANCH   1  18
ATOM     18  N   UNL     1      -0.055  10.330  20.188  0.00  0.00    +0.000 NA
ATOM     19  C   UNL     1      -0.924   9.727  19.156  0.00  0.00    +0.000 C 
ATOM     20  C   UNL     1      -1.272  10.689  18.029  0.00  0.00    +0.000 C 
ATOM     21  C   UNL     1      -1.718  12.076  18.499  0.00  0.00    +0.000 C 
ATOM     22  C   UNL     1      -0.645  12.648  19.429  0.00  0.00    +0.000 C 
ATOM     23  C   UNL     1      -0.275  11.738  20.592  0.00  0.00    +0.000 C 
BRANCH  21  24
ATOM     24  C   UNL     1      -3.137  12.129  19.050  0.00  0.00    +0.000 A 
ATOM     25  C   UNL     1      -3.463  12.751  20.264  0.00  0.00    +0.000 A 
ATOM     26  C   UNL     1      -4.767  12.762  20.758  0.00  0.00    +0.000 A 
ATOM     27  C   UNL     1      -5.785  12.159  20.036  0.00  0.00    +0.000 A 
ATOM     28  C   UNL     1      -5.495  11.540  18.823  0.00  0.00    +0.000 A 
ATOM     29  C   UNL     1      -4.183  11.524  18.335  0.00  0.00    +0.000 A 
ENDBRANCH  21  24
ENDBRANCH   1  18
TORSDOF 3
ENDMDL
MODEL 8
REMARK VINA RESULT:      -8.1      1.323      2.272
REMARK  Name = 
REMARK  5 active torsions:
REMARK  status: ('A' for Active; 'I' for Inactive)
REMARK    1  A    between atoms: C_1  and  N_2
REMARK    2  A    between atoms: C_7  and  S_8
REMARK    3  A    between atoms: S_8  and  N_11
REMARK    4  A    between atoms: C_14  and  C_15
REMARK    5  A    between atoms: N_26  and  C_27
REMARK                            x       y       z     vdW  Elec       q    Type
REMARK                         _______ _______ _______ _____ _____    ______ ____
ROOT
ATOM      1  S   UNL     1       2.903   5.545  18.906  0.00  0.00    +0.000 S 
ATOM      2  O   UNL     1       2.991   5.016  20.251  0.00  0.00    +0.000 OA
ATOM      3  O   UNL     1       2.137   4.867  17.883  0.00  0.00    +0.000 OA
ENDROOT
BRANCH   1  10
ATOM      4  C   UNL     1      -0.716  11.198  22.747  0.00  0.00    +0.000 C 
ATOM      5  N   UNL     1      -0.068  10.707  21.542  0.00  0.00    +0.000 N 
ATOM      6  C   UNL     1       0.261   9.362  21.456  0.00  0.00    +0.000 A 
ATOM      7  O   UNL     1      -0.039   8.522  22.298  0.00  0.00    +0.000 OA
ATOM      8  C   UNL     1       1.016   8.933  20.261  0.00  0.00    +0.000 A 
ATOM      9  C   UNL     1       1.470   7.596  20.167  0.00  0.00    +0.000 A 
ATOM     10  C   UNL     1       2.212   7.196  19.055  0.00  0.00    +0.000 A 
ATOM     11  C   UNL     1       2.521   8.134  18.070  0.00  0.00    +0.000 A 
ATOM     12  C   UNL     1       2.055   9.450  18.166  0.00  0.00    +0.000 A 
ATOM     13  C   UNL     1       1.295   9.874  19.265  0.00  0.00    +0.000 A 
ATOM     14  N   UNL     1       0.829  11.211  19.408  0.00  0.00    +0.000 N 
ATOM     15  C   UNL     1       1.079  12.240  18.409  0.00  0.00    +0.000 C 
ATOM     16  C   UNL     1       0.159  11.647  20.548  0.00  0.00    +0.000 A 
ATOM     17  O   UNL     1      -0.214  12.818  20.666  0.00  0.00    +0.000 OA
ENDBRANCH   1  10
BRANCH   1  18
ATOM     18  N   UNL     1       4.506   5.759  18.352  0.00  0.00    +0.000 NA
ATOM     19  C   UNL     1       5.352   4.547  18.325  0.00  0.00    +0.000 C 
ATOM     20  C   UNL     1       6.802   4.836  17.963  0.00  0.00    +0.000 C 
ATOM     21  C   UNL     1       6.977   5.757  16.753  0.00  0.00    +0.000 C 
ATOM     22  C   UNL     1       6.181   7.042  16.993  0.00  0.00    +0.000 C 
ATOM     23  C   UNL     1       4.714   6.814  17.333  0.00  0.00    +0.000 C 
BRANCH  21  24
ATOM     24  C   UNL     1       6.723   5.087  15.408  0.00  0.00    +0.000 A 
ATOM     25  C   UNL     1       5.660   4.202  15.185  0.00  0.00    +0.000 A 
ATOM     26  C   UNL     1       5.465   3.581  13.951  0.00  0.00    +0.000 A 
ATOM     27  C   UNL     1       6.330   3.846  12.900  0.00  0.00    +0.000 A 
ATOM     28  C   UNL     1       7.392   4.728  13.089  0.00  0.00    +0.000 A 
ATOM     29  C   UNL     1       7.588   5.341  14.331  0.00  0.00    +0.000 A 
ENDBRANCH  21  24
ENDBRANCH   1  18
TORSDOF 3
ENDMDL
MODEL 9
REMARK VINA RESULT:      -8.0      2.771      8.461
REMARK  Name = 
REMARK  5 active torsions:
REMARK  status: ('A' for Active; 'I' for Inactive)
REMARK    1  A    between atoms: C_1  and  N_2
REMARK    2  A    between atoms: C_7  and  S_8
REMARK    3  A    between atoms: S_8  and  N_11
REMARK    4  A    between atoms: C_14  and  C_15
REMARK    5  A    between atoms: N_26  and  C_27
REMARK                            x       y       z     vdW  Elec       q    Type
REMARK                         _______ _______ _______ _____ _____    ______ ____
ROOT
ATOM      1  S   UNL     1       0.644   8.815  21.611  0.00  0.00    +0.000 S 
ATOM      2  O   UNL     1      -0.672   8.329  21.970  0.00  0.00    +0.000 OA
ATOM      3  O   UNL     1       1.607   9.186  22.623  0.00  0.00    +0.000 OA
ENDROOT
BRANCH   1  10
ATOM      4  C   UNL     1       5.201   6.266  15.906  0.00  0.00    +0.000 C 
ATOM      5  N   UNL     1       4.300   5.998  17.015  0.00  0.00    +0.000 N 
ATOM      6  C   UNL     1       3.612   7.056  17.593  0.00  0.00    +0.000 A 
ATOM      7  O   UNL     1       3.640   8.209  17.174  0.00  0.00    +0.000 OA
ATOM      8  C   UNL     1       2.794   6.751  18.784  0.00  0.00    +0.000 A 
ATOM      9  C   UNL     1       2.154   7.806  19.477  0.00  0.00    +0.000 A 
ATOM     10  C   UNL     1       1.408   7.525  20.623  0.00  0.00    +0.000 A 
ATOM     11  C   UNL     1       1.334   6.210  21.082  0.00  0.00    +0.000 A 
ATOM     12  C   UNL     1       1.960   5.172  20.380  0.00  0.00    +0.000 A 
ATOM     13  C   UNL     1       2.703   5.425  19.218  0.00  0.00    +0.000 A 
ATOM     14  N   UNL     1       3.374   4.399  18.496  0.00  0.00    +0.000 N 
ATOM     15  C   UNL     1       3.319   2.998  18.889  0.00  0.00    +0.000 C 
ATOM     16  C   UNL     1       4.189   4.672  17.401  0.00  0.00    +0.000 A 
ATOM     17  O   UNL     1       4.785   3.771  16.803  0.00  0.00    +0.000 OA
ENDBRANCH   1  10
BRANCH   1  18
ATOM     18  N   UNL     1       0.411  10.137  20.552  0.00  0.00    +0.000 NA
ATOM     19  C   UNL     1       0.337   9.811  19.112  0.00  0.00    +0.000 C 
ATOM     20  C   UNL     1       0.275  11.044  18.221  0.00  0.00    +0.000 C 
ATOM     21  C   UNL     1      -0.727  12.105  18.682  0.00  0.00    +0.000 C 
ATOM     22  C   UNL     1      -0.426  12.466  20.139  0.00  0.00    +0.000 C 
ATOM     23  C   UNL     1      -0.379  11.272  21.083  0.00  0.00    +0.000 C 
BRANCH  21  24
ATOM     24  C   UNL     1      -2.184  11.764  18.394  0.00  0.00    +0.000 A 
ATOM     25  C   UNL     1      -3.242  12.181  19.213  0.00  0.00    +0.000 A 
ATOM     26  C   UNL     1      -4.565  11.832  18.941  0.00  0.00    +0.000 A 
ATOM     27  C   UNL     1      -4.862  11.062  17.827  0.00  0.00    +0.000 A 
ATOM     28  C   UNL     1      -3.832  10.638  16.990  0.00  0.00    +0.000 A 
ATOM     29  C   UNL     1      -2.506  10.984  17.272  0.00  0.00    +0.000 A 
ENDBRANCH  21  24
ENDBRANCH   1  18
TORSDOF 3
ENDMDL
