MODEL 1
REMARK VINA RESULT:      -8.2      0.000      0.000
REMARK  Name = 
REMARK  2 active torsions:
REMARK  status: ('A' for Active; 'I' for Inactive)
REMARK    1  A    between atoms: C_7  and  C_8
REMARK    2  A    between atoms: C_8  and  N_9
REMARK                            x       y       z     vdW  Elec       q    Type
REMARK                         _______ _______ _______ _____ _____    ______ ____
ROOT
ATOM      1  C   UNL     1       2.494   7.477  18.895  0.00  0.00    +0.000 C 
ENDROOT
BRANCH   1   8
ATOM      2 CL   UNL     1      -1.732  12.896  22.433  0.00  0.00    +0.000 Cl
ATOM      3  C   UNL     1      -0.892  11.439  22.081  0.00  0.00    +0.000 A 
ATOM      4  C   UNL     1      -0.758  10.430  23.122  0.00  0.00    +0.000 A 
ATOM      5  C   UNL     1      -0.095   9.278  22.891  0.00  0.00    +0.000 A 
ATOM      6  C   UNL     1       0.486   9.026  21.603  0.00  0.00    +0.000 A 
ATOM      7  N   UNL     1       1.198   8.020  21.137  0.00  0.00    +0.000 NA
ATOM      8  C   UNL     1       1.528   8.322  19.810  0.00  0.00    +0.000 A 
ATOM      9  C   UNL     1       0.961   9.569  19.508  0.00  0.00    +0.000 A 
ATOM     10  N   UNL     1       0.332  10.017  20.643  0.00  0.00    +0.000 N 
ATOM     11  C   UNL     1      -0.344  11.208  20.876  0.00  0.00    +0.000 A 
ENDBRANCH   1   8
BRANCH   1  12
ATOM     12  N   UNL     1       3.215   6.203  19.288  0.00  0.00    +0.000 N 
ATOM     13  C   UNL     1       4.433   5.918  18.528  0.00  0.00    +0.000 C 
ATOM     14  C   UNL     1       4.114   5.273  17.183  0.00  0.00    +0.000 C 
ATOM     15  C   UNL     1       3.405   3.961  17.411  0.00  0.00    +0.000 C 
ATOM     16  C   UNL     1       2.216   4.161  18.319  0.00  0.00    +0.000 A 
ATOM     17  C   UNL     1       1.253   3.139  18.331  0.00  0.00    +0.000 A 
ATOM     18  C   UNL     1       0.728   2.735  19.544  0.00  0.00    +0.000 A 
ATOM     19  C   UNL     1       1.169   3.367  20.704  0.00  0.00    +0.000 A 
ATOM     20  C   UNL     1       1.950   4.545  20.633  0.00  0.00    +0.000 A 
ATOM     21  C   UNL     1       2.400   5.039  19.403  0.00  0.00    +0.000 A 
ENDBRANCH   1  12
TORSDOF 2
ENDMDL
MODEL 2
REMARK VINA RESULT:      -7.9      0.867      1.558
REMARK  Name = 
REMARK  2 active torsions:
REMARK  status: ('A' for Active; 'I' for Inactive)
REMARK    1  A    between atoms: C_7  and  C_8
REMARK    2  A    between atoms: C_8  and  N_9
REMARK                            x       y       z     vdW  Elec       q    Type
REMARK                         _______ _______ _______ _____ _____    ______ ____
ROOT
ATOM      1  C   UNL     1       2.641   7.404  18.281  0.00  0.00    +0.000 C 
ENDROOT
BRANCH   1   8
ATOM      2 CL   UNL     1      -1.681  11.585  23.137  0.00  0.00    +0.000 Cl
ATOM      3  C   UNL     1      -0.830  11.046  21.745  0.00  0.00    +0.000 A 
ATOM      4  C   UNL     1      -0.976  11.783  20.497  0.00  0.00    +0.000 A 
ATOM      5  C   UNL     1      -0.336  11.385  19.378  0.00  0.00    +0.000 A 
ATOM      6  C   UNL     1       0.510  10.225  19.404  0.00  0.00    +0.000 A 
ATOM      7  N   UNL     1       1.206   9.619  18.464  0.00  0.00    +0.000 NA
ATOM      8  C   UNL     1       1.824   8.509  19.052  0.00  0.00    +0.000 A 
ATOM      9  C   UNL     1       1.462   8.495  20.408  0.00  0.00    +0.000 A 
ATOM     10  N   UNL     1       0.618   9.557  20.616  0.00  0.00    +0.000 N 
ATOM     11  C   UNL     1      -0.043   9.957  21.771  0.00  0.00    +0.000 A 
ENDBRANCH   1   8
BRANCH   1  12
ATOM     12  N   UNL     1       3.324   6.199  18.898  0.00  0.00    +0.000 N 
ATOM     13  C   UNL     1       4.561   5.780  18.238  0.00  0.00    +0.000 C 
ATOM     14  C   UNL     1       4.275   4.932  17.001  0.00  0.00    +0.000 C 
ATOM     15  C   UNL     1       3.534   3.684  17.410  0.00  0.00    +0.000 C 
ATOM     16  C   UNL     1       2.319   4.042  18.231  0.00  0.00    +0.000 A 
ATOM     17  C   UNL     1       1.337   3.048  18.370  0.00  0.00    +0.000 A 
ATOM     18  C   UNL     1       0.764   2.850  19.613  0.00  0.00    +0.000 A 
ATOM     19  C   UNL     1       1.178   3.654  20.673  0.00  0.00    +0.000 A 
ATOM     20  C   UNL     1       1.983   4.794  20.443  0.00  0.00    +0.000 A 
ATOM     21  C   UNL     1       2.483   5.079  19.167  0.00  0.00    +0.000 A 
ENDBRANCH   1  12
TORSDOF 2
ENDMDL
MODEL 3
REMARK VINA RESULT:      -7.8      1.186      1.450
REMARK  Name = 
REMARK  2 active torsions:
REMARK  status: ('A' for Active; 'I' for Inactive)
REMARK    1  A    between atoms: C_7  and  C_8
REMARK    2  A    between atoms: C_8  and  N_9
REMARK                            x       y       z     vdW  Elec       q    Type
REMARK                         _______ _______ _______ _____ _____    ______ ____
ROOT
ATOM      1  C   UNL     1       3.249   7.056  18.070  0.00  0.00    +0.000 C 
ENDROOT
BRANCH   1   8
ATOM      2 CL   UNL     1      -1.472  12.971  19.640  0.00  0.00    +0.000 Cl
ATOM      3  C   UNL     1      -0.535  11.537  19.776  0.00  0.00    +0.000 A 
ATOM      4  C   UNL     1      -0.413  10.892  21.077  0.00  0.00    +0.000 A 
ATOM      5  C   UNL     1       0.323   9.772  21.229  0.00  0.00    +0.000 A 
ATOM      6  C   UNL     1       0.997   9.192  20.101  0.00  0.00    +0.000 A 
ATOM      7  N   UNL     1       1.789   8.146  19.989  0.00  0.00    +0.000 NA
ATOM      8  C   UNL     1       2.185   8.064  18.648  0.00  0.00    +0.000 A 
ATOM      9  C   UNL     1       1.571   9.124  17.963  0.00  0.00    +0.000 A 
ATOM     10  N   UNL     1       0.850   9.842  18.884  0.00  0.00    +0.000 N 
ATOM     11  C   UNL     1       0.098  10.999  18.720  0.00  0.00    +0.000 A 
ENDBRANCH   1   8
BRANCH   1  12
ATOM     12  N   UNL     1       3.747   5.794  18.745  0.00  0.00    +0.000 N 
ATOM     13  C   UNL     1       4.874   5.136  18.081  0.00  0.00    +0.000 C 
ATOM     14  C   UNL     1       4.407   4.277  16.909  0.00  0.00    +0.000 C 
ATOM     15  C   UNL     1       3.487   3.195  17.416  0.00  0.00    +0.000 C 
ATOM     16  C   UNL     1       2.378   3.797  18.244  0.00  0.00    +0.000 A 
ATOM     17  C   UNL     1       1.252   2.991  18.473  0.00  0.00    +0.000 A 
ATOM     18  C   UNL     1       0.700   2.964  19.740  0.00  0.00    +0.000 A 
ATOM     19  C   UNL     1       1.279   3.749  20.735  0.00  0.00    +0.000 A 
ATOM     20  C   UNL     1       2.251   4.724  20.411  0.00  0.00    +0.000 A 
ATOM     21  C   UNL     1       2.745   4.847  19.107  0.00  0.00    +0.000 A 
ENDBRANCH   1  12
TORSDOF 2
ENDMDL
MODEL 4
REMARK VINA RESULT:      -7.3      1.594      1.944
REMARK  Name = 
REMARK  2 active torsions:
REMARK  status: ('A' for Active; 'I' for Inactive)
REMARK    1  A    between atoms: C_7  and  C_8
REMARK    2  A    between atoms: C_8  and  N_9
REMARK                            x       y       z     vdW  Elec       q    Type
REMARK                         _______ _______ _______ _____ _____    ______ ____
ROOT
ATOM      1  C   UNL     1       3.314   7.477  17.454  0.00  0.00    +0.000 C 
ENDROOT
BRANCH   1   8
ATOM      2 CL   UNL     1      -1.473  11.977  21.526  0.00  0.00    +0.000 Cl
ATOM      3  C   UNL     1      -0.432  10.696  21.048  0.00  0.00    +0.000 A 
ATOM      4  C   UNL     1      -0.055   9.687  22.029  0.00  0.00    +0.000 A 
ATOM      5  C   UNL     1       0.771   8.673  21.699  0.00  0.00    +0.000 A 
ATOM      6  C   UNL     1       1.287   8.569  20.363  0.00  0.00    +0.000 A 
ATOM      7  N   UNL     1       2.119   7.714  19.802  0.00  0.00    +0.000 NA
ATOM      8  C   UNL     1       2.293   8.114  18.472  0.00  0.00    +0.000 A 
ATOM      9  C   UNL     1       1.506   9.258  18.269  0.00  0.00    +0.000 A 
ATOM     10  N   UNL     1       0.899   9.552  19.464  0.00  0.00    +0.000 N 
ATOM     11  C   UNL     1       0.054  10.604  19.799  0.00  0.00    +0.000 A 
ENDBRANCH   1   8
BRANCH   1  12
ATOM     12  N   UNL     1       4.468   6.557  17.798  0.00  0.00    +0.000 N 
ATOM     13  C   UNL     1       5.605   6.613  16.878  0.00  0.00    +0.000 C 
ATOM     14  C   UNL     1       5.357   5.768  15.632  0.00  0.00    +0.000 C 
ATOM     15  C   UNL     1       5.170   4.326  16.033  0.00  0.00    +0.000 C 
ATOM     16  C   UNL     1       4.108   4.213  17.099  0.00  0.00    +0.000 A 
ATOM     17  C   UNL     1       3.558   2.939  17.310  0.00  0.00    +0.000 A 
ATOM     18  C   UNL     1       3.358   2.508  18.609  0.00  0.00    +0.000 A 
ATOM     19  C   UNL     1       3.700   3.363  19.654  0.00  0.00    +0.000 A 
ATOM     20  C   UNL     1       4.020   4.718  19.404  0.00  0.00    +0.000 A 
ATOM     21  C   UNL     1       4.118   5.207  18.096  0.00  0.00    +0.000 A 
ENDBRANCH   1  12
TORSDOF 2
ENDMDL
MODEL 5
REMARK VINA RESULT:      -7.3      1.729      2.408
REMARK  Name = 
REMARK  2 active torsions:
REMARK  status: ('A' for Active; 'I' for Inactive)
REMARK    1  A    between atoms: C_7  and  C_8
REMARK    2  A    between atoms: C_8  and  N_9
REMARK                            x       y       z     vdW  Elec       q    Type
REMARK                         _______ _______ _______ _____ _____    ______ ____
ROOT
ATOM      1  C   UNL     1       3.167   7.142  17.523  0.00  0.00    +0.000 C 
ENDROOT
BRANCH   1   8
ATOM      2 CL   UNL     1      -1.020  10.267  23.219  0.00  0.00    +0.000 Cl
ATOM      3  C   UNL     1      -0.229  10.004  21.717  0.00  0.00    +0.000 A 
ATOM      4  C   UNL     1      -0.466  10.933  20.620  0.00  0.00    +0.000 A 
ATOM      5  C   UNL     1       0.125  10.756  19.420  0.00  0.00    +0.000 A 
ATOM      6  C   UNL     1       1.009   9.644  19.209  0.00  0.00    +0.000 A 
ATOM      7  N   UNL     1       1.672   9.233  18.147  0.00  0.00    +0.000 NA
ATOM      8  C   UNL     1       2.357   8.067  18.509  0.00  0.00    +0.000 A 
ATOM      9  C   UNL     1       2.069   7.811  19.858  0.00  0.00    +0.000 A 
ATOM     10  N   UNL     1       1.204   8.788  20.283  0.00  0.00    +0.000 N 
ATOM     11  C   UNL     1       0.593   8.960  21.520  0.00  0.00    +0.000 A 
ENDBRANCH   1   8
BRANCH   1  12
ATOM     12  N   UNL     1       4.383   6.307  17.872  0.00  0.00    +0.000 N 
ATOM     13  C   UNL     1       5.504   6.420  16.938  0.00  0.00    +0.000 C 
ATOM     14  C   UNL     1       5.300   5.536  15.711  0.00  0.00    +0.000 C 
ATOM     15  C   UNL     1       5.214   4.093  16.142  0.00  0.00    +0.000 C 
ATOM     16  C   UNL     1       4.173   3.931  17.222  0.00  0.00    +0.000 A 
ATOM     17  C   UNL     1       3.711   2.628  17.463  0.00  0.00    +0.000 A 
ATOM     18  C   UNL     1       3.554   2.210  18.772  0.00  0.00    +0.000 A 
ATOM     19  C   UNL     1       3.848   3.106  19.797  0.00  0.00    +0.000 A 
ATOM     20  C   UNL     1       4.074   4.474  19.517  0.00  0.00    +0.000 A 
ATOM     21  C   UNL     1       4.126   4.943  18.199  0.00  0.00    +0.000 A 
ENDBRANCH   1  12
TORSDOF 2
ENDMDL
MODEL 6
REMARK VINA RESULT:      -7.3      1.839      2.540
REMARK  Name = 
REMARK  2 active torsions:
REMARK  status: ('A' for Active; 'I' for Inactive)
REMARK    1  A    between atoms: C_7  and  C_8
REMARK    2  A    between atoms: C_8  and  N_9
REMARK                            x       y       z     vdW  Elec       q    Type
REMARK                         _______ _______ _______ _____ _____    ______ ____
ROOT
ATOM      1  C   UNL     1       4.345   5.637  18.409  0.00  0.00    +0.000 C 
ENDROOT
BRANCH   1   8
ATOM      2 CL   UNL     1      -0.472  11.671  18.767  0.00  0.00    +0.000 Cl
ATOM      3  C   UNL     1       0.401  10.241  19.151  0.00  0.00    +0.000 A 
ATOM      4  C   UNL     1       0.281   9.677  20.489  0.00  0.00    +0.000 A 
ATOM      5  C   UNL     1       0.960   8.564  20.836  0.00  0.00    +0.000 A 
ATOM      6  C   UNL     1       1.810   7.910  19.880  0.00  0.00    +0.000 A 
ATOM      7  N   UNL     1       2.591   6.853  19.972  0.00  0.00    +0.000 NA
ATOM      8  C   UNL     1       3.214   6.686  18.729  0.00  0.00    +0.000 A 
ATOM      9  C   UNL     1       2.749   7.706  17.885  0.00  0.00    +0.000 A 
ATOM     10  N   UNL     1       1.890   8.484  18.620  0.00  0.00    +0.000 N 
ATOM     11  C   UNL     1       1.200   9.635  18.258  0.00  0.00    +0.000 A 
ENDBRANCH   1   8
BRANCH   1  12
ATOM     12  N   UNL     1       4.267   4.139  18.629  0.00  0.00    +0.000 N 
ATOM     13  C   UNL     1       4.323   3.328  17.411  0.00  0.00    +0.000 C 
ATOM     14  C   UNL     1       2.962   3.257  16.725  0.00  0.00    +0.000 C 
ATOM     15  C   UNL     1       1.966   2.610  17.654  0.00  0.00    +0.000 C 
ATOM     16  C   UNL     1       1.968   3.309  18.991  0.00  0.00    +0.000 A 
ATOM     17  C   UNL     1       0.861   3.080  19.825  0.00  0.00    +0.000 A 
ATOM     18  C   UNL     1       1.079   2.857  21.172  0.00  0.00    +0.000 A 
ATOM     19  C   UNL     1       2.388   2.880  21.648  0.00  0.00    +0.000 A 
ATOM     20  C   UNL     1       3.444   3.350  20.833  0.00  0.00    +0.000 A 
ATOM     21  C   UNL     1       3.226   3.691  19.493  0.00  0.00    +0.000 A 
ENDBRANCH   1  12
TORSDOF 2
ENDMDL
MODEL 7
REMARK VINA RESULT:      -7.3      1.852      3.168
REMARK  Name = 
REMARK  2 active torsions:
REMARK  status: ('A' for Active; 'I' for Inactive)
REMARK    1  A    between atoms: C_7  and  C_8
REMARK    2  A    between atoms: C_8  and  N_9
REMARK                            x       y       z     vdW  Elec       q    Type
REMARK                         _______ _______ _______ _____ _____    ______ ____
ROOT
ATOM      1  C   UNL     1       4.216   5.281  18.229  0.00  0.00    +0.000 C 
ENDROOT
BRANCH   1   8
ATOM      2 CL   UNL     1      -0.583  10.703  20.934  0.00  0.00    +0.000 Cl
ATOM      3  C   UNL     1       0.525   9.834  19.949  0.00  0.00    +0.000 A 
ATOM      4  C   UNL     1       0.845  10.345  18.623  0.00  0.00    +0.000 A 
ATOM      5  C   UNL     1       1.700   9.687  17.813  0.00  0.00    +0.000 A 
ATOM      6  C   UNL     1       2.317   8.468  18.255  0.00  0.00    +0.000 A 
ATOM      7  N   UNL     1       3.144   7.631  17.660  0.00  0.00    +0.000 NA
ATOM      8  C   UNL     1       3.397   6.587  18.557  0.00  0.00    +0.000 A 
ATOM      9  C   UNL     1       2.677   6.856  19.731  0.00  0.00    +0.000 A 
ATOM     10  N   UNL     1       1.983   8.022  19.525  0.00  0.00    +0.000 N 
ATOM     11  C   UNL     1       1.098   8.691  20.362  0.00  0.00    +0.000 A 
ENDBRANCH   1   8
BRANCH   1  12
ATOM     12  N   UNL     1       3.676   3.864  18.214  0.00  0.00    +0.000 N 
ATOM     13  C   UNL     1       2.826   3.534  17.069  0.00  0.00    +0.000 C 
ATOM     14  C   UNL     1       1.398   4.031  17.272  0.00  0.00    +0.000 C 
ATOM     15  C   UNL     1       0.803   3.363  18.486  0.00  0.00    +0.000 C 
ATOM     16  C   UNL     1       1.712   3.537  19.678  0.00  0.00    +0.000 A 
ATOM     17  C   UNL     1       1.146   3.307  20.942  0.00  0.00    +0.000 A 
ATOM     18  C   UNL     1       1.871   2.588  21.874  0.00  0.00    +0.000 A 
ATOM     19  C   UNL     1       3.139   2.132  21.522  0.00  0.00    +0.000 A 
ATOM     20  C   UNL     1       3.768   2.587  20.340  0.00  0.00    +0.000 A 
ATOM     21  C   UNL     1       3.092   3.410  19.433  0.00  0.00    +0.000 A 
ENDBRANCH   1  12
TORSDOF 2
ENDMDL
MODEL 8
REMARK VINA RESULT:      -7.2      4.430      6.273
REMARK  Name = 
REMARK  2 active torsions:
REMARK  status: ('A' for Active; 'I' for Inactive)
REMARK    1  A    between atoms: C_7  and  C_8
REMARK    2  A    between atoms: C_8  and  N_9
REMARK                            x       y       z     vdW  Elec       q    Type
REMARK                         _______ _______ _______ _____ _____    ______ ____
ROOT
ATOM      1  C   UNL     1       3.855   7.096  16.998  0.00  0.00    +0.000 C 
ENDROOT
BRANCH   1   8
ATOM      2 CL   UNL     1       1.197   2.333  22.475  0.00  0.00    +0.000 Cl
ATOM      3  C   UNL     1       1.483   3.103  20.965  0.00  0.00    +0.000 A 
ATOM      4  C   UNL     1       0.925   2.516  19.754  0.00  0.00    +0.000 A 
ATOM      5  C   UNL     1       1.136   3.081  18.548  0.00  0.00    +0.000 A 
ATOM      6  C   UNL     1       1.914   4.283  18.441  0.00  0.00    +0.000 A 
ATOM      7  N   UNL     1       2.290   5.002  17.402  0.00  0.00    +0.000 NA
ATOM      8  C   UNL     1       3.068   6.060  17.887  0.00  0.00    +0.000 A 
ATOM      9  C   UNL     1       3.126   5.935  19.284  0.00  0.00    +0.000 A 
ATOM     10  N   UNL     1       2.424   4.805  19.621  0.00  0.00    +0.000 N 
ATOM     11  C   UNL     1       2.215   4.225  20.867  0.00  0.00    +0.000 A 
ENDBRANCH   1   8
BRANCH   1  12
ATOM     12  N   UNL     1       5.224   6.891  16.380  0.00  0.00    +0.000 N 
ATOM     13  C   UNL     1       5.267   5.943  15.265  0.00  0.00    +0.000 C 
ATOM     14  C   UNL     1       5.320   4.501  15.760  0.00  0.00    +0.000 C 
ATOM     15  C   UNL     1       6.572   4.297  16.577  0.00  0.00    +0.000 C 
ATOM     16  C   UNL     1       6.666   5.344  17.659  0.00  0.00    +0.000 A 
ATOM     17  C   UNL     1       7.551   5.080  18.717  0.00  0.00    +0.000 A 
ATOM     18  C   UNL     1       8.360   6.103  19.177  0.00  0.00    +0.000 A 
ATOM     19  C   UNL     1       8.254   7.356  18.578  0.00  0.00    +0.000 A 
ATOM     20  C   UNL     1       7.192   7.645  17.691  0.00  0.00    +0.000 A 
ATOM     21  C   UNL     1       6.289   6.651  17.297  0.00  0.00    +0.000 A 
ENDBRANCH   1  12
TORSDOF 2
ENDMDL
MODEL 9
REMARK VINA RESULT:      -7.1      2.451      4.635
REMARK  Name = 
REMARK  2 active torsions:
REMARK  status: ('A' for Active; 'I' for Inactive)
REMARK    1  A    between atoms: C_7  and  C_8
REMARK    2  A    between atoms: C_8  and  N_9
REMARK                            x       y       z     vdW  Elec       q    Type
REMARK                         _______ _______ _______ _____ _____    ______ ____
ROOT
ATOM      1  C   UNL     1       3.652   5.828  17.419  0.00  0.00    +0.000 C 
ENDROOT
BRANCH   1   8
ATOM      2 CL   UNL     1      -0.309   9.832  22.712  0.00  0.00    +0.000 Cl
ATOM      3  C   UNL     1       0.509   9.376  21.271  0.00  0.00    +0.000 A 
ATOM      4  C   UNL     1       0.464  10.267  20.119  0.00  0.00    +0.000 A 
ATOM      5  C   UNL     1       1.081   9.940  18.965  0.00  0.00    +0.000 A 
ATOM      6  C   UNL     1       1.803   8.703  18.858  0.00  0.00    +0.000 A 
ATOM      7  N   UNL     1       2.450   8.143  17.856  0.00  0.00    +0.000 NA
ATOM      8  C   UNL     1       2.939   6.913  18.311  0.00  0.00    +0.000 A 
ATOM      9  C   UNL     1       2.551   6.776  19.653  0.00  0.00    +0.000 A 
ATOM     10  N   UNL     1       1.817   7.889  19.981  0.00  0.00    +0.000 N 
ATOM     11  C   UNL     1       1.178   8.216  21.171  0.00  0.00    +0.000 A 
ENDBRANCH   1   8
BRANCH   1  12
ATOM     12  N   UNL     1       4.870   6.046  16.543  0.00  0.00    +0.000 N 
ATOM     13  C   UNL     1       5.217   4.924  15.669  0.00  0.00    +0.000 C 
ATOM     14  C   UNL     1       6.002   3.853  16.421  0.00  0.00    +0.000 C 
ATOM     15  C   UNL     1       7.291   4.443  16.933  0.00  0.00    +0.000 C 
ATOM     16  C   UNL     1       7.014   5.699  17.723  0.00  0.00    +0.000 A 
ATOM     17  C   UNL     1       8.041   6.154  18.565  0.00  0.00    +0.000 A 
ATOM     18  C   UNL     1       8.324   7.507  18.596  0.00  0.00    +0.000 A 
ATOM     19  C   UNL     1       7.570   8.364  17.798  0.00  0.00    +0.000 A 
ATOM     20  C   UNL     1       6.396   7.905  17.155  0.00  0.00    +0.000 A 
ATOM     21  C   UNL     1       6.026   6.556  17.203  0.00  0.00    +0.000 A 
ENDBRANCH   1  12
TORSDOF 2
ENDMDL
