MODEL 1
REMARK VINA RESULT:      -9.2      0.000      0.000
REMARK  Name = 
REMARK  4 active torsions:
REMARK  status: ('A' for Active; 'I' for Inactive)
REMARK    1  A    between atoms: C_7  and  C_8
REMARK    2  A    between atoms: N_11  and  C_12
REMARK    3  A    between atoms: C_12  and  C_13
REMARK    4  A    between atoms: C_16  and  C_17
REMARK                            x       y       z     vdW  Elec       q    Type
REMARK                         _______ _______ _______ _____ _____    ______ ____
ROOT
ATOM      1  C   UNL     1       4.515   4.864  17.573  0.00  0.00    +0.000 A 
ATOM      2  N   UNL     1       3.803   5.977  17.775  0.00  0.00    +0.000 NA
ATOM      3  C   UNL     1       2.957   6.029  18.818  0.00  0.00    +0.000 A 
ATOM      4  N   UNL     1       2.279   7.251  19.058  0.00  0.00    +0.000 N 
ATOM      5  C   UNL     1       2.793   4.929  19.681  0.00  0.00    +0.000 A 
ATOM      6  C   UNL     1       1.921   4.871  20.800  0.00  0.00    +0.000 A 
ATOM      7  C   UNL     1       1.840   3.720  21.587  0.00  0.00    +0.000 A 
ATOM      8  C   UNL     1       2.631   2.623  21.276  0.00  0.00    +0.000 A 
ATOM      9  C   UNL     1       3.488   2.680  20.176  0.00  0.00    +0.000 A 
ATOM     10  C   UNL     1       3.577   3.809  19.372  0.00  0.00    +0.000 A 
ATOM     11  N   UNL     1       4.418   3.766  18.337  0.00  0.00    +0.000 NA
ATOM     12  H   UNL     1       1.293   7.078  19.210  0.00  0.00    +0.000 HD
ENDROOT
BRANCH   1  19
ATOM     13 CL   UNL     1       7.538   5.960  17.737  0.00  0.00    +0.000 Cl
ATOM     14  C   UNL     1       6.721   5.291  16.362  0.00  0.00    +0.000 A 
ATOM     15  C   UNL     1       7.490   5.221  15.188  0.00  0.00    +0.000 A 
ATOM     16  C   UNL     1       6.971   4.648  14.030  0.00  0.00    +0.000 A 
ATOM     17  C   UNL     1       5.681   4.137  14.038  0.00  0.00    +0.000 A 
ATOM     18  C   UNL     1       4.910   4.214  15.202  0.00  0.00    +0.000 A 
ATOM     19  C   UNL     1       5.400   4.798  16.395  0.00  0.00    +0.000 A 
ENDBRANCH   1  19
BRANCH   4  20
ATOM     20  C   UNL     1       2.515   8.238  18.001  0.00  0.00    +0.000 C 
BRANCH  20  21
ATOM     21  C   UNL     1       1.804   9.544  18.277  0.00  0.00    +0.000 A 
ATOM     22  C   UNL     1       0.583   9.564  18.961  0.00  0.00    +0.000 A 
ATOM     23  C   UNL     1      -0.021  10.780  19.315  0.00  0.00    +0.000 A 
ATOM     24  C   UNL     1       0.574  12.014  19.003  0.00  0.00    +0.000 A 
ATOM     25  C   UNL     1       1.797  11.976  18.307  0.00  0.00    +0.000 A 
ATOM     26  C   UNL     1       2.401  10.764  17.948  0.00  0.00    +0.000 A 
BRANCH  24  27
ATOM     27  C   UNL     1      -0.043  13.298  19.401  0.00  0.00    +0.000 A 
ATOM     28  C   UNL     1       0.520  14.540  19.071  0.00  0.00    +0.000 A 
ATOM     29  C   UNL     1      -0.099  15.730  19.457  0.00  0.00    +0.000 A 
ATOM     30  C   UNL     1      -1.284  15.656  20.166  0.00  0.00    +0.000 A 
ATOM     31  N   UNL     1      -1.873  14.494  20.509  0.00  0.00    +0.000 NA
ATOM     32  C   UNL     1      -1.239  13.357  20.125  0.00  0.00    +0.000 A 
ENDBRANCH  24  27
ENDBRANCH  20  21
ENDBRANCH   4  20
TORSDOF 4
ENDMDL
MODEL 2
REMARK VINA RESULT:      -9.1      3.532     10.246
REMARK  Name = 
REMARK  4 active torsions:
REMARK  status: ('A' for Active; 'I' for Inactive)
REMARK    1  A    between atoms: C_7  and  C_8
REMARK    2  A    between atoms: N_11  and  C_12
REMARK    3  A    between atoms: C_12  and  C_13
REMARK    4  A    between atoms: C_16  and  C_17
REMARK                            x       y       z     vdW  Elec       q    Type
REMARK                         _______ _______ _______ _____ _____    ______ ____
ROOT
ATOM      1  C   UNL     1      -1.906  12.204  19.948  0.00  0.00    +0.000 A 
ATOM      2  N   UNL     1      -0.848  11.555  19.452  0.00  0.00    +0.000 NA
ATOM      3  C   UNL     1      -0.968  10.922  18.272  0.00  0.00    +0.000 A 
ATOM      4  N   UNL     1       0.192  10.315  17.729  0.00  0.00    +0.000 N 
ATOM      5  C   UNL     1      -2.187  10.911  17.570  0.00  0.00    +0.000 A 
ATOM      6  C   UNL     1      -2.428  10.265  16.328  0.00  0.00    +0.000 A 
ATOM      7  C   UNL     1      -3.685  10.321  15.722  0.00  0.00    +0.000 A 
ATOM      8  C   UNL     1      -4.709  11.027  16.337  0.00  0.00    +0.000 A 
ATOM      9  C   UNL     1      -4.473  11.662  17.557  0.00  0.00    +0.000 A 
ATOM     10  C   UNL     1      -3.235  11.611  18.185  0.00  0.00    +0.000 A 
ATOM     11  N   UNL     1      -3.107  12.241  19.355  0.00  0.00    +0.000 NA
ATOM     12  H   UNL     1      -0.019   9.373  17.422  0.00  0.00    +0.000 HD
ENDROOT
BRANCH   1  19
ATOM     13 CL   UNL     1       0.276  14.523  20.429  0.00  0.00    +0.000 Cl
ATOM     14  C   UNL     1      -0.826  13.842  21.582  0.00  0.00    +0.000 A 
ATOM     15  C   UNL     1      -0.747  14.386  22.875  0.00  0.00    +0.000 A 
ATOM     16  C   UNL     1      -1.619  13.970  23.878  0.00  0.00    +0.000 A 
ATOM     17  C   UNL     1      -2.580  13.010  23.593  0.00  0.00    +0.000 A 
ATOM     18  C   UNL     1      -2.654  12.460  22.310  0.00  0.00    +0.000 A 
ATOM     19  C   UNL     1      -1.778  12.851  21.268  0.00  0.00    +0.000 A 
ENDBRANCH   1  19
BRANCH   4  20
ATOM     20  C   UNL     1       1.330  10.358  18.650  0.00  0.00    +0.000 C 
BRANCH  20  21
ATOM     21  C   UNL     1       1.767   8.973  19.076  0.00  0.00    +0.000 A 
ATOM     22  C   UNL     1       1.440   8.478  20.344  0.00  0.00    +0.000 A 
ATOM     23  C   UNL     1       1.747   7.156  20.698  0.00  0.00    +0.000 A 
ATOM     24  C   UNL     1       2.386   6.285  19.800  0.00  0.00    +0.000 A 
ATOM     25  C   UNL     1       2.717   6.802  18.534  0.00  0.00    +0.000 A 
ATOM     26  C   UNL     1       2.416   8.122  18.178  0.00  0.00    +0.000 A 
BRANCH  24  27
ATOM     27  C   UNL     1       2.685   4.880  20.158  0.00  0.00    +0.000 A 
ATOM     28  C   UNL     1       1.979   4.188  21.153  0.00  0.00    +0.000 A 
ATOM     29  C   UNL     1       2.285   2.861  21.455  0.00  0.00    +0.000 A 
ATOM     30  C   UNL     1       3.297   2.241  20.745  0.00  0.00    +0.000 A 
ATOM     31  N   UNL     1       4.008   2.853  19.778  0.00  0.00    +0.000 NA
ATOM     32  C   UNL     1       3.689   4.147  19.517  0.00  0.00    +0.000 A 
ENDBRANCH  24  27
ENDBRANCH  20  21
ENDBRANCH   4  20
TORSDOF 4
ENDMDL
MODEL 3
REMARK VINA RESULT:      -9.0      5.174      7.520
REMARK  Name = 
REMARK  4 active torsions:
REMARK  status: ('A' for Active; 'I' for Inactive)
REMARK    1  A    between atoms: C_7  and  C_8
REMARK    2  A    between atoms: N_11  and  C_12
REMARK    3  A    between atoms: C_12  and  C_13
REMARK    4  A    between atoms: C_16  and  C_17
REMARK                            x       y       z     vdW  Elec       q    Type
REMARK                         _______ _______ _______ _____ _____    ______ ____
ROOT
ATOM      1  C   UNL     1       4.853   4.807  17.489  0.00  0.00    +0.000 A 
ATOM      2  N   UNL     1       5.881   5.639  17.683  0.00  0.00    +0.000 NA
ATOM      3  C   UNL     1       6.748   5.848  16.677  0.00  0.00    +0.000 A 
ATOM      4  N   UNL     1       7.778   6.799  16.882  0.00  0.00    +0.000 N 
ATOM      5  C   UNL     1       6.605   5.190  15.441  0.00  0.00    +0.000 A 
ATOM      6  C   UNL     1       7.467   5.326  14.320  0.00  0.00    +0.000 A 
ATOM      7  C   UNL     1       7.226   4.618  13.141  0.00  0.00    +0.000 A 
ATOM      8  C   UNL     1       6.124   3.780  13.060  0.00  0.00    +0.000 A 
ATOM      9  C   UNL     1       5.276   3.646  14.161  0.00  0.00    +0.000 A 
ATOM     10  C   UNL     1       5.501   4.330  15.349  0.00  0.00    +0.000 A 
ATOM     11  N   UNL     1       4.642   4.131  16.350  0.00  0.00    +0.000 NA
ATOM     12  H   UNL     1       8.669   6.416  16.592  0.00  0.00    +0.000 HD
ENDROOT
BRANCH   1  19
ATOM     13 CL   UNL     1       2.650   6.991  18.349  0.00  0.00    +0.000 Cl
ATOM     14  C   UNL     1       2.973   5.457  19.089  0.00  0.00    +0.000 A 
ATOM     15  C   UNL     1       2.160   5.144  20.191  0.00  0.00    +0.000 A 
ATOM     16  C   UNL     1       2.277   3.915  20.836  0.00  0.00    +0.000 A 
ATOM     17  C   UNL     1       3.204   2.989  20.381  0.00  0.00    +0.000 A 
ATOM     18  C   UNL     1       4.021   3.302  19.290  0.00  0.00    +0.000 A 
ATOM     19  C   UNL     1       3.938   4.544  18.616  0.00  0.00    +0.000 A 
ENDBRANCH   1  19
BRANCH   4  20
ATOM     20  C   UNL     1       7.809   7.303  18.257  0.00  0.00    +0.000 C 
BRANCH  20  21
ATOM     21  C   UNL     1       8.208   8.762  18.317  0.00  0.00    +0.000 A 
ATOM     22  C   UNL     1       9.142   9.209  19.258  0.00  0.00    +0.000 A 
ATOM     23  C   UNL     1       9.596  10.536  19.242  0.00  0.00    +0.000 A 
ATOM     24  C   UNL     1       9.136  11.459  18.287  0.00  0.00    +0.000 A 
ATOM     25  C   UNL     1       8.190  10.995  17.355  0.00  0.00    +0.000 A 
ATOM     26  C   UNL     1       7.732   9.671  17.370  0.00  0.00    +0.000 A 
BRANCH  24  27
ATOM     27  C   UNL     1       9.634  12.852  18.247  0.00  0.00    +0.000 A 
ATOM     28  C   UNL     1      10.564  13.294  17.295  0.00  0.00    +0.000 A 
ATOM     29  C   UNL     1      11.001  14.619  17.284  0.00  0.00    +0.000 A 
ATOM     30  C   UNL     1      10.491  15.488  18.231  0.00  0.00    +0.000 A 
ATOM     31  N   UNL     1       9.595  15.122  19.168  0.00  0.00    +0.000 NA
ATOM     32  C   UNL     1       9.198  13.824  19.154  0.00  0.00    +0.000 A 
ENDBRANCH  24  27
ENDBRANCH  20  21
ENDBRANCH   4  20
TORSDOF 4
ENDMDL
MODEL 4
REMARK VINA RESULT:      -8.9      5.039      7.486
REMARK  Name = 
REMARK  4 active torsions:
REMARK  status: ('A' for Active; 'I' for Inactive)
REMARK    1  A    between atoms: C_7  and  C_8
REMARK    2  A    between atoms: N_11  and  C_12
REMARK    3  A    between atoms: C_12  and  C_13
REMARK    4  A    between atoms: C_16  and  C_17
REMARK                            x       y       z     vdW  Elec       q    Type
REMARK                         _______ _______ _______ _____ _____    ______ ____
ROOT
ATOM      1  C   UNL     1       4.809   4.979  17.487  0.00  0.00    +0.000 A 
ATOM      2  N   UNL     1       5.832   5.820  17.669  0.00  0.00    +0.000 NA
ATOM      3  C   UNL     1       6.715   5.996  16.672  0.00  0.00    +0.000 A 
ATOM      4  N   UNL     1       7.740   6.957  16.861  0.00  0.00    +0.000 N 
ATOM      5  C   UNL     1       6.595   5.295  15.457  0.00  0.00    +0.000 A 
ATOM      6  C   UNL     1       7.476   5.394  14.347  0.00  0.00    +0.000 A 
ATOM      7  C   UNL     1       7.256   4.646  13.189  0.00  0.00    +0.000 A 
ATOM      8  C   UNL     1       6.157   3.803  13.118  0.00  0.00    +0.000 A 
ATOM      9  C   UNL     1       5.291   3.705  14.209  0.00  0.00    +0.000 A 
ATOM     10  C   UNL     1       5.495   4.430  15.376  0.00  0.00    +0.000 A 
ATOM     11  N   UNL     1       4.619   4.264  16.369  0.00  0.00    +0.000 NA
ATOM     12  H   UNL     1       8.637   6.565  16.600  0.00  0.00    +0.000 HD
ENDROOT
BRANCH   1  19
ATOM     13 CL   UNL     1       2.662   7.234  18.305  0.00  0.00    +0.000 Cl
ATOM     14  C   UNL     1       2.933   5.698  19.062  0.00  0.00    +0.000 A 
ATOM     15  C   UNL     1       2.100   5.419  20.159  0.00  0.00    +0.000 A 
ATOM     16  C   UNL     1       2.175   4.193  20.816  0.00  0.00    +0.000 A 
ATOM     17  C   UNL     1       3.079   3.237  20.378  0.00  0.00    +0.000 A 
ATOM     18  C   UNL     1       3.916   3.516  19.293  0.00  0.00    +0.000 A 
ATOM     19  C   UNL     1       3.875   4.753  18.607  0.00  0.00    +0.000 A 
ENDBRANCH   1  19
BRANCH   4  20
ATOM     20  C   UNL     1       7.747   7.508  18.218  0.00  0.00    +0.000 C 
BRANCH  20  21
ATOM     21  C   UNL     1       8.295   8.918  18.255  0.00  0.00    +0.000 A 
ATOM     22  C   UNL     1       7.807   9.898  17.384  0.00  0.00    +0.000 A 
ATOM     23  C   UNL     1       8.233  11.230  17.492  0.00  0.00    +0.000 A 
ATOM     24  C   UNL     1       9.157  11.628  18.473  0.00  0.00    +0.000 A 
ATOM     25  C   UNL     1       9.646  10.628  19.334  0.00  0.00    +0.000 A 
ATOM     26  C   UNL     1       9.225   9.296  19.227  0.00  0.00    +0.000 A 
BRANCH  24  27
ATOM     27  C   UNL     1       9.588  13.037  18.611  0.00  0.00    +0.000 A 
ATOM     28  C   UNL     1      10.764  13.405  19.281  0.00  0.00    +0.000 A 
ATOM     29  C   UNL     1      11.140  14.745  19.381  0.00  0.00    +0.000 A 
ATOM     30  C   UNL     1      10.330  15.701  18.797  0.00  0.00    +0.000 A 
ATOM     31  N   UNL     1       9.192  15.409  18.139  0.00  0.00    +0.000 NA
ATOM     32  C   UNL     1       8.852  14.096  18.069  0.00  0.00    +0.000 A 
ENDBRANCH  24  27
ENDBRANCH  20  21
ENDBRANCH   4  20
TORSDOF 4
ENDMDL
MODEL 5
REMARK VINA RESULT:      -8.9      1.783      2.164
REMARK  Name = 
REMARK  4 active torsions:
REMARK  status: ('A' for Active; 'I' for Inactive)
REMARK    1  A    between atoms: C_7  and  C_8
REMARK    2  A    between atoms: N_11  and  C_12
REMARK    3  A    between atoms: C_12  and  C_13
REMARK    4  A    between atoms: C_16  and  C_17
REMARK                            x       y       z     vdW  Elec       q    Type
REMARK                         _______ _______ _______ _____ _____    ______ ____
ROOT
ATOM      1  C   UNL     1       4.577   4.757  17.949  0.00  0.00    +0.000 A 
ATOM      2  N   UNL     1       3.843   5.819  18.295  0.00  0.00    +0.000 NA
ATOM      3  C   UNL     1       3.050   5.738  19.377  0.00  0.00    +0.000 A 
ATOM      4  N   UNL     1       2.349   6.906  19.770  0.00  0.00    +0.000 N 
ATOM      5  C   UNL     1       2.963   4.554  20.132  0.00  0.00    +0.000 A 
ATOM      6  C   UNL     1       2.152   4.355  21.281  0.00  0.00    +0.000 A 
ATOM      7  C   UNL     1       2.146   3.130  21.951  0.00  0.00    +0.000 A 
ATOM      8  C   UNL     1       2.953   2.098  21.495  0.00  0.00    +0.000 A 
ATOM      9  C   UNL     1       3.751   2.292  20.366  0.00  0.00    +0.000 A 
ATOM     10  C   UNL     1       3.765   3.498  19.676  0.00  0.00    +0.000 A 
ATOM     11  N   UNL     1       4.553   3.587  18.602  0.00  0.00    +0.000 NA
ATOM     12  H   UNL     1       1.377   6.684  19.951  0.00  0.00    +0.000 HD
ENDROOT
BRANCH   1  19
ATOM     13 CL   UNL     1       7.358   6.380  17.963  0.00  0.00    +0.000 Cl
ATOM     14  C   UNL     1       6.610   5.561  16.630  0.00  0.00    +0.000 A 
ATOM     15  C   UNL     1       7.323   5.618  15.421  0.00  0.00    +0.000 A 
ATOM     16  C   UNL     1       6.861   4.949  14.290  0.00  0.00    +0.000 A 
ATOM     17  C   UNL     1       5.686   4.214  14.362  0.00  0.00    +0.000 A 
ATOM     18  C   UNL     1       4.970   4.164  15.563  0.00  0.00    +0.000 A 
ATOM     19  C   UNL     1       5.403   4.839  16.729  0.00  0.00    +0.000 A 
ENDBRANCH   1  19
BRANCH   4  20
ATOM     20  C   UNL     1       2.500   8.000  18.807  0.00  0.00    +0.000 C 
BRANCH  20  21
ATOM     21  C   UNL     1       1.293   8.912  18.792  0.00  0.00    +0.000 A 
ATOM     22  C   UNL     1       0.555   9.103  17.619  0.00  0.00    +0.000 A 
ATOM     23  C   UNL     1      -0.627   9.858  17.630  0.00  0.00    +0.000 A 
ATOM     24  C   UNL     1      -1.112  10.445  18.811  0.00  0.00    +0.000 A 
ATOM     25  C   UNL     1      -0.352  10.252  19.979  0.00  0.00    +0.000 A 
ATOM     26  C   UNL     1       0.830   9.502  19.972  0.00  0.00    +0.000 A 
BRANCH  24  27
ATOM     27  C   UNL     1      -2.374  11.218  18.834  0.00  0.00    +0.000 A 
ATOM     28  C   UNL     1      -3.358  11.087  17.843  0.00  0.00    +0.000 A 
ATOM     29  C   UNL     1      -4.540  11.827  17.907  0.00  0.00    +0.000 A 
ATOM     30  C   UNL     1      -4.720  12.687  18.974  0.00  0.00    +0.000 A 
ATOM     31  N   UNL     1      -3.813  12.854  19.956  0.00  0.00    +0.000 NA
ATOM     32  C   UNL     1      -2.672  12.124  19.857  0.00  0.00    +0.000 A 
ENDBRANCH  24  27
ENDBRANCH  20  21
ENDBRANCH   4  20
TORSDOF 4
ENDMDL
MODEL 6
REMARK VINA RESULT:      -8.9      3.511     10.363
REMARK  Name = 
REMARK  4 active torsions:
REMARK  status: ('A' for Active; 'I' for Inactive)
REMARK    1  A    between atoms: C_7  and  C_8
REMARK    2  A    between atoms: N_11  and  C_12
REMARK    3  A    between atoms: C_12  and  C_13
REMARK    4  A    between atoms: C_16  and  C_17
REMARK                            x       y       z     vdW  Elec       q    Type
REMARK                         _______ _______ _______ _____ _____    ______ ____
ROOT
ATOM      1  C   UNL     1      -1.905  12.098  19.848  0.00  0.00    +0.000 A 
ATOM      2  N   UNL     1      -0.875  11.392  19.371  0.00  0.00    +0.000 NA
ATOM      3  C   UNL     1      -0.993  10.797  18.172  0.00  0.00    +0.000 A 
ATOM      4  N   UNL     1       0.143  10.127  17.653  0.00  0.00    +0.000 N 
ATOM      5  C   UNL     1      -2.184  10.885  17.427  0.00  0.00    +0.000 A 
ATOM      6  C   UNL     1      -2.422  10.287  16.161  0.00  0.00    +0.000 A 
ATOM      7  C   UNL     1      -3.649  10.442  15.514  0.00  0.00    +0.000 A 
ATOM      8  C   UNL     1      -4.646  11.200  16.111  0.00  0.00    +0.000 A 
ATOM      9  C   UNL     1      -4.413  11.788  17.356  0.00  0.00    +0.000 A 
ATOM     10  C   UNL     1      -3.205  11.639  18.024  0.00  0.00    +0.000 A 
ATOM     11  N   UNL     1      -3.078  12.230  19.214  0.00  0.00    +0.000 NA
ATOM     12  H   UNL     1      -0.119   9.209  17.314  0.00  0.00    +0.000 HD
ENDROOT
BRANCH   1  19
ATOM     13 CL   UNL     1      -0.652  15.043  20.206  0.00  0.00    +0.000 Cl
ATOM     14  C   UNL     1      -1.211  13.966  21.445  0.00  0.00    +0.000 A 
ATOM     15  C   UNL     1      -1.101  14.458  22.756  0.00  0.00    +0.000 A 
ATOM     16  C   UNL     1      -1.571  13.716  23.837  0.00  0.00    +0.000 A 
ATOM     17  C   UNL     1      -2.157  12.479  23.614  0.00  0.00    +0.000 A 
ATOM     18  C   UNL     1      -2.258  11.982  22.310  0.00  0.00    +0.000 A 
ATOM     19  C   UNL     1      -1.783  12.703  21.188  0.00  0.00    +0.000 A 
ENDBRANCH   1  19
BRANCH   4  20
ATOM     20  C   UNL     1       1.247  10.071  18.615  0.00  0.00    +0.000 C 
BRANCH  20  21
ATOM     21  C   UNL     1       1.668   8.649  18.913  0.00  0.00    +0.000 A 
ATOM     22  C   UNL     1       2.318   7.877  17.943  0.00  0.00    +0.000 A 
ATOM     23  C   UNL     1       2.808   6.600  18.253  0.00  0.00    +0.000 A 
ATOM     24  C   UNL     1       2.669   6.053  19.540  0.00  0.00    +0.000 A 
ATOM     25  C   UNL     1       2.004   6.837  20.500  0.00  0.00    +0.000 A 
ATOM     26  C   UNL     1       1.510   8.112  20.193  0.00  0.00    +0.000 A 
BRANCH  24  27
ATOM     27  C   UNL     1       3.210   4.718  19.881  0.00  0.00    +0.000 A 
ATOM     28  C   UNL     1       2.552   3.836  20.751  0.00  0.00    +0.000 A 
ATOM     29  C   UNL     1       3.091   2.582  21.039  0.00  0.00    +0.000 A 
ATOM     30  C   UNL     1       4.286   2.226  20.442  0.00  0.00    +0.000 A 
ATOM     31  N   UNL     1       4.962   3.028  19.597  0.00  0.00    +0.000 NA
ATOM     32  C   UNL     1       4.413   4.244  19.346  0.00  0.00    +0.000 A 
ENDBRANCH  24  27
ENDBRANCH  20  21
ENDBRANCH   4  20
TORSDOF 4
ENDMDL
MODEL 7
REMARK VINA RESULT:      -8.8      4.967      7.530
REMARK  Name = 
REMARK  4 active torsions:
REMARK  status: ('A' for Active; 'I' for Inactive)
REMARK    1  A    between atoms: C_7  and  C_8
REMARK    2  A    between atoms: N_11  and  C_12
REMARK    3  A    between atoms: C_12  and  C_13
REMARK    4  A    between atoms: C_16  and  C_17
REMARK                            x       y       z     vdW  Elec       q    Type
REMARK                         _______ _______ _______ _____ _____    ______ ____
ROOT
ATOM      1  C   UNL     1       4.743   5.315  17.700  0.00  0.00    +0.000 A 
ATOM      2  N   UNL     1       5.846   6.049  17.873  0.00  0.00    +0.000 NA
ATOM      3  C   UNL     1       6.757   6.097  16.886  0.00  0.00    +0.000 A 
ATOM      4  N   UNL     1       7.876   6.950  17.061  0.00  0.00    +0.000 N 
ATOM      5  C   UNL     1       6.581   5.372  15.692  0.00  0.00    +0.000 A 
ATOM      6  C   UNL     1       7.482   5.340  14.595  0.00  0.00    +0.000 A 
ATOM      7  C   UNL     1       7.201   4.580  13.458  0.00  0.00    +0.000 A 
ATOM      8  C   UNL     1       6.019   3.856  13.396  0.00  0.00    +0.000 A 
ATOM      9  C   UNL     1       5.133   3.887  14.473  0.00  0.00    +0.000 A 
ATOM     10  C   UNL     1       5.396   4.626  15.620  0.00  0.00    +0.000 A 
ATOM     11  N   UNL     1       4.494   4.587  16.602  0.00  0.00    +0.000 NA
ATOM     12  H   UNL     1       8.730   6.458  16.829  0.00  0.00    +0.000 HD
ENDROOT
BRANCH   1  19
ATOM     13 CL   UNL     1       4.511   2.628  19.457  0.00  0.00    +0.000 Cl
ATOM     14  C   UNL     1       3.575   4.080  19.604  0.00  0.00    +0.000 A 
ATOM     15  C   UNL     1       2.607   4.064  20.623  0.00  0.00    +0.000 A 
ATOM     16  C   UNL     1       1.831   5.191  20.885  0.00  0.00    +0.000 A 
ATOM     17  C   UNL     1       2.019   6.341  20.133  0.00  0.00    +0.000 A 
ATOM     18  C   UNL     1       2.975   6.355  19.112  0.00  0.00    +0.000 A 
ATOM     19  C   UNL     1       3.775   5.227  18.810  0.00  0.00    +0.000 A 
ENDBRANCH   1  19
BRANCH   4  20
ATOM     20  C   UNL     1       7.922   7.543  18.400  0.00  0.00    +0.000 C 
BRANCH  20  21
ATOM     21  C   UNL     1       8.298   9.008  18.359  0.00  0.00    +0.000 A 
ATOM     22  C   UNL     1       9.303   9.513  19.192  0.00  0.00    +0.000 A 
ATOM     23  C   UNL     1       9.729  10.844  19.075  0.00  0.00    +0.000 A 
ATOM     24  C   UNL     1       9.170  11.714  18.123  0.00  0.00    +0.000 A 
ATOM     25  C   UNL     1       8.154  11.193  17.301  0.00  0.00    +0.000 A 
ATOM     26  C   UNL     1       7.723   9.865  17.416  0.00  0.00    +0.000 A 
BRANCH  24  27
ATOM     27  C   UNL     1       9.637  13.110  17.976  0.00  0.00    +0.000 A 
ATOM     28  C   UNL     1      10.779  13.451  17.236  0.00  0.00    +0.000 A 
ATOM     29  C   UNL     1      11.181  14.781  17.113  0.00  0.00    +0.000 A 
ATOM     30  C   UNL     1      10.422  15.758  17.731  0.00  0.00    +0.000 A 
ATOM     31  N   UNL     1       9.315  15.493  18.452  0.00  0.00    +0.000 NA
ATOM     32  C   UNL     1       8.959  14.187  18.558  0.00  0.00    +0.000 A 
ENDBRANCH  24  27
ENDBRANCH  20  21
ENDBRANCH   4  20
TORSDOF 4
ENDMDL
MODEL 8
REMARK VINA RESULT:      -8.8      0.867      1.461
REMARK  Name = 
REMARK  4 active torsions:
REMARK  status: ('A' for Active; 'I' for Inactive)
REMARK    1  A    between atoms: C_7  and  C_8
REMARK    2  A    between atoms: N_11  and  C_12
REMARK    3  A    between atoms: C_12  and  C_13
REMARK    4  A    between atoms: C_16  and  C_17
REMARK                            x       y       z     vdW  Elec       q    Type
REMARK                         _______ _______ _______ _____ _____    ______ ____
ROOT
ATOM      1  C   UNL     1       4.544   4.669  17.970  0.00  0.00    +0.000 A 
ATOM      2  N   UNL     1       3.765   5.716  18.256  0.00  0.00    +0.000 NA
ATOM      3  C   UNL     1       2.937   5.643  19.312  0.00  0.00    +0.000 A 
ATOM      4  N   UNL     1       2.186   6.798  19.643  0.00  0.00    +0.000 N 
ATOM      5  C   UNL     1       2.861   4.479  20.101  0.00  0.00    +0.000 A 
ATOM      6  C   UNL     1       2.016   4.289  21.226  0.00  0.00    +0.000 A 
ATOM      7  C   UNL     1       2.025   3.086  21.934  0.00  0.00    +0.000 A 
ATOM      8  C   UNL     1       2.880   2.067  21.539  0.00  0.00    +0.000 A 
ATOM      9  C   UNL     1       3.711   2.253  20.433  0.00  0.00    +0.000 A 
ATOM     10  C   UNL     1       3.711   3.437  19.706  0.00  0.00    +0.000 A 
ATOM     11  N   UNL     1       4.534   3.519  18.658  0.00  0.00    +0.000 NA
ATOM     12  H   UNL     1       1.216   6.550  19.797  0.00  0.00    +0.000 HD
ENDROOT
BRANCH   1  19
ATOM     13 CL   UNL     1       7.589   5.687  18.219  0.00  0.00    +0.000 Cl
ATOM     14  C   UNL     1       6.739   5.213  16.784  0.00  0.00    +0.000 A 
ATOM     15  C   UNL     1       7.489   5.282  15.598  0.00  0.00    +0.000 A 
ATOM     16  C   UNL     1       6.941   4.869  14.385  0.00  0.00    +0.000 A 
ATOM     17  C   UNL     1       5.643   4.382  14.351  0.00  0.00    +0.000 A 
ATOM     18  C   UNL     1       4.892   4.322  15.528  0.00  0.00    +0.000 A 
ATOM     19  C   UNL     1       5.410   4.741  16.777  0.00  0.00    +0.000 A 
ENDBRANCH   1  19
BRANCH   4  20
ATOM     20  C   UNL     1       2.337   7.866  18.652  0.00  0.00    +0.000 C 
BRANCH  20  21
ATOM     21  C   UNL     1       1.594   9.122  19.055  0.00  0.00    +0.000 A 
ATOM     22  C   UNL     1       1.426  10.175  18.149  0.00  0.00    +0.000 A 
ATOM     23  C   UNL     1       0.643  11.290  18.483  0.00  0.00    +0.000 A 
ATOM     24  C   UNL     1       0.002  11.390  19.729  0.00  0.00    +0.000 A 
ATOM     25  C   UNL     1       0.190  10.327  20.632  0.00  0.00    +0.000 A 
ATOM     26  C   UNL     1       0.973   9.214  20.303  0.00  0.00    +0.000 A 
BRANCH  24  27
ATOM     27  C   UNL     1      -0.849  12.550  20.076  0.00  0.00    +0.000 A 
ATOM     28  C   UNL     1      -2.205  12.418  20.413  0.00  0.00    +0.000 A 
ATOM     29  C   UNL     1      -2.971  13.536  20.743  0.00  0.00    +0.000 A 
ATOM     30  C   UNL     1      -2.361  14.777  20.738  0.00  0.00    +0.000 A 
ATOM     31  N   UNL     1      -1.064  14.966  20.426  0.00  0.00    +0.000 NA
ATOM     32  C   UNL     1      -0.352  13.857  20.101  0.00  0.00    +0.000 A 
ENDBRANCH  24  27
ENDBRANCH  20  21
ENDBRANCH   4  20
TORSDOF 4
ENDMDL
MODEL 9
REMARK VINA RESULT:      -8.8      3.414     10.308
REMARK  Name = 
REMARK  4 active torsions:
REMARK  status: ('A' for Active; 'I' for Inactive)
REMARK    1  A    between atoms: C_7  and  C_8
REMARK    2  A    between atoms: N_11  and  C_12
REMARK    3  A    between atoms: C_12  and  C_13
REMARK    4  A    between atoms: C_16  and  C_17
REMARK                            x       y       z     vdW  Elec       q    Type
REMARK                         _______ _______ _______ _____ _____    ______ ____
ROOT
ATOM      1  C   UNL     1      -1.673  11.983  19.826  0.00  0.00    +0.000 A 
ATOM      2  N   UNL     1      -0.688  11.186  19.402  0.00  0.00    +0.000 NA
ATOM      3  C   UNL     1      -0.834  10.535  18.235  0.00  0.00    +0.000 A 
ATOM      4  N   UNL     1       0.260   9.764  17.768  0.00  0.00    +0.000 N 
ATOM      5  C   UNL     1      -2.010  10.659  17.471  0.00  0.00    +0.000 A 
ATOM      6  C   UNL     1      -2.274  10.009  16.236  0.00  0.00    +0.000 A 
ATOM      7  C   UNL     1      -3.483  10.208  15.566  0.00  0.00    +0.000 A 
ATOM      8  C   UNL     1      -4.433  11.062  16.108  0.00  0.00    +0.000 A 
ATOM      9  C   UNL     1      -4.173  11.701  17.321  0.00  0.00    +0.000 A 
ATOM     10  C   UNL     1      -2.984  11.510  18.013  0.00  0.00    +0.000 A 
ATOM     11  N   UNL     1      -2.830  12.157  19.170  0.00  0.00    +0.000 NA
ATOM     12  H   UNL     1      -0.059   8.848  17.476  0.00  0.00    +0.000 HD
ENDROOT
BRANCH   1  19
ATOM     13 CL   UNL     1       0.475  14.349  20.217  0.00  0.00    +0.000 Cl
ATOM     14  C   UNL     1      -0.584  13.665  21.407  0.00  0.00    +0.000 A 
ATOM     15  C   UNL     1      -0.482  14.230  22.690  0.00  0.00    +0.000 A 
ATOM     16  C   UNL     1      -1.320  13.812  23.721  0.00  0.00    +0.000 A 
ATOM     17  C   UNL     1      -2.269  12.830  23.475  0.00  0.00    +0.000 A 
ATOM     18  C   UNL     1      -2.366  12.260  22.202  0.00  0.00    +0.000 A 
ATOM     19  C   UNL     1      -1.525  12.652  21.133  0.00  0.00    +0.000 A 
ENDBRANCH   1  19
BRANCH   4  20
ATOM     20  C   UNL     1       1.349   9.689  18.745  0.00  0.00    +0.000 C 
BRANCH  20  21
ATOM     21  C   UNL     1       1.923   8.293  18.849  0.00  0.00    +0.000 A 
ATOM     22  C   UNL     1       1.715   7.517  19.995  0.00  0.00    +0.000 A 
ATOM     23  C   UNL     1       2.149   6.185  20.047  0.00  0.00    +0.000 A 
ATOM     24  C   UNL     1       2.802   5.582  18.958  0.00  0.00    +0.000 A 
ATOM     25  C   UNL     1       3.012   6.379  17.818  0.00  0.00    +0.000 A 
ATOM     26  C   UNL     1       2.582   7.711  17.763  0.00  0.00    +0.000 A 
BRANCH  24  27
ATOM     27  C   UNL     1       3.236   4.168  18.997  0.00  0.00    +0.000 A 
ATOM     28  C   UNL     1       4.076   3.663  20.001  0.00  0.00    +0.000 A 
ATOM     29  C   UNL     1       4.454   2.320  20.007  0.00  0.00    +0.000 A 
ATOM     30  C   UNL     1       3.977   1.497  19.004  0.00  0.00    +0.000 A 
ATOM     31  N   UNL     1       3.167   1.923  18.016  0.00  0.00    +0.000 NA
ATOM     32  C   UNL     1       2.826   3.237  18.036  0.00  0.00    +0.000 A 
ENDBRANCH  24  27
ENDBRANCH  20  21
ENDBRANCH   4  20
TORSDOF 4
ENDMDL
