MODEL 1
REMARK VINA RESULT:      -6.0      0.000      0.000
REMARK  Name = 
REMARK  11 active torsions:
REMARK  status: ('A' for Active; 'I' for Inactive)
REMARK    1  A    between atoms: C_1  and  C_2
REMARK    2  A    between atoms: C_2  and  C_3
REMARK    3  A    between atoms: C_3  and  C_4
REMARK    4  A    between atoms: C_4  and  C_5
REMARK    5  A    between atoms: C_5  and  N_6
REMARK    6  A    between atoms: N_6  and  C_7
REMARK    7  A    between atoms: C_9  and  S_10
REMARK    8  A    between atoms: S_10  and  C_11
REMARK    9  A    between atoms: C_13  and  C_14
REMARK   10  A    between atoms: C_14  and  C_15
REMARK   11  A    between atoms: C_15  and  O_16
REMARK                            x       y       z     vdW  Elec       q    Type
REMARK                         _______ _______ _______ _____ _____    ______ ____
ROOT
ATOM      1  C   UNL     1       3.998   3.950  17.562  0.00  0.00    +0.000 A 
ATOM      2  N   UNL     1       3.756   5.276  17.540  0.00  0.00    +0.000 NA
ATOM      3  C   UNL     1       2.727   5.741  18.254  0.00  0.00    +0.000 A 
ATOM      4  N   UNL     1       1.895   4.978  18.982  0.00  0.00    +0.000 NA
ATOM      5  C   UNL     1       2.122   3.642  18.986  0.00  0.00    +0.000 A 
ATOM      6  C   UNL     1       3.187   3.078  18.295  0.00  0.00    +0.000 A 
ATOM      7 CL   UNL     1       3.583   1.397  18.398  0.00  0.00    +0.000 Cl
ENDROOT
BRANCH   1   8
ATOM      8  N   UNL     1       5.044   3.452  16.749  0.00  0.00    +0.000 N 
ATOM      9  H   UNL     1       5.306   2.519  17.067  0.00  0.00    +0.000 HD
BRANCH   8  10
ATOM     10  C   UNL     1       6.194   4.352  16.671  0.00  0.00    +0.000 C 
BRANCH  10  11
ATOM     11  C   UNL     1       6.855   4.256  15.296  0.00  0.00    +0.000 C 
BRANCH  11  12
ATOM     12  C   UNL     1       5.791   4.208  14.194  0.00  0.00    +0.000 C 
BRANCH  12  14
ATOM     13  C   UNL     1       5.451   3.049  11.984  0.00  0.00    +0.000 C 
ATOM     14  C   UNL     1       6.400   3.885  12.830  0.00  0.00    +0.000 C 
ENDBRANCH  12  14
ENDBRANCH  11  12
ENDBRANCH  10  11
ENDBRANCH   8  10
ENDBRANCH   1   8
BRANCH   3  15
ATOM     15  S   UNL     1       2.471   7.493  18.329  0.00  0.00    +0.000 S 
ATOM     16  C   UNL     1       1.952   7.659  20.053  0.00  0.00    +0.000 C 
ENDBRANCH   3  15
BRANCH   5  17
ATOM     17  C   UNL     1       1.202   2.808  19.859  0.00  0.00    +0.000 C 
BRANCH  17  18
ATOM     18  C   UNL     1       1.585   2.776  21.338  0.00  0.00    +0.000 C 
BRANCH  18  19
ATOM     19  O   UNL     1       2.161   4.014  21.749  0.00  0.00    +0.000 OA
ATOM     20  H   UNL     1       3.080   4.005  21.420  0.00  0.00    +0.000 HD
ENDBRANCH  18  19
ENDBRANCH  17  18
ENDBRANCH   5  17
TORSDOF 9
ENDMDL
MODEL 2
REMARK VINA RESULT:      -6.0      1.726      2.725
REMARK  Name = 
REMARK  11 active torsions:
REMARK  status: ('A' for Active; 'I' for Inactive)
REMARK    1  A    between atoms: C_1  and  C_2
REMARK    2  A    between atoms: C_2  and  C_3
REMARK    3  A    between atoms: C_3  and  C_4
REMARK    4  A    between atoms: C_4  and  C_5
REMARK    5  A    between atoms: C_5  and  N_6
REMARK    6  A    between atoms: N_6  and  C_7
REMARK    7  A    between atoms: C_9  and  S_10
REMARK    8  A    between atoms: S_10  and  C_11
REMARK    9  A    between atoms: C_13  and  C_14
REMARK   10  A    between atoms: C_14  and  C_15
REMARK   11  A    between atoms: C_15  and  O_16
REMARK                            x       y       z     vdW  Elec       q    Type
REMARK                         _______ _______ _______ _____ _____    ______ ____
ROOT
ATOM      1  C   UNL     1       4.202   4.108  17.513  0.00  0.00    +0.000 A 
ATOM      2  N   UNL     1       3.933   5.430  17.525  0.00  0.00    +0.000 NA
ATOM      3  C   UNL     1       2.828   5.843  18.153  0.00  0.00    +0.000 A 
ATOM      4  N   UNL     1       1.945   5.032  18.759  0.00  0.00    +0.000 NA
ATOM      5  C   UNL     1       2.201   3.701  18.727  0.00  0.00    +0.000 A 
ATOM      6  C   UNL     1       3.341   3.190  18.122  0.00  0.00    +0.000 A 
ATOM      7 CL   UNL     1       3.763   1.513  18.190  0.00  0.00    +0.000 Cl
ENDROOT
BRANCH   1   8
ATOM      8  N   UNL     1       5.334   3.668  16.787  0.00  0.00    +0.000 N 
ATOM      9  H   UNL     1       5.634   2.761  17.145  0.00  0.00    +0.000 HD
BRANCH   8  10
ATOM     10  C   UNL     1       6.424   4.643  16.769  0.00  0.00    +0.000 C 
BRANCH  10  11
ATOM     11  C   UNL     1       7.193   4.610  18.089  0.00  0.00    +0.000 C 
BRANCH  11  12
ATOM     12  C   UNL     1       7.675   6.016  18.463  0.00  0.00    +0.000 C 
BRANCH  12  14
ATOM     13  C   UNL     1       7.893   8.412  17.723  0.00  0.00    +0.000 C 
ATOM     14  C   UNL     1       7.352   7.036  17.371  0.00  0.00    +0.000 C 
ENDBRANCH  12  14
ENDBRANCH  11  12
ENDBRANCH  10  11
ENDBRANCH   8  10
ENDBRANCH   1   8
BRANCH   3  15
ATOM     15  S   UNL     1       2.526   7.585  18.279  0.00  0.00    +0.000 S 
ATOM     16  C   UNL     1       1.957   7.679  19.993  0.00  0.00    +0.000 C 
ENDBRANCH   3  15
BRANCH   5  17
ATOM     17  C   UNL     1       1.218   2.812  19.466  0.00  0.00    +0.000 C 
BRANCH  17  18
ATOM     18  C   UNL     1       1.217   2.989  20.985  0.00  0.00    +0.000 C 
BRANCH  18  19
ATOM     19  O   UNL     1       2.338   3.756  21.416  0.00  0.00    +0.000 OA
ATOM     20  H   UNL     1       3.043   3.593  20.762  0.00  0.00    +0.000 HD
ENDBRANCH  18  19
ENDBRANCH  17  18
ENDBRANCH   5  17
TORSDOF 9
ENDMDL
MODEL 3
REMARK VINA RESULT:      -5.9      1.847      2.701
REMARK  Name = 
REMARK  11 active torsions:
REMARK  status: ('A' for Active; 'I' for Inactive)
REMARK    1  A    between atoms: C_1  and  C_2
REMARK    2  A    between atoms: C_2  and  C_3
REMARK    3  A    between atoms: C_3  and  C_4
REMARK    4  A    between atoms: C_4  and  C_5
REMARK    5  A    between atoms: C_5  and  N_6
REMARK    6  A    between atoms: N_6  and  C_7
REMARK    7  A    between atoms: C_9  and  S_10
REMARK    8  A    between atoms: S_10  and  C_11
REMARK    9  A    between atoms: C_13  and  C_14
REMARK   10  A    between atoms: C_14  and  C_15
REMARK   11  A    between atoms: C_15  and  O_16
REMARK                            x       y       z     vdW  Elec       q    Type
REMARK                         _______ _______ _______ _____ _____    ______ ____
ROOT
ATOM      1  C   UNL     1       4.294   4.326  18.295  0.00  0.00    +0.000 A 
ATOM      2  N   UNL     1       3.839   5.544  17.940  0.00  0.00    +0.000 NA
ATOM      3  C   UNL     1       2.938   6.136  18.731  0.00  0.00    +0.000 A 
ATOM      4  N   UNL     1       2.432   5.594  19.851  0.00  0.00    +0.000 NA
ATOM      5  C   UNL     1       2.870   4.359  20.196  0.00  0.00    +0.000 A 
ATOM      6  C   UNL     1       3.826   3.686  19.447  0.00  0.00    +0.000 A 
ATOM      7 CL   UNL     1       4.506   2.173  19.940  0.00  0.00    +0.000 Cl
ENDROOT
BRANCH   1   8
ATOM      8  N   UNL     1       5.192   3.672  17.418  0.00  0.00    +0.000 N 
ATOM      9  H   UNL     1       5.984   3.312  17.952  0.00  0.00    +0.000 HD
BRANCH   8  10
ATOM     10  C   UNL     1       5.617   4.508  16.296  0.00  0.00    +0.000 C 
BRANCH  10  11
ATOM     11  C   UNL     1       7.130   4.722  16.333  0.00  0.00    +0.000 C 
BRANCH  11  12
ATOM     12  C   UNL     1       7.643   4.674  17.776  0.00  0.00    +0.000 C 
BRANCH  12  14
ATOM     13  C   UNL     1       7.635   7.167  17.427  0.00  0.00    +0.000 C 
ATOM     14  C   UNL     1       7.573   6.044  18.450  0.00  0.00    +0.000 C 
ENDBRANCH  12  14
ENDBRANCH  11  12
ENDBRANCH  10  11
ENDBRANCH   8  10
ENDBRANCH   1   8
BRANCH   3  15
ATOM     15  S   UNL     1       2.421   7.786  18.340  0.00  0.00    +0.000 S 
ATOM     16  C   UNL     1       1.673   8.259  19.917  0.00  0.00    +0.000 C 
ENDBRANCH   3  15
BRANCH   5  17
ATOM     17  C   UNL     1       2.325   3.793  21.493  0.00  0.00    +0.000 C 
BRANCH  17  18
ATOM     18  C   UNL     1       1.173   2.801  21.321  0.00  0.00    +0.000 C 
BRANCH  18  19
ATOM     19  O   UNL     1       0.444   3.060  20.125  0.00  0.00    +0.000 OA
ATOM     20  H   UNL     1      -0.389   3.484  20.404  0.00  0.00    +0.000 HD
ENDBRANCH  18  19
ENDBRANCH  17  18
ENDBRANCH   5  17
TORSDOF 9
ENDMDL
MODEL 4
REMARK VINA RESULT:      -5.8      3.400      6.483
REMARK  Name = 
REMARK  11 active torsions:
REMARK  status: ('A' for Active; 'I' for Inactive)
REMARK    1  A    between atoms: C_1  and  C_2
REMARK    2  A    between atoms: C_2  and  C_3
REMARK    3  A    between atoms: C_3  and  C_4
REMARK    4  A    between atoms: C_4  and  C_5
REMARK    5  A    between atoms: C_5  and  N_6
REMARK    6  A    between atoms: N_6  and  C_7
REMARK    7  A    between atoms: C_9  and  S_10
REMARK    8  A    between atoms: S_10  and  C_11
REMARK    9  A    between atoms: C_13  and  C_14
REMARK   10  A    between atoms: C_14  and  C_15
REMARK   11  A    between atoms: C_15  and  O_16
REMARK                            x       y       z     vdW  Elec       q    Type
REMARK                         _______ _______ _______ _____ _____    ______ ____
ROOT
ATOM      1  C   UNL     1       5.504   4.062  16.967  0.00  0.00    +0.000 A 
ATOM      2  N   UNL     1       5.843   4.020  15.663  0.00  0.00    +0.000 NA
ATOM      3  C   UNL     1       6.763   4.885  15.223  0.00  0.00    +0.000 A 
ATOM      4  N   UNL     1       7.365   5.813  15.985  0.00  0.00    +0.000 NA
ATOM      5  C   UNL     1       7.008   5.872  17.291  0.00  0.00    +0.000 A 
ATOM      6  C   UNL     1       6.082   4.993  17.836  0.00  0.00    +0.000 A 
ATOM      7 CL   UNL     1       5.713   4.953  19.527  0.00  0.00    +0.000 Cl
ENDROOT
BRANCH   1   8
ATOM      8  N   UNL     1       4.479   3.194  17.414  0.00  0.00    +0.000 N 
ATOM      9  H   UNL     1       4.668   2.247  17.083  0.00  0.00    +0.000 HD
BRANCH   8  10
ATOM     10  C   UNL     1       3.137   3.648  17.050  0.00  0.00    +0.000 C 
BRANCH  10  11
ATOM     11  C   UNL     1       2.090   2.997  17.953  0.00  0.00    +0.000 C 
BRANCH  11  12
ATOM     12  C   UNL     1       2.736   2.506  19.253  0.00  0.00    +0.000 C 
BRANCH  12  14
ATOM     13  C   UNL     1       1.084   3.917  20.527  0.00  0.00    +0.000 C 
ATOM     14  C   UNL     1       1.759   2.558  20.428  0.00  0.00    +0.000 C 
ENDBRANCH  12  14
ENDBRANCH  11  12
ENDBRANCH  10  11
ENDBRANCH   8  10
ENDBRANCH   1   8
BRANCH   3  15
ATOM     15  S   UNL     1       7.304   4.762  13.540  0.00  0.00    +0.000 S 
ATOM     16  C   UNL     1       6.097   3.571  12.911  0.00  0.00    +0.000 C 
ENDBRANCH   3  15
BRANCH   5  17
ATOM     17  C   UNL     1       7.741   6.892  18.141  0.00  0.00    +0.000 C 
BRANCH  17  18
ATOM     18  C   UNL     1       7.735   8.313  17.577  0.00  0.00    +0.000 C 
BRANCH  18  19
ATOM     19  O   UNL     1       8.535   9.186  18.370  0.00  0.00    +0.000 OA
ATOM     20  H   UNL     1       8.278   9.019  19.297  0.00  0.00    +0.000 HD
ENDBRANCH  18  19
ENDBRANCH  17  18
ENDBRANCH   5  17
TORSDOF 9
ENDMDL
MODEL 5
REMARK VINA RESULT:      -5.8      3.168      6.327
REMARK  Name = 
REMARK  11 active torsions:
REMARK  status: ('A' for Active; 'I' for Inactive)
REMARK    1  A    between atoms: C_1  and  C_2
REMARK    2  A    between atoms: C_2  and  C_3
REMARK    3  A    between atoms: C_3  and  C_4
REMARK    4  A    between atoms: C_4  and  C_5
REMARK    5  A    between atoms: C_5  and  N_6
REMARK    6  A    between atoms: N_6  and  C_7
REMARK    7  A    between atoms: C_9  and  S_10
REMARK    8  A    between atoms: S_10  and  C_11
REMARK    9  A    between atoms: C_13  and  C_14
REMARK   10  A    between atoms: C_14  and  C_15
REMARK   11  A    between atoms: C_15  and  O_16
REMARK                            x       y       z     vdW  Elec       q    Type
REMARK                         _______ _______ _______ _____ _____    ______ ____
ROOT
ATOM      1  C   UNL     1       4.253   4.296  17.089  0.00  0.00    +0.000 A 
ATOM      2  N   UNL     1       4.578   4.053  15.803  0.00  0.00    +0.000 NA
ATOM      3  C   UNL     1       5.830   4.307  15.410  0.00  0.00    +0.000 A 
ATOM      4  N   UNL     1       6.792   4.809  16.203  0.00  0.00    +0.000 NA
ATOM      5  C   UNL     1       6.460   5.076  17.489  0.00  0.00    +0.000 A 
ATOM      6  C   UNL     1       5.190   4.815  17.987  0.00  0.00    +0.000 A 
ATOM      7 CL   UNL     1       4.781   5.013  19.656  0.00  0.00    +0.000 Cl
ENDROOT
BRANCH   1   8
ATOM      8  N   UNL     1       2.908   4.094  17.482  0.00  0.00    +0.000 N 
ATOM      9  H   UNL     1       2.732   4.593  18.355  0.00  0.00    +0.000 HD
BRANCH   8  10
ATOM     10  C   UNL     1       2.536   2.682  17.569  0.00  0.00    +0.000 C 
BRANCH  10  11
ATOM     11  C   UNL     1       1.814   2.401  18.887  0.00  0.00    +0.000 C 
BRANCH  11  12
ATOM     12  C   UNL     1       1.169   3.681  19.427  0.00  0.00    +0.000 C 
BRANCH  12  14
ATOM     13  C   UNL     1       2.322   2.772  21.472  0.00  0.00    +0.000 C 
ATOM     14  C   UNL     1       1.357   3.818  20.938  0.00  0.00    +0.000 C 
ENDBRANCH  12  14
ENDBRANCH  11  12
ENDBRANCH  10  11
ENDBRANCH   8  10
ENDBRANCH   1   8
BRANCH   3  15
ATOM     15  S   UNL     1       6.302   3.882  13.756  0.00  0.00    +0.000 S 
ATOM     16  C   UNL     1       7.595   5.114  13.475  0.00  0.00    +0.000 C 
ENDBRANCH   3  15
BRANCH   5  17
ATOM     17  C   UNL     1       7.578   5.591  18.376  0.00  0.00    +0.000 C 
BRANCH  17  18
ATOM     18  C   UNL     1       7.873   7.084  18.227  0.00  0.00    +0.000 C 
BRANCH  18  19
ATOM     19  O   UNL     1       7.498   7.557  16.936  0.00  0.00    +0.000 OA
ATOM     20  H   UNL     1       8.330   7.795  16.485  0.00  0.00    +0.000 HD
ENDBRANCH  18  19
ENDBRANCH  17  18
ENDBRANCH   5  17
TORSDOF 9
ENDMDL
MODEL 6
REMARK VINA RESULT:      -5.8      2.937      6.085
REMARK  Name = 
REMARK  11 active torsions:
REMARK  status: ('A' for Active; 'I' for Inactive)
REMARK    1  A    between atoms: C_1  and  C_2
REMARK    2  A    between atoms: C_2  and  C_3
REMARK    3  A    between atoms: C_3  and  C_4
REMARK    4  A    between atoms: C_4  and  C_5
REMARK    5  A    between atoms: C_5  and  N_6
REMARK    6  A    between atoms: N_6  and  C_7
REMARK    7  A    between atoms: C_9  and  S_10
REMARK    8  A    between atoms: S_10  and  C_11
REMARK    9  A    between atoms: C_13  and  C_14
REMARK   10  A    between atoms: C_14  and  C_15
REMARK   11  A    between atoms: C_15  and  O_16
REMARK                            x       y       z     vdW  Elec       q    Type
REMARK                         _______ _______ _______ _____ _____    ______ ____
ROOT
ATOM      1  C   UNL     1       4.615   4.342  16.850  0.00  0.00    +0.000 A 
ATOM      2  N   UNL     1       5.101   4.181  15.603  0.00  0.00    +0.000 NA
ATOM      3  C   UNL     1       6.277   4.744  15.308  0.00  0.00    +0.000 A 
ATOM      4  N   UNL     1       7.006   5.483  16.161  0.00  0.00    +0.000 NA
ATOM      5  C   UNL     1       6.506   5.666  17.407  0.00  0.00    +0.000 A 
ATOM      6  C   UNL     1       5.307   5.092  17.806  0.00  0.00    +0.000 A 
ATOM      7 CL   UNL     1       4.717   5.191  19.430  0.00  0.00    +0.000 Cl
ENDROOT
BRANCH   1   8
ATOM      8  N   UNL     1       3.338   3.805  17.138  0.00  0.00    +0.000 N 
ATOM      9  H   UNL     1       2.844   4.428  17.778  0.00  0.00    +0.000 HD
BRANCH   8  10
ATOM     10  C   UNL     1       3.386   2.430  17.634  0.00  0.00    +0.000 C 
BRANCH  10  11
ATOM     11  C   UNL     1       2.226   2.168  18.595  0.00  0.00    +0.000 C 
BRANCH  11  12
ATOM     12  C   UNL     1       1.292   3.381  18.649  0.00  0.00    +0.000 C 
BRANCH  12  14
ATOM     13  C   UNL     1       1.439   4.994  20.577  0.00  0.00    +0.000 C 
ATOM     14  C   UNL     1       0.842   3.688  20.078  0.00  0.00    +0.000 C 
ENDBRANCH  12  14
ENDBRANCH  11  12
ENDBRANCH  10  11
ENDBRANCH   8  10
ENDBRANCH   1   8
BRANCH   3  15
ATOM     15  S   UNL     1       6.984   4.441  13.711  0.00  0.00    +0.000 S 
ATOM     16  C   UNL     1       5.601   3.590  12.915  0.00  0.00    +0.000 C 
ENDBRANCH   3  15
BRANCH   5  17
ATOM     17  C   UNL     1       7.374   6.458  18.367  0.00  0.00    +0.000 C 
BRANCH  17  18
ATOM     18  C   UNL     1       8.337   5.612  19.201  0.00  0.00    +0.000 C 
BRANCH  18  19
ATOM     19  O   UNL     1       7.914   5.537  20.560  0.00  0.00    +0.000 OA
ATOM     20  H   UNL     1       8.442   4.825  20.967  0.00  0.00    +0.000 HD
ENDBRANCH  18  19
ENDBRANCH  17  18
ENDBRANCH   5  17
TORSDOF 9
ENDMDL
MODEL 7
REMARK VINA RESULT:      -5.8      1.187      1.362
REMARK  Name = 
REMARK  11 active torsions:
REMARK  status: ('A' for Active; 'I' for Inactive)
REMARK    1  A    between atoms: C_1  and  C_2
REMARK    2  A    between atoms: C_2  and  C_3
REMARK    3  A    between atoms: C_3  and  C_4
REMARK    4  A    between atoms: C_4  and  C_5
REMARK    5  A    between atoms: C_5  and  N_6
REMARK    6  A    between atoms: N_6  and  C_7
REMARK    7  A    between atoms: C_9  and  S_10
REMARK    8  A    between atoms: S_10  and  C_11
REMARK    9  A    between atoms: C_13  and  C_14
REMARK   10  A    between atoms: C_14  and  C_15
REMARK   11  A    between atoms: C_15  and  O_16
REMARK                            x       y       z     vdW  Elec       q    Type
REMARK                         _______ _______ _______ _____ _____    ______ ____
ROOT
ATOM      1  C   UNL     1       4.788   4.451  19.043  0.00  0.00    +0.000 A 
ATOM      2  N   UNL     1       4.318   5.695  18.817  0.00  0.00    +0.000 NA
ATOM      3  C   UNL     1       3.012   5.918  18.996  0.00  0.00    +0.000 A 
ATOM      4  N   UNL     1       2.121   4.982  19.365  0.00  0.00    +0.000 NA
ATOM      5  C   UNL     1       2.587   3.727  19.568  0.00  0.00    +0.000 A 
ATOM      6  C   UNL     1       3.934   3.415  19.434  0.00  0.00    +0.000 A 
ATOM      7 CL   UNL     1       4.577   1.857  19.824  0.00  0.00    +0.000 Cl
ENDROOT
BRANCH   1   8
ATOM      8  N   UNL     1       6.156   4.203  18.784  0.00  0.00    +0.000 N 
ATOM      9  H   UNL     1       6.667   4.167  19.667  0.00  0.00    +0.000 HD
BRANCH   8  10
ATOM     10  C   UNL     1       6.749   5.151  17.842  0.00  0.00    +0.000 C 
BRANCH  10  11
ATOM     11  C   UNL     1       7.145   4.441  16.547  0.00  0.00    +0.000 C 
BRANCH  11  12
ATOM     12  C   UNL     1       5.911   3.839  15.868  0.00  0.00    +0.000 C 
BRANCH  12  14
ATOM     13  C   UNL     1       6.347   3.878  13.389  0.00  0.00    +0.000 C 
ATOM     14  C   UNL     1       5.598   4.529  14.541  0.00  0.00    +0.000 C 
ENDBRANCH  12  14
ENDBRANCH  11  12
ENDBRANCH  10  11
ENDBRANCH   8  10
ENDBRANCH   1   8
BRANCH   3  15
ATOM     15  S   UNL     1       2.403   7.573  18.819  0.00  0.00    +0.000 S 
ATOM     16  C   UNL     1       1.683   7.816  20.459  0.00  0.00    +0.000 C 
ENDBRANCH   3  15
BRANCH   5  17
ATOM     17  C   UNL     1       1.572   2.702  20.038  0.00  0.00    +0.000 C 
BRANCH  17  18
ATOM     18  C   UNL     1       1.418   2.608  21.556  0.00  0.00    +0.000 C 
BRANCH  18  19
ATOM     19  O   UNL     1       2.266   3.541  22.220  0.00  0.00    +0.000 OA
ATOM     20  H   UNL     1       1.934   4.425  21.978  0.00  0.00    +0.000 HD
ENDBRANCH  18  19
ENDBRANCH  17  18
ENDBRANCH   5  17
TORSDOF 9
ENDMDL
MODEL 8
REMARK VINA RESULT:      -5.7      3.140      5.298
REMARK  Name = 
REMARK  11 active torsions:
REMARK  status: ('A' for Active; 'I' for Inactive)
REMARK    1  A    between atoms: C_1  and  C_2
REMARK    2  A    between atoms: C_2  and  C_3
REMARK    3  A    between atoms: C_3  and  C_4
REMARK    4  A    between atoms: C_4  and  C_5
REMARK    5  A    between atoms: C_5  and  N_6
REMARK    6  A    between atoms: N_6  and  C_7
REMARK    7  A    between atoms: C_9  and  S_10
REMARK    8  A    between atoms: S_10  and  C_11
REMARK    9  A    between atoms: C_13  and  C_14
REMARK   10  A    between atoms: C_14  and  C_15
REMARK   11  A    between atoms: C_15  and  O_16
REMARK                            x       y       z     vdW  Elec       q    Type
REMARK                         _______ _______ _______ _____ _____    ______ ____
ROOT
ATOM      1  C   UNL     1       3.161   5.930  19.520  0.00  0.00    +0.000 A 
ATOM      2  N   UNL     1       2.451   7.054  19.293  0.00  0.00    +0.000 NA
ATOM      3  C   UNL     1       2.766   7.794  18.225  0.00  0.00    +0.000 A 
ATOM      4  N   UNL     1       3.760   7.511  17.367  0.00  0.00    +0.000 NA
ATOM      5  C   UNL     1       4.490   6.395  17.607  0.00  0.00    +0.000 A 
ATOM      6  C   UNL     1       4.210   5.554  18.677  0.00  0.00    +0.000 A 
ATOM      7 CL   UNL     1       5.032   4.052  18.925  0.00  0.00    +0.000 Cl
ENDROOT
BRANCH   1   8
ATOM      8  N   UNL     1       2.871   5.189  20.690  0.00  0.00    +0.000 N 
ATOM      9  H   UNL     1       3.470   4.363  20.725  0.00  0.00    +0.000 HD
BRANCH   8  10
ATOM     10  C   UNL     1       1.455   4.849  20.824  0.00  0.00    +0.000 C 
BRANCH  10  11
ATOM     11  C   UNL     1       1.270   3.332  20.850  0.00  0.00    +0.000 C 
BRANCH  11  12
ATOM     12  C   UNL     1       0.873   2.818  19.463  0.00  0.00    +0.000 C 
BRANCH  12  14
ATOM     13  C   UNL     1       2.408   2.515  17.490  0.00  0.00    +0.000 C 
ATOM     14  C   UNL     1       1.973   1.960  18.837  0.00  0.00    +0.000 C 
ENDBRANCH  12  14
ENDBRANCH  11  12
ENDBRANCH  10  11
ENDBRANCH   8  10
ENDBRANCH   1   8
BRANCH   3  15
ATOM     15  S   UNL     1       1.766   9.208  17.849  0.00  0.00    +0.000 S 
ATOM     16  C   UNL     1       1.020   9.501  19.470  0.00  0.00    +0.000 C 
ENDBRANCH   3  15
BRANCH   5  17
ATOM     17  C   UNL     1       5.569   6.068  16.592  0.00  0.00    +0.000 C 
BRANCH  17  18
ATOM     18  C   UNL     1       6.999   6.246  17.104  0.00  0.00    +0.000 C 
BRANCH  18  19
ATOM     19  O   UNL     1       7.700   5.005  17.118  0.00  0.00    +0.000 OA
ATOM     20  H   UNL     1       8.482   5.133  16.548  0.00  0.00    +0.000 HD
ENDBRANCH  18  19
ENDBRANCH  17  18
ENDBRANCH   5  17
TORSDOF 9
ENDMDL
MODEL 9
REMARK VINA RESULT:      -5.6      2.454      3.315
REMARK  Name = 
REMARK  11 active torsions:
REMARK  status: ('A' for Active; 'I' for Inactive)
REMARK    1  A    between atoms: C_1  and  C_2
REMARK    2  A    between atoms: C_2  and  C_3
REMARK    3  A    between atoms: C_3  and  C_4
REMARK    4  A    between atoms: C_4  and  C_5
REMARK    5  A    between atoms: C_5  and  N_6
REMARK    6  A    between atoms: N_6  and  C_7
REMARK    7  A    between atoms: C_9  and  S_10
REMARK    8  A    between atoms: S_10  and  C_11
REMARK    9  A    between atoms: C_13  and  C_14
REMARK   10  A    between atoms: C_14  and  C_15
REMARK   11  A    between atoms: C_15  and  O_16
REMARK                            x       y       z     vdW  Elec       q    Type
REMARK                         _______ _______ _______ _____ _____    ______ ____
ROOT
ATOM      1  C   UNL     1       4.692   4.855  19.324  0.00  0.00    +0.000 A 
ATOM      2  N   UNL     1       4.113   6.071  19.257  0.00  0.00    +0.000 NA
ATOM      3  C   UNL     1       2.790   6.150  19.429  0.00  0.00    +0.000 A 
ATOM      4  N   UNL     1       1.984   5.097  19.644  0.00  0.00    +0.000 NA
ATOM      5  C   UNL     1       2.560   3.872  19.688  0.00  0.00    +0.000 A 
ATOM      6  C   UNL     1       3.932   3.703  19.549  0.00  0.00    +0.000 A 
ATOM      7 CL   UNL     1       4.710   2.169  19.741  0.00  0.00    +0.000 Cl
ENDROOT
BRANCH   1   8
ATOM      8  N   UNL     1       6.081   4.767  19.071  0.00  0.00    +0.000 N 
ATOM      9  H   UNL     1       6.557   5.555  19.511  0.00  0.00    +0.000 HD
BRANCH   8  10
ATOM     10  C   UNL     1       6.404   4.652  17.649  0.00  0.00    +0.000 C 
BRANCH  10  11
ATOM     11  C   UNL     1       6.698   6.029  17.055  0.00  0.00    +0.000 C 
BRANCH  11  12
ATOM     12  C   UNL     1       7.591   6.840  18.000  0.00  0.00    +0.000 C 
BRANCH  12  14
ATOM     13  C   UNL     1       8.609   9.089  18.495  0.00  0.00    +0.000 C 
ATOM     14  C   UNL     1       7.767   8.280  17.521  0.00  0.00    +0.000 C 
ENDBRANCH  12  14
ENDBRANCH  11  12
ENDBRANCH  10  11
ENDBRANCH   8  10
ENDBRANCH   1   8
BRANCH   3  15
ATOM     15  S   UNL     1       2.034   7.753  19.462  0.00  0.00    +0.000 S 
ATOM     16  C   UNL     1       2.470   8.335  17.806  0.00  0.00    +0.000 C 
ENDBRANCH   3  15
BRANCH   5  17
ATOM     17  C   UNL     1       1.636   2.706  19.987  0.00  0.00    +0.000 C 
BRANCH  17  18
ATOM     18  C   UNL     1       1.288   2.533  21.466  0.00  0.00    +0.000 C 
BRANCH  18  19
ATOM     19  O   UNL     1       2.158   3.301  22.294  0.00  0.00    +0.000 OA
ATOM     20  H   UNL     1       3.028   2.863  22.249  0.00  0.00    +0.000 HD
ENDBRANCH  18  19
ENDBRANCH  17  18
ENDBRANCH   5  17
TORSDOF 9
ENDMDL
