MODEL 1
REMARK VINA RESULT:      -8.0      0.000      0.000
REMARK  Name = 
REMARK  6 active torsions:
REMARK  status: ('A' for Active; 'I' for Inactive)
REMARK    1  A    between atoms: C_1  and  C_2
REMARK    2  A    between atoms: C_5  and  C_6
REMARK    3  A    between atoms: C_7  and  N_8
REMARK    4  A    between atoms: C_12  and  C_14
REMARK    5  A    between atoms: N_19  and  S_20
REMARK    6  A    between atoms: S_20  and  C_23
REMARK                            x       y       z     vdW  Elec       q    Type
REMARK                         _______ _______ _______ _____ _____    ______ ____
ROOT
ATOM      1  N   UNL     1       1.490   8.519  19.028  0.00  0.00    +0.000 N 
ATOM      2  C   UNL     1       1.349   9.603  18.026  0.00  0.00    +0.000 C 
ATOM      3  C   UNL     1      -0.047  10.242  18.177  0.00  0.00    +0.000 C 
ATOM      4  N   UNL     1      -0.295  10.696  19.558  0.00  0.00    +0.000 N 
ATOM      5  C   UNL     1      -0.548  12.043  19.772  0.00  0.00    +0.000 C 
ATOM      6  O   UNL     1      -0.632  12.834  18.828  0.00  0.00    +0.000 OA
ATOM      7  C   UNL     1      -0.028   9.665  20.575  0.00  0.00    +0.000 C 
ATOM      8  C   UNL     1       1.379   9.050  20.404  0.00  0.00    +0.000 C 
ENDROOT
BRANCH   1  15
ATOM      9  C   UNL     1       5.248   6.628  16.385  0.00  0.00    +0.000 C 
ATOM     10  C   UNL     1       4.301   6.538  17.545  0.00  0.00    +0.000 A 
ATOM     11  C   UNL     1       4.317   5.435  18.394  0.00  0.00    +0.000 A 
ATOM     12  C   UNL     1       3.407   5.354  19.445  0.00  0.00    +0.000 A 
ATOM     13  C   UNL     1       2.455   6.364  19.659  0.00  0.00    +0.000 A 
ATOM     14  C   UNL     1       1.442   6.143  20.756  0.00  0.00    +0.000 C 
ATOM     15  C   UNL     1       2.442   7.516  18.835  0.00  0.00    +0.000 A 
ATOM     16  C   UNL     1       3.376   7.569  17.781  0.00  0.00    +0.000 A 
ENDBRANCH   1  15
BRANCH   5  17
ATOM     17  C   UNL     1      -0.746  12.558  21.215  0.00  0.00    +0.000 C 
ATOM     18  C   UNL     1      -2.266  12.607  21.450  0.00  0.00    +0.000 C 
ATOM     19  C   UNL     1      -2.607  13.170  22.818  0.00  0.00    +0.000 C 
ATOM     20  C   UNL     1      -1.969  14.542  22.977  0.00  0.00    +0.000 C 
ATOM     21  C   UNL     1      -0.458  14.469  22.784  0.00  0.00    +0.000 C 
ATOM     22  N   UNL     1      -0.111  13.921  21.435  0.00  0.00    +0.000 NA
BRANCH  22  23
ATOM     23  S   UNL     1       1.593  13.878  21.139  0.00  0.00    +0.000 S 
ATOM     24  O   UNL     1       2.224  14.532  22.266  0.00  0.00    +0.000 OA
ATOM     25  O   UNL     1       1.983  12.540  20.760  0.00  0.00    +0.000 OA
BRANCH  23  26
ATOM     26  C   UNL     1       1.854  14.865  19.687  0.00  0.00    +0.000 A 
ATOM     27  C   UNL     1       1.182  16.082  19.532  0.00  0.00    +0.000 A 
ATOM     28  C   UNL     1       1.522  16.920  18.469  0.00  0.00    +0.000 A 
ATOM     29  C   UNL     1       2.530  16.540  17.587  0.00  0.00    +0.000 A 
ATOM     30  F   UNL     1       2.867  17.357  16.580  0.00  0.00    +0.000 F 
ATOM     31  C   UNL     1       3.209  15.335  17.744  0.00  0.00    +0.000 A 
ATOM     32  C   UNL     1       2.873  14.489  18.802  0.00  0.00    +0.000 A 
ENDBRANCH  23  26
ENDBRANCH  22  23
ENDBRANCH   5  17
TORSDOF 4
ENDMDL
MODEL 2
REMARK VINA RESULT:      -7.8      1.881      3.240
REMARK  Name = 
REMARK  6 active torsions:
REMARK  status: ('A' for Active; 'I' for Inactive)
REMARK    1  A    between atoms: C_1  and  C_2
REMARK    2  A    between atoms: C_5  and  C_6
REMARK    3  A    between atoms: C_7  and  N_8
REMARK    4  A    between atoms: C_12  and  C_14
REMARK    5  A    between atoms: N_19  and  S_20
REMARK    6  A    between atoms: S_20  and  C_23
REMARK                            x       y       z     vdW  Elec       q    Type
REMARK                         _______ _______ _______ _____ _____    ______ ____
ROOT
ATOM      1  N   UNL     1       2.385   7.050  18.837  0.00  0.00    +0.000 N 
ATOM      2  C   UNL     1       1.855   6.894  20.214  0.00  0.00    +0.000 C 
ATOM      3  C   UNL     1       1.807   8.281  20.889  0.00  0.00    +0.000 C 
ATOM      4  N   UNL     1       1.049   9.256  20.084  0.00  0.00    +0.000 N 
ATOM      5  C   UNL     1      -0.075   9.842  20.649  0.00  0.00    +0.000 C 
ATOM      6  O   UNL     1      -0.396   9.609  21.817  0.00  0.00    +0.000 OA
ATOM      7  C   UNL     1       1.479   9.322  18.677  0.00  0.00    +0.000 C 
ATOM      8  C   UNL     1       1.508   7.922  18.026  0.00  0.00    +0.000 C 
ENDROOT
BRANCH   1  15
ATOM      9  C   UNL     1       2.294   2.190  17.807  0.00  0.00    +0.000 C 
ATOM     10  C   UNL     1       2.929   3.540  17.649  0.00  0.00    +0.000 A 
ATOM     11  C   UNL     1       4.096   3.697  16.905  0.00  0.00    +0.000 A 
ATOM     12  C   UNL     1       4.688   4.951  16.799  0.00  0.00    +0.000 A 
ATOM     13  C   UNL     1       4.139   6.071  17.445  0.00  0.00    +0.000 A 
ATOM     14  C   UNL     1       4.905   7.368  17.362  0.00  0.00    +0.000 C 
ATOM     15  C   UNL     1       2.932   5.948  18.177  0.00  0.00    +0.000 A 
ATOM     16  C   UNL     1       2.355   4.665  18.265  0.00  0.00    +0.000 A 
ENDBRANCH   1  15
BRANCH   5  17
ATOM     17  C   UNL     1      -0.926  10.817  19.806  0.00  0.00    +0.000 C 
ATOM     18  C   UNL     1      -1.589   9.970  18.706  0.00  0.00    +0.000 C 
ATOM     19  C   UNL     1      -2.405  10.824  17.752  0.00  0.00    +0.000 C 
ATOM     20  C   UNL     1      -1.523  11.915  17.165  0.00  0.00    +0.000 C 
ATOM     21  C   UNL     1      -0.907  12.773  18.266  0.00  0.00    +0.000 C 
ATOM     22  N   UNL     1      -0.095  11.941  19.209  0.00  0.00    +0.000 NA
BRANCH  22  23
ATOM     23  S   UNL     1       0.680  12.876  20.442  0.00  0.00    +0.000 S 
ATOM     24  O   UNL     1      -0.377  13.453  21.246  0.00  0.00    +0.000 OA
ATOM     25  O   UNL     1       1.721  12.090  21.060  0.00  0.00    +0.000 OA
BRANCH  23  26
ATOM     26  C   UNL     1       1.529  14.182  19.592  0.00  0.00    +0.000 A 
ATOM     27  C   UNL     1       2.591  13.890  18.732  0.00  0.00    +0.000 A 
ATOM     28  C   UNL     1       3.137  14.908  17.948  0.00  0.00    +0.000 A 
ATOM     29  C   UNL     1       2.609  16.195  18.025  0.00  0.00    +0.000 A 
ATOM     30  F   UNL     1       3.123  17.164  17.256  0.00  0.00    +0.000 F 
ATOM     31  C   UNL     1       1.545  16.488  18.872  0.00  0.00    +0.000 A 
ATOM     32  C   UNL     1       0.995  15.476  19.661  0.00  0.00    +0.000 A 
ENDBRANCH  23  26
ENDBRANCH  22  23
ENDBRANCH   5  17
TORSDOF 4
ENDMDL
MODEL 3
REMARK VINA RESULT:      -7.6      4.586      7.471
REMARK  Name = 
REMARK  6 active torsions:
REMARK  status: ('A' for Active; 'I' for Inactive)
REMARK    1  A    between atoms: C_1  and  C_2
REMARK    2  A    between atoms: C_5  and  C_6
REMARK    3  A    between atoms: C_7  and  N_8
REMARK    4  A    between atoms: C_12  and  C_14
REMARK    5  A    between atoms: N_19  and  S_20
REMARK    6  A    between atoms: S_20  and  C_23
REMARK                            x       y       z     vdW  Elec       q    Type
REMARK                         _______ _______ _______ _____ _____    ______ ____
ROOT
ATOM      1  N   UNL     1       7.300  15.173  18.512  0.00  0.00    +0.000 N 
ATOM      2  C   UNL     1       6.994  15.524  19.920  0.00  0.00    +0.000 C 
ATOM      3  C   UNL     1       6.026  16.726  19.933  0.00  0.00    +0.000 C 
ATOM      4  N   UNL     1       4.820  16.467  19.126  0.00  0.00    +0.000 N 
ATOM      5  C   UNL     1       3.585  16.504  19.758  0.00  0.00    +0.000 C 
ATOM      6  O   UNL     1       3.488  16.812  20.949  0.00  0.00    +0.000 OA
ATOM      7  C   UNL     1       5.112  15.986  17.765  0.00  0.00    +0.000 C 
ATOM      8  C   UNL     1       6.075  14.778  17.784  0.00  0.00    +0.000 C 
ENDROOT
BRANCH   1  15
ATOM      9  C   UNL     1       9.656  10.804  18.287  0.00  0.00    +0.000 C 
ATOM     10  C   UNL     1       9.658  12.292  18.101  0.00  0.00    +0.000 A 
ATOM     11  C   UNL     1      10.813  12.958  17.699  0.00  0.00    +0.000 A 
ATOM     12  C   UNL     1      10.805  14.344  17.564  0.00  0.00    +0.000 A 
ATOM     13  C   UNL     1       9.650  15.093  17.843  0.00  0.00    +0.000 A 
ATOM     14  C   UNL     1       9.762  16.595  17.773  0.00  0.00    +0.000 C 
ATOM     15  C   UNL     1       8.450  14.438  18.216  0.00  0.00    +0.000 A 
ATOM     16  C   UNL     1       8.490  13.034  18.342  0.00  0.00    +0.000 A 
ENDBRANCH   1  15
BRANCH   5  17
ATOM     17  C   UNL     1       2.310  16.171  18.953  0.00  0.00    +0.000 C 
ATOM     18  C   UNL     1       1.462  17.455  18.939  0.00  0.00    +0.000 C 
ATOM     19  C   UNL     1       0.133  17.246  18.235  0.00  0.00    +0.000 C 
ATOM     20  C   UNL     1      -0.610  16.089  18.884  0.00  0.00    +0.000 C 
ATOM     21  C   UNL     1       0.226  14.813  18.852  0.00  0.00    +0.000 C 
ATOM     22  N   UNL     1       1.536  15.007  19.550  0.00  0.00    +0.000 NA
BRANCH  22  23
ATOM     23  S   UNL     1       2.498  13.570  19.598  0.00  0.00    +0.000 S 
ATOM     24  O   UNL     1       3.053  13.401  18.272  0.00  0.00    +0.000 OA
ATOM     25  O   UNL     1       3.364  13.608  20.753  0.00  0.00    +0.000 OA
BRANCH  23  26
ATOM     26  C   UNL     1       1.363  12.243  19.914  0.00  0.00    +0.000 A 
ATOM     27  C   UNL     1       1.187  11.225  18.971  0.00  0.00    +0.000 A 
ATOM     28  C   UNL     1       0.420  10.108  19.305  0.00  0.00    +0.000 A 
ATOM     29  C   UNL     1      -0.151  10.018  20.573  0.00  0.00    +0.000 A 
ATOM     30  F   UNL     1      -0.870   8.934  20.895  0.00  0.00    +0.000 F 
ATOM     31  C   UNL     1       0.030  11.023  21.518  0.00  0.00    +0.000 A 
ATOM     32  C   UNL     1       0.794  12.145  21.191  0.00  0.00    +0.000 A 
ENDBRANCH  23  26
ENDBRANCH  22  23
ENDBRANCH   5  17
TORSDOF 4
ENDMDL
MODEL 4
REMARK VINA RESULT:      -7.5      1.914      2.980
REMARK  Name = 
REMARK  6 active torsions:
REMARK  status: ('A' for Active; 'I' for Inactive)
REMARK    1  A    between atoms: C_1  and  C_2
REMARK    2  A    between atoms: C_5  and  C_6
REMARK    3  A    between atoms: C_7  and  N_8
REMARK    4  A    between atoms: C_12  and  C_14
REMARK    5  A    between atoms: N_19  and  S_20
REMARK    6  A    between atoms: S_20  and  C_23
REMARK                            x       y       z     vdW  Elec       q    Type
REMARK                         _______ _______ _______ _____ _____    ______ ____
ROOT
ATOM      1  N   UNL     1       2.599   7.148  18.709  0.00  0.00    +0.000 N 
ATOM      2  C   UNL     1       2.021   6.883  20.049  0.00  0.00    +0.000 C 
ATOM      3  C   UNL     1       1.857   8.224  20.794  0.00  0.00    +0.000 C 
ATOM      4  N   UNL     1       1.074   9.195  20.008  0.00  0.00    +0.000 N 
ATOM      5  C   UNL     1      -0.108   9.680  20.550  0.00  0.00    +0.000 C 
ATOM      6  O   UNL     1      -0.464   9.362  21.688  0.00  0.00    +0.000 OA
ATOM      7  C   UNL     1       1.560   9.366  18.628  0.00  0.00    +0.000 C 
ATOM      8  C   UNL     1       1.705   8.008  17.905  0.00  0.00    +0.000 C 
ENDROOT
BRANCH   1  15
ATOM      9  C   UNL     1       6.237   5.641  15.679  0.00  0.00    +0.000 C 
ATOM     10  C   UNL     1       5.026   5.333  16.508  0.00  0.00    +0.000 A 
ATOM     11  C   UNL     1       4.495   4.045  16.544  0.00  0.00    +0.000 A 
ATOM     12  C   UNL     1       3.350   3.787  17.291  0.00  0.00    +0.000 A 
ATOM     13  C   UNL     1       2.703   4.810  18.005  0.00  0.00    +0.000 A 
ATOM     14  C   UNL     1       1.411   4.461  18.701  0.00  0.00    +0.000 C 
ATOM     15  C   UNL     1       3.243   6.119  18.017  0.00  0.00    +0.000 A 
ATOM     16  C   UNL     1       4.403   6.350  17.252  0.00  0.00    +0.000 A 
ENDBRANCH   1  15
BRANCH   5  17
ATOM     17  C   UNL     1      -0.981  10.647  19.722  0.00  0.00    +0.000 C 
ATOM     18  C   UNL     1      -1.597   9.808  18.587  0.00  0.00    +0.000 C 
ATOM     19  C   UNL     1      -2.430  10.658  17.645  0.00  0.00    +0.000 C 
ATOM     20  C   UNL     1      -1.580  11.797  17.103  0.00  0.00    +0.000 C 
ATOM     21  C   UNL     1      -1.011  12.645  18.237  0.00  0.00    +0.000 C 
ATOM     22  N   UNL     1      -0.183  11.817  19.169  0.00  0.00    +0.000 NA
BRANCH  22  23
ATOM     23  S   UNL     1       0.539  12.743  20.439  0.00  0.00    +0.000 S 
ATOM     24  O   UNL     1      -0.551  13.301  21.213  0.00  0.00    +0.000 OA
ATOM     25  O   UNL     1       1.565  11.959  21.084  0.00  0.00    +0.000 OA
BRANCH  23  26
ATOM     26  C   UNL     1       1.404  14.068  19.635  0.00  0.00    +0.000 A 
ATOM     27  C   UNL     1       2.494  13.795  18.803  0.00  0.00    +0.000 A 
ATOM     28  C   UNL     1       3.056  14.829  18.051  0.00  0.00    +0.000 A 
ATOM     29  C   UNL     1       2.518  16.111  18.133  0.00  0.00    +0.000 A 
ATOM     30  F   UNL     1       3.048  17.095  17.394  0.00  0.00    +0.000 F 
ATOM     31  C   UNL     1       1.427  16.384  18.952  0.00  0.00    +0.000 A 
ATOM     32  C   UNL     1       0.861  15.357  19.708  0.00  0.00    +0.000 A 
ENDBRANCH  23  26
ENDBRANCH  22  23
ENDBRANCH   5  17
TORSDOF 4
ENDMDL
MODEL 5
REMARK VINA RESULT:      -7.4      3.192      4.698
REMARK  Name = 
REMARK  6 active torsions:
REMARK  status: ('A' for Active; 'I' for Inactive)
REMARK    1  A    between atoms: C_1  and  C_2
REMARK    2  A    between atoms: C_5  and  C_6
REMARK    3  A    between atoms: C_7  and  N_8
REMARK    4  A    between atoms: C_12  and  C_14
REMARK    5  A    between atoms: N_19  and  S_20
REMARK    6  A    between atoms: S_20  and  C_23
REMARK                            x       y       z     vdW  Elec       q    Type
REMARK                         _______ _______ _______ _____ _____    ______ ____
ROOT
ATOM      1  N   UNL     1       2.766   7.159  18.724  0.00  0.00    +0.000 N 
ATOM      2  C   UNL     1       2.102   6.802  20.001  0.00  0.00    +0.000 C 
ATOM      3  C   UNL     1       1.829   8.095  20.798  0.00  0.00    +0.000 C 
ATOM      4  N   UNL     1       1.068   9.077  20.005  0.00  0.00    +0.000 N 
ATOM      5  C   UNL     1      -0.170   9.489  20.479  0.00  0.00    +0.000 C 
ATOM      6  O   UNL     1      -0.596   9.098  21.570  0.00  0.00    +0.000 OA
ATOM      7  C   UNL     1       1.647   9.339  18.676  0.00  0.00    +0.000 C 
ATOM      8  C   UNL     1       1.900   8.028  17.899  0.00  0.00    +0.000 C 
ENDROOT
BRANCH   1  15
ATOM      9  C   UNL     1       6.893   5.840  16.291  0.00  0.00    +0.000 C 
ATOM     10  C   UNL     1       5.526   5.503  16.809  0.00  0.00    +0.000 A 
ATOM     11  C   UNL     1       4.953   4.260  16.552  0.00  0.00    +0.000 A 
ATOM     12  C   UNL     1       3.670   3.978  17.012  0.00  0.00    +0.000 A 
ATOM     13  C   UNL     1       2.927   4.935  17.723  0.00  0.00    +0.000 A 
ATOM     14  C   UNL     1       1.508   4.582  18.091  0.00  0.00    +0.000 C 
ATOM     15  C   UNL     1       3.501   6.194  18.032  0.00  0.00    +0.000 A 
ATOM     16  C   UNL     1       4.802   6.449  17.554  0.00  0.00    +0.000 A 
ENDBRANCH   1  15
BRANCH   5  17
ATOM     17  C   UNL     1      -1.018  10.465  19.637  0.00  0.00    +0.000 C 
ATOM     18  C   UNL     1      -1.393   9.711  18.348  0.00  0.00    +0.000 C 
ATOM     19  C   UNL     1      -2.175  10.589  17.387  0.00  0.00    +0.000 C 
ATOM     20  C   UNL     1      -1.378  11.850  17.088  0.00  0.00    +0.000 C 
ATOM     21  C   UNL     1      -1.051  12.609  18.370  0.00  0.00    +0.000 C 
ATOM     22  N   UNL     1      -0.275  11.754  19.323  0.00  0.00    +0.000 NA
BRANCH  22  23
ATOM     23  S   UNL     1       0.178  12.589  20.769  0.00  0.00    +0.000 S 
ATOM     24  O   UNL     1       1.101  11.723  21.472  0.00  0.00    +0.000 OA
ATOM     25  O   UNL     1       0.551  13.945  20.445  0.00  0.00    +0.000 OA
BRANCH  23  26
ATOM     26  C   UNL     1      -1.310  12.733  21.726  0.00  0.00    +0.000 A 
ATOM     27  C   UNL     1      -2.407  13.439  21.221  0.00  0.00    +0.000 A 
ATOM     28  C   UNL     1      -3.620  13.402  21.911  0.00  0.00    +0.000 A 
ATOM     29  C   UNL     1      -3.723  12.657  23.084  0.00  0.00    +0.000 A 
ATOM     30  F   UNL     1      -4.894  12.609  23.732  0.00  0.00    +0.000 F 
ATOM     31  C   UNL     1      -2.636  11.945  23.583  0.00  0.00    +0.000 A 
ATOM     32  C   UNL     1      -1.420  11.979  22.901  0.00  0.00    +0.000 A 
ENDBRANCH  23  26
ENDBRANCH  22  23
ENDBRANCH   5  17
TORSDOF 4
ENDMDL
MODEL 6
REMARK VINA RESULT:      -7.4      4.443      7.431
REMARK  Name = 
REMARK  6 active torsions:
REMARK  status: ('A' for Active; 'I' for Inactive)
REMARK    1  A    between atoms: C_1  and  C_2
REMARK    2  A    between atoms: C_5  and  C_6
REMARK    3  A    between atoms: C_7  and  N_8
REMARK    4  A    between atoms: C_12  and  C_14
REMARK    5  A    between atoms: N_19  and  S_20
REMARK    6  A    between atoms: S_20  and  C_23
REMARK                            x       y       z     vdW  Elec       q    Type
REMARK                         _______ _______ _______ _____ _____    ______ ____
ROOT
ATOM      1  N   UNL     1       7.065  15.157  18.437  0.00  0.00    +0.000 N 
ATOM      2  C   UNL     1       6.888  15.689  19.810  0.00  0.00    +0.000 C 
ATOM      3  C   UNL     1       5.931  16.898  19.755  0.00  0.00    +0.000 C 
ATOM      4  N   UNL     1       4.656  16.558  19.097  0.00  0.00    +0.000 N 
ATOM      5  C   UNL     1       3.482  16.694  19.825  0.00  0.00    +0.000 C 
ATOM      6  O   UNL     1       3.494  17.153  20.971  0.00  0.00    +0.000 OA
ATOM      7  C   UNL     1       4.823  15.904  17.788  0.00  0.00    +0.000 C 
ATOM      8  C   UNL     1       5.778  14.693  17.876  0.00  0.00    +0.000 C 
ENDROOT
BRANCH   1  15
ATOM      9  C   UNL     1       9.230  10.690  18.213  0.00  0.00    +0.000 C 
ATOM     10  C   UNL     1       9.295  12.176  18.022  0.00  0.00    +0.000 A 
ATOM     11  C   UNL     1      10.476  12.791  17.612  0.00  0.00    +0.000 A 
ATOM     12  C   UNL     1      10.526  14.175  17.474  0.00  0.00    +0.000 A 
ATOM     13  C   UNL     1       9.406  14.974  17.757  0.00  0.00    +0.000 A 
ATOM     14  C   UNL     1       9.582  16.470  17.681  0.00  0.00    +0.000 C 
ATOM     15  C   UNL     1       8.181  14.372  18.137  0.00  0.00    +0.000 A 
ATOM     16  C   UNL     1       8.161  12.969  18.268  0.00  0.00    +0.000 A 
ENDBRANCH   1  15
BRANCH   5  17
ATOM     17  C   UNL     1       2.140  16.283  19.184  0.00  0.00    +0.000 C 
ATOM     18  C   UNL     1       1.571  17.552  18.524  0.00  0.00    +0.000 C 
ATOM     19  C   UNL     1       0.203  17.304  17.912  0.00  0.00    +0.000 C 
ATOM     20  C   UNL     1      -0.737  16.753  18.973  0.00  0.00    +0.000 C 
ATOM     21  C   UNL     1      -0.180  15.473  19.588  0.00  0.00    +0.000 C 
ATOM     22  N   UNL     1       1.166  15.708  20.200  0.00  0.00    +0.000 NA
BRANCH  22  23
ATOM     23  S   UNL     1       1.816  14.301  20.969  0.00  0.00    +0.000 S 
ATOM     24  O   UNL     1       2.419  13.501  19.923  0.00  0.00    +0.000 OA
ATOM     25  O   UNL     1       2.588  14.695  22.123  0.00  0.00    +0.000 OA
BRANCH  23  26
ATOM     26  C   UNL     1       0.419  13.423  21.624  0.00  0.00    +0.000 A 
ATOM     27  C   UNL     1       0.224  12.074  21.311  0.00  0.00    +0.000 A 
ATOM     28  C   UNL     1      -0.781  11.359  21.965  0.00  0.00    +0.000 A 
ATOM     29  C   UNL     1      -1.567  11.995  22.924  0.00  0.00    +0.000 A 
ATOM     30  F   UNL     1      -2.517  11.298  23.562  0.00  0.00    +0.000 F 
ATOM     31  C   UNL     1      -1.369  13.334  23.245  0.00  0.00    +0.000 A 
ATOM     32  C   UNL     1      -0.368  14.057  22.595  0.00  0.00    +0.000 A 
ENDBRANCH  23  26
ENDBRANCH  22  23
ENDBRANCH   5  17
TORSDOF 4
ENDMDL
MODEL 7
REMARK VINA RESULT:      -7.4      1.887      3.054
REMARK  Name = 
REMARK  6 active torsions:
REMARK  status: ('A' for Active; 'I' for Inactive)
REMARK    1  A    between atoms: C_1  and  C_2
REMARK    2  A    between atoms: C_5  and  C_6
REMARK    3  A    between atoms: C_7  and  N_8
REMARK    4  A    between atoms: C_12  and  C_14
REMARK    5  A    between atoms: N_19  and  S_20
REMARK    6  A    between atoms: S_20  and  C_23
REMARK                            x       y       z     vdW  Elec       q    Type
REMARK                         _______ _______ _______ _____ _____    ______ ____
ROOT
ATOM      1  N   UNL     1       2.718   7.148  18.739  0.00  0.00    +0.000 N 
ATOM      2  C   UNL     1       2.089   6.807  20.038  0.00  0.00    +0.000 C 
ATOM      3  C   UNL     1       1.855   8.108  20.834  0.00  0.00    +0.000 C 
ATOM      4  N   UNL     1       1.081   9.094  20.057  0.00  0.00    +0.000 N 
ATOM      5  C   UNL     1      -0.137   9.522  20.566  0.00  0.00    +0.000 C 
ATOM      6  O   UNL     1      -0.534   9.144  21.672  0.00  0.00    +0.000 OA
ATOM      7  C   UNL     1       1.622   9.339  18.710  0.00  0.00    +0.000 C 
ATOM      8  C   UNL     1       1.837   8.021  17.935  0.00  0.00    +0.000 C 
ENDROOT
BRANCH   1  15
ATOM      9  C   UNL     1       6.745   5.770  16.175  0.00  0.00    +0.000 C 
ATOM     10  C   UNL     1       5.395   5.449  16.745  0.00  0.00    +0.000 A 
ATOM     11  C   UNL     1       4.804   4.208  16.522  0.00  0.00    +0.000 A 
ATOM     12  C   UNL     1       3.536   3.941  17.030  0.00  0.00    +0.000 A 
ATOM     13  C   UNL     1       2.826   4.912  17.757  0.00  0.00    +0.000 A 
ATOM     14  C   UNL     1       1.418   4.574  18.179  0.00  0.00    +0.000 C 
ATOM     15  C   UNL     1       3.420   6.169  18.032  0.00  0.00    +0.000 A 
ATOM     16  C   UNL     1       4.705   6.409  17.505  0.00  0.00    +0.000 A 
ENDBRANCH   1  15
BRANCH   5  17
ATOM     17  C   UNL     1      -0.999  10.503  19.743  0.00  0.00    +0.000 C 
ATOM     18  C   UNL     1      -1.445   9.735  18.486  0.00  0.00    +0.000 C 
ATOM     19  C   UNL     1      -2.248  10.614  17.543  0.00  0.00    +0.000 C 
ATOM     20  C   UNL     1      -1.438  11.851  17.188  0.00  0.00    +0.000 C 
ATOM     21  C   UNL     1      -1.040  12.625  18.441  0.00  0.00    +0.000 C 
ATOM     22  N   UNL     1      -0.243  11.769  19.375  0.00  0.00    +0.000 NA
BRANCH  22  23
ATOM     23  S   UNL     1       0.290  12.618  20.785  0.00  0.00    +0.000 S 
ATOM     24  O   UNL     1      -0.840  12.664  21.689  0.00  0.00    +0.000 OA
ATOM     25  O   UNL     1       1.555  12.078  21.224  0.00  0.00    +0.000 OA
BRANCH  23  26
ATOM     26  C   UNL     1       0.654  14.268  20.243  0.00  0.00    +0.000 A 
ATOM     27  C   UNL     1      -0.116  15.345  20.696  0.00  0.00    +0.000 A 
ATOM     28  C   UNL     1       0.285  16.647  20.394  0.00  0.00    +0.000 A 
ATOM     29  C   UNL     1       1.448  16.856  19.656  0.00  0.00    +0.000 A 
ATOM     30  F   UNL     1       1.840  18.109  19.386  0.00  0.00    +0.000 F 
ATOM     31  C   UNL     1       2.223  15.788  19.213  0.00  0.00    +0.000 A 
ATOM     32  C   UNL     1       1.828  14.483  19.509  0.00  0.00    +0.000 A 
ENDBRANCH  23  26
ENDBRANCH  22  23
ENDBRANCH   5  17
TORSDOF 4
ENDMDL
MODEL 8
REMARK VINA RESULT:      -7.3      1.453      1.638
REMARK  Name = 
REMARK  6 active torsions:
REMARK  status: ('A' for Active; 'I' for Inactive)
REMARK    1  A    between atoms: C_1  and  C_2
REMARK    2  A    between atoms: C_5  and  C_6
REMARK    3  A    between atoms: C_7  and  N_8
REMARK    4  A    between atoms: C_12  and  C_14
REMARK    5  A    between atoms: N_19  and  S_20
REMARK    6  A    between atoms: S_20  and  C_23
REMARK                            x       y       z     vdW  Elec       q    Type
REMARK                         _______ _______ _______ _____ _____    ______ ____
ROOT
ATOM      1  N   UNL     1       1.446   8.429  18.865  0.00  0.00    +0.000 N 
ATOM      2  C   UNL     1       1.035   9.228  17.685  0.00  0.00    +0.000 C 
ATOM      3  C   UNL     1      -0.385   9.780  17.929  0.00  0.00    +0.000 C 
ATOM      4  N   UNL     1      -0.471  10.532  19.194  0.00  0.00    +0.000 N 
ATOM      5  C   UNL     1      -0.838  11.869  19.142  0.00  0.00    +0.000 C 
ATOM      6  O   UNL     1      -1.153  12.402  18.074  0.00  0.00    +0.000 OA
ATOM      7  C   UNL     1       0.061   9.796  20.354  0.00  0.00    +0.000 C 
ATOM      8  C   UNL     1       1.485   9.264  20.085  0.00  0.00    +0.000 C 
ENDROOT
BRANCH   1  15
ATOM      9  C   UNL     1       5.378   6.664  16.393  0.00  0.00    +0.000 C 
ATOM     10  C   UNL     1       4.412   6.568  17.536  0.00  0.00    +0.000 A 
ATOM     11  C   UNL     1       4.478   5.508  18.438  0.00  0.00    +0.000 A 
ATOM     12  C   UNL     1       3.551   5.418  19.472  0.00  0.00    +0.000 A 
ATOM     13  C   UNL     1       2.531   6.373  19.619  0.00  0.00    +0.000 A 
ATOM     14  C   UNL     1       1.510   6.138  20.703  0.00  0.00    +0.000 C 
ATOM     15  C   UNL     1       2.465   7.482  18.740  0.00  0.00    +0.000 A 
ATOM     16  C   UNL     1       3.418   7.546  17.703  0.00  0.00    +0.000 A 
ENDBRANCH   1  15
BRANCH   5  17
ATOM     17  C   UNL     1      -0.873  12.697  20.444  0.00  0.00    +0.000 C 
ATOM     18  C   UNL     1      -2.329  13.166  20.619  0.00  0.00    +0.000 C 
ATOM     19  C   UNL     1      -2.491  14.061  21.835  0.00  0.00    +0.000 C 
ATOM     20  C   UNL     1      -1.531  15.236  21.733  0.00  0.00    +0.000 C 
ATOM     21  C   UNL     1      -0.088  14.756  21.603  0.00  0.00    +0.000 C 
ATOM     22  N   UNL     1       0.084  13.878  20.404  0.00  0.00    +0.000 NA
BRANCH  22  23
ATOM     23  S   UNL     1       1.718  13.358  20.174  0.00  0.00    +0.000 S 
ATOM     24  O   UNL     1       2.044  12.515  21.305  0.00  0.00    +0.000 OA
ATOM     25  O   UNL     1       1.882  12.866  18.826  0.00  0.00    +0.000 OA
BRANCH  23  26
ATOM     26  C   UNL     1       2.706  14.829  20.255  0.00  0.00    +0.000 A 
ATOM     27  C   UNL     1       3.758  14.922  21.171  0.00  0.00    +0.000 A 
ATOM     28  C   UNL     1       4.626  16.014  21.108  0.00  0.00    +0.000 A 
ATOM     29  C   UNL     1       4.438  16.987  20.129  0.00  0.00    +0.000 A 
ATOM     30  F   UNL     1       5.286  18.023  20.060  0.00  0.00    +0.000 F 
ATOM     31  C   UNL     1       3.399  16.893  19.209  0.00  0.00    +0.000 A 
ATOM     32  C   UNL     1       2.526  15.806  19.266  0.00  0.00    +0.000 A 
ENDBRANCH  23  26
ENDBRANCH  22  23
ENDBRANCH   5  17
TORSDOF 4
ENDMDL
MODEL 9
REMARK VINA RESULT:      -7.3      3.152      4.852
REMARK  Name = 
REMARK  6 active torsions:
REMARK  status: ('A' for Active; 'I' for Inactive)
REMARK    1  A    between atoms: C_1  and  C_2
REMARK    2  A    between atoms: C_5  and  C_6
REMARK    3  A    between atoms: C_7  and  N_8
REMARK    4  A    between atoms: C_12  and  C_14
REMARK    5  A    between atoms: N_19  and  S_20
REMARK    6  A    between atoms: S_20  and  C_23
REMARK                            x       y       z     vdW  Elec       q    Type
REMARK                         _______ _______ _______ _____ _____    ______ ____
ROOT
ATOM      1  N   UNL     1       2.499   7.003  18.704  0.00  0.00    +0.000 N 
ATOM      2  C   UNL     1       1.921   6.793  20.053  0.00  0.00    +0.000 C 
ATOM      3  C   UNL     1       1.795   8.160  20.758  0.00  0.00    +0.000 C 
ATOM      4  N   UNL     1       1.035   9.128  19.947  0.00  0.00    +0.000 N 
ATOM      5  C   UNL     1      -0.131   9.660  20.478  0.00  0.00    +0.000 C 
ATOM      6  O   UNL     1      -0.491   9.386  21.627  0.00  0.00    +0.000 OA
ATOM      7  C   UNL     1       1.519   9.244  18.560  0.00  0.00    +0.000 C 
ATOM      8  C   UNL     1       1.625   7.862  17.878  0.00  0.00    +0.000 C 
ENDROOT
BRANCH   1  15
ATOM      9  C   UNL     1       2.598   2.179  17.515  0.00  0.00    +0.000 C 
ATOM     10  C   UNL     1       3.204   3.549  17.437  0.00  0.00    +0.000 A 
ATOM     11  C   UNL     1       4.406   3.760  16.766  0.00  0.00    +0.000 A 
ATOM     12  C   UNL     1       4.970   5.032  16.734  0.00  0.00    +0.000 A 
ATOM     13  C   UNL     1       4.355   6.115  17.384  0.00  0.00    +0.000 A 
ATOM     14  C   UNL     1       5.089   7.433  17.386  0.00  0.00    +0.000 C 
ATOM     15  C   UNL     1       3.112   5.937  18.041  0.00  0.00    +0.000 A 
ATOM     16  C   UNL     1       2.566   4.638  18.055  0.00  0.00    +0.000 A 
ENDBRANCH   1  15
BRANCH   5  17
ATOM     17  C   UNL     1      -0.983  10.624  19.625  0.00  0.00    +0.000 C 
ATOM     18  C   UNL     1      -1.358   9.853  18.347  0.00  0.00    +0.000 C 
ATOM     19  C   UNL     1      -2.143  10.717  17.376  0.00  0.00    +0.000 C 
ATOM     20  C   UNL     1      -1.348  11.975  17.059  0.00  0.00    +0.000 C 
ATOM     21  C   UNL     1      -1.020  12.751  18.331  0.00  0.00    +0.000 C 
ATOM     22  N   UNL     1      -0.241  11.910  19.293  0.00  0.00    +0.000 NA
BRANCH  22  23
ATOM     23  S   UNL     1       0.213  12.764  20.727  0.00  0.00    +0.000 S 
ATOM     24  O   UNL     1       1.180  11.932  21.412  0.00  0.00    +0.000 OA
ATOM     25  O   UNL     1       0.533  14.131  20.393  0.00  0.00    +0.000 OA
BRANCH  23  26
ATOM     26  C   UNL     1      -1.258  12.860  21.715  0.00  0.00    +0.000 A 
ATOM     27  C   UNL     1      -2.417  13.449  21.198  0.00  0.00    +0.000 A 
ATOM     28  C   UNL     1      -3.607  13.368  21.923  0.00  0.00    +0.000 A 
ATOM     29  C   UNL     1      -3.626  12.695  23.143  0.00  0.00    +0.000 A 
ATOM     30  F   UNL     1      -4.775  12.602  23.825  0.00  0.00    +0.000 F 
ATOM     31  C   UNL     1      -2.478  12.098  23.655  0.00  0.00    +0.000 A 
ATOM     32  C   UNL     1      -1.284  12.177  22.938  0.00  0.00    +0.000 A 
ENDBRANCH  23  26
ENDBRANCH  22  23
ENDBRANCH   5  17
TORSDOF 4
ENDMDL
