MODEL 1
REMARK VINA RESULT:      -6.8      0.000      0.000
REMARK  Name = 
REMARK  8 active torsions:
REMARK  status: ('A' for Active; 'I' for Inactive)
REMARK    1  A    between atoms: C_1  and  O_2
REMARK    2  A    between atoms: O_2  and  C_3
REMARK    3  A    between atoms: C_11  and  C_12
REMARK    4  A    between atoms: C_12  and  N_13
REMARK    5  A    between atoms: N_13  and  C_14
REMARK    6  A    between atoms: C_14  and  C_15
REMARK    7  A    between atoms: C_15  and  O_16
REMARK    8  A    between atoms: O_16  and  C_17
REMARK                            x       y       z     vdW  Elec       q    Type
REMARK                         _______ _______ _______ _____ _____    ______ ____
ROOT
ATOM      1  C   UNL     1       0.039   9.882  21.008  0.00  0.00    +0.000 A 
ATOM      2  C   UNL     1       0.368   8.795  21.815  0.00  0.00    +0.000 A 
ATOM      3  C   UNL     1       1.190   7.776  21.321  0.00  0.00    +0.000 A 
ATOM      4  C   UNL     1       1.696   7.839  20.016  0.00  0.00    +0.000 A 
ATOM      5  C   UNL     1       1.415   8.963  19.226  0.00  0.00    +0.000 A 
ATOM      6  C   UNL     1       0.584   9.972  19.729  0.00  0.00    +0.000 A 
ATOM      7  C   UNL     1       1.922   9.098  17.815  0.00  0.00    +0.000 C 
ATOM      8  C   UNL     1       3.070   8.147  17.497  0.00  0.00    +0.000 C 
ATOM      9  C   UNL     1       2.724   6.726  17.970  0.00  0.00    +0.000 C 
ATOM     10  C   UNL     1       2.576   6.728  19.506  0.00  0.00    +0.000 C 
ENDROOT
BRANCH   1  12
ATOM     11  C   UNL     1      -0.861  10.790  22.976  0.00  0.00    +0.000 C 
ATOM     12  O   UNL     1      -0.793  10.823  21.552  0.00  0.00    +0.000 OA
ENDBRANCH   1  12
BRANCH   9  13
ATOM     13  C   UNL     1       3.794   5.726  17.513  0.00  0.00    +0.000 C 
BRANCH  13  14
ATOM     14  N   UNL     1       5.044   5.910  18.260  0.00  0.00    +0.000 NA
ATOM     15  H   UNL     1       4.842   6.329  19.168  0.00  0.00    +0.000 HD
BRANCH  14  16
ATOM     16  C   UNL     1       5.774   4.651  18.460  0.00  0.00    +0.000 C 
BRANCH  16  17
ATOM     17  C   UNL     1       5.177   3.776  19.566  0.00  0.00    +0.000 C 
BRANCH  17  18
ATOM     18  O   UNL     1       4.432   2.695  18.991  0.00  0.00    +0.000 OA
BRANCH  18  19
ATOM     19  C   UNL     1       3.097   2.796  19.330  0.00  0.00    +0.000 A 
ATOM     20  C   UNL     1       2.779   3.273  20.591  0.00  0.00    +0.000 A 
ATOM     21  C   UNL     1       1.429   3.394  20.925  0.00  0.00    +0.000 A 
ATOM     22  C   UNL     1       0.466   3.043  19.996  0.00  0.00    +0.000 A 
ATOM     23  C   UNL     1       0.877   2.576  18.758  0.00  0.00    +0.000 A 
ATOM     24  N   UNL     1       2.165   2.443  18.415  0.00  0.00    +0.000 NA
ENDBRANCH  18  19
ENDBRANCH  17  18
ENDBRANCH  16  17
ENDBRANCH  14  16
ENDBRANCH  13  14
ENDBRANCH   9  13
TORSDOF 7
ENDMDL
MODEL 2
REMARK VINA RESULT:      -6.7      1.994      4.272
REMARK  Name = 
REMARK  8 active torsions:
REMARK  status: ('A' for Active; 'I' for Inactive)
REMARK    1  A    between atoms: C_1  and  O_2
REMARK    2  A    between atoms: O_2  and  C_3
REMARK    3  A    between atoms: C_11  and  C_12
REMARK    4  A    between atoms: C_12  and  N_13
REMARK    5  A    between atoms: N_13  and  C_14
REMARK    6  A    between atoms: C_14  and  C_15
REMARK    7  A    between atoms: C_15  and  O_16
REMARK    8  A    between atoms: O_16  and  C_17
REMARK                            x       y       z     vdW  Elec       q    Type
REMARK                         _______ _______ _______ _____ _____    ______ ____
ROOT
ATOM      1  C   UNL     1       0.661  10.323  19.365  0.00  0.00    +0.000 A 
ATOM      2  C   UNL     1       1.365  10.270  18.164  0.00  0.00    +0.000 A 
ATOM      3  C   UNL     1       2.138   9.146  17.852  0.00  0.00    +0.000 A 
ATOM      4  C   UNL     1       2.209   8.062  18.737  0.00  0.00    +0.000 A 
ATOM      5  C   UNL     1       1.451   8.091  19.917  0.00  0.00    +0.000 A 
ATOM      6  C   UNL     1       0.688   9.225  20.222  0.00  0.00    +0.000 A 
ATOM      7  C   UNL     1       1.480   6.964  20.915  0.00  0.00    +0.000 C 
ATOM      8  C   UNL     1       2.043   5.670  20.342  0.00  0.00    +0.000 C 
ATOM      9  C   UNL     1       3.352   5.952  19.588  0.00  0.00    +0.000 C 
ATOM     10  C   UNL     1       3.051   6.865  18.381  0.00  0.00    +0.000 C 
ENDROOT
BRANCH   1  12
ATOM     11  C   UNL     1       0.184  12.033  20.900  0.00  0.00    +0.000 C 
ATOM     12  O   UNL     1      -0.050  11.467  19.612  0.00  0.00    +0.000 OA
ENDBRANCH   1  12
BRANCH   9  13
ATOM     13  C   UNL     1       4.018   4.643  19.145  0.00  0.00    +0.000 C 
BRANCH  13  14
ATOM     14  N   UNL     1       3.228   3.972  18.106  0.00  0.00    +0.000 NA
ATOM     15  H   UNL     1       2.666   4.661  17.605  0.00  0.00    +0.000 HD
BRANCH  14  16
ATOM     16  C   UNL     1       4.064   3.240  17.145  0.00  0.00    +0.000 C 
BRANCH  16  17
ATOM     17  C   UNL     1       4.906   4.156  16.254  0.00  0.00    +0.000 C 
BRANCH  17  18
ATOM     18  O   UNL     1       6.300   3.890  16.450  0.00  0.00    +0.000 OA
BRANCH  18  19
ATOM     19  C   UNL     1       6.889   4.910  17.170  0.00  0.00    +0.000 A 
ATOM     20  C   UNL     1       6.874   6.184  16.627  0.00  0.00    +0.000 A 
ATOM     21  C   UNL     1       7.452   7.217  17.365  0.00  0.00    +0.000 A 
ATOM     22  C   UNL     1       8.010   6.941  18.601  0.00  0.00    +0.000 A 
ATOM     23  C   UNL     1       7.979   5.635  19.065  0.00  0.00    +0.000 A 
ATOM     24  N   UNL     1       7.437   4.624  18.373  0.00  0.00    +0.000 NA
ENDBRANCH  18  19
ENDBRANCH  17  18
ENDBRANCH  16  17
ENDBRANCH  14  16
ENDBRANCH  13  14
ENDBRANCH   9  13
TORSDOF 7
ENDMDL
MODEL 3
REMARK VINA RESULT:      -6.7      1.308      2.182
REMARK  Name = 
REMARK  8 active torsions:
REMARK  status: ('A' for Active; 'I' for Inactive)
REMARK    1  A    between atoms: C_1  and  O_2
REMARK    2  A    between atoms: O_2  and  C_3
REMARK    3  A    between atoms: C_11  and  C_12
REMARK    4  A    between atoms: C_12  and  N_13
REMARK    5  A    between atoms: N_13  and  C_14
REMARK    6  A    between atoms: C_14  and  C_15
REMARK    7  A    between atoms: C_15  and  O_16
REMARK    8  A    between atoms: O_16  and  C_17
REMARK                            x       y       z     vdW  Elec       q    Type
REMARK                         _______ _______ _______ _____ _____    ______ ____
ROOT
ATOM      1  C   UNL     1       0.193  10.046  20.354  0.00  0.00    +0.000 A 
ATOM      2  C   UNL     1       0.358  10.532  19.059  0.00  0.00    +0.000 A 
ATOM      3  C   UNL     1       1.191   9.860  18.157  0.00  0.00    +0.000 A 
ATOM      4  C   UNL     1       1.861   8.691  18.542  0.00  0.00    +0.000 A 
ATOM      5  C   UNL     1       1.646   8.169  19.826  0.00  0.00    +0.000 A 
ATOM      6  C   UNL     1       0.817   8.855  20.721  0.00  0.00    +0.000 A 
ATOM      7  C   UNL     1       2.333   6.920  20.308  0.00  0.00    +0.000 C 
ATOM      8  C   UNL     1       2.918   6.082  19.177  0.00  0.00    +0.000 C 
ATOM      9  C   UNL     1       3.715   6.977  18.216  0.00  0.00    +0.000 C 
ATOM     10  C   UNL     1       2.756   7.988  17.555  0.00  0.00    +0.000 C 
ENDROOT
BRANCH   1  12
ATOM     11  C   UNL     1      -0.608  12.176  20.927  0.00  0.00    +0.000 C 
ATOM     12  O   UNL     1      -0.615  10.774  21.186  0.00  0.00    +0.000 OA
ENDBRANCH   1  12
BRANCH   9  13
ATOM     13  C   UNL     1       4.446   6.131  17.166  0.00  0.00    +0.000 C 
BRANCH  13  14
ATOM     14  N   UNL     1       4.865   4.841  17.723  0.00  0.00    +0.000 NA
ATOM     15  H   UNL     1       4.415   4.696  18.628  0.00  0.00    +0.000 HD
BRANCH  14  16
ATOM     16  C   UNL     1       4.547   3.712  16.839  0.00  0.00    +0.000 C 
BRANCH  16  17
ATOM     17  C   UNL     1       3.079   3.283  16.910  0.00  0.00    +0.000 C 
BRANCH  17  18
ATOM     18  O   UNL     1       2.944   2.117  17.731  0.00  0.00    +0.000 OA
BRANCH  18  19
ATOM     19  C   UNL     1       2.476   2.461  18.984  0.00  0.00    +0.000 A 
ATOM     20  C   UNL     1       1.168   2.907  19.090  0.00  0.00    +0.000 A 
ATOM     21  C   UNL     1       0.690   3.235  20.359  0.00  0.00    +0.000 A 
ATOM     22  C   UNL     1       1.523   3.102  21.455  0.00  0.00    +0.000 A 
ATOM     23  C   UNL     1       2.817   2.648  21.254  0.00  0.00    +0.000 A 
ATOM     24  N   UNL     1       3.303   2.333  20.046  0.00  0.00    +0.000 NA
ENDBRANCH  18  19
ENDBRANCH  17  18
ENDBRANCH  16  17
ENDBRANCH  14  16
ENDBRANCH  13  14
ENDBRANCH   9  13
TORSDOF 7
ENDMDL
MODEL 4
REMARK VINA RESULT:      -6.7      0.822      1.698
REMARK  Name = 
REMARK  8 active torsions:
REMARK  status: ('A' for Active; 'I' for Inactive)
REMARK    1  A    between atoms: C_1  and  O_2
REMARK    2  A    between atoms: O_2  and  C_3
REMARK    3  A    between atoms: C_11  and  C_12
REMARK    4  A    between atoms: C_12  and  N_13
REMARK    5  A    between atoms: N_13  and  C_14
REMARK    6  A    between atoms: C_14  and  C_15
REMARK    7  A    between atoms: C_15  and  O_16
REMARK    8  A    between atoms: O_16  and  C_17
REMARK                            x       y       z     vdW  Elec       q    Type
REMARK                         _______ _______ _______ _____ _____    ______ ____
ROOT
ATOM      1  C   UNL     1       0.088  10.792  20.507  0.00  0.00    +0.000 A 
ATOM      2  C   UNL     1       0.412  11.237  19.227  0.00  0.00    +0.000 A 
ATOM      3  C   UNL     1       1.174  10.430  18.374  0.00  0.00    +0.000 A 
ATOM      4  C   UNL     1       1.613   9.167  18.793  0.00  0.00    +0.000 A 
ATOM      5  C   UNL     1       1.235   8.694  20.058  0.00  0.00    +0.000 A 
ATOM      6  C   UNL     1       0.480   9.515  20.905  0.00  0.00    +0.000 A 
ATOM      7  C   UNL     1       1.671   7.350  20.575  0.00  0.00    +0.000 C 
ATOM      8  C   UNL     1       2.175   6.420  19.477  0.00  0.00    +0.000 C 
ATOM      9  C   UNL     1       3.169   7.164  18.572  0.00  0.00    +0.000 C 
ATOM     10  C   UNL     1       2.435   8.318  17.858  0.00  0.00    +0.000 C 
ENDROOT
BRANCH   1  12
ATOM     11  C   UNL     1      -0.725  11.252  22.659  0.00  0.00    +0.000 C 
ATOM     12  O   UNL     1      -0.635  11.649  21.292  0.00  0.00    +0.000 OA
ENDBRANCH   1  12
BRANCH   9  13
ATOM     13  C   UNL     1       3.810   6.202  17.563  0.00  0.00    +0.000 C 
BRANCH  13  14
ATOM     14  N   UNL     1       5.267   6.157  17.726  0.00  0.00    +0.000 NA
ATOM     15  H   UNL     1       5.620   7.098  17.905  0.00  0.00    +0.000 HD
BRANCH  14  16
ATOM     16  C   UNL     1       5.689   5.267  18.816  0.00  0.00    +0.000 C 
BRANCH  16  17
ATOM     17  C   UNL     1       5.342   3.797  18.564  0.00  0.00    +0.000 C 
BRANCH  17  18
ATOM     18  O   UNL     1       4.860   3.191  19.770  0.00  0.00    +0.000 OA
BRANCH  18  19
ATOM     19  C   UNL     1       3.492   3.016  19.708  0.00  0.00    +0.000 A 
ATOM     20  C   UNL     1       2.777   3.048  20.894  0.00  0.00    +0.000 A 
ATOM     21  C   UNL     1       1.392   2.892  20.828  0.00  0.00    +0.000 A 
ATOM     22  C   UNL     1       0.786   2.717  19.597  0.00  0.00    +0.000 A 
ATOM     23  C   UNL     1       1.581   2.699  18.462  0.00  0.00    +0.000 A 
ATOM     24  N   UNL     1       2.913   2.839  18.498  0.00  0.00    +0.000 NA
ENDBRANCH  18  19
ENDBRANCH  17  18
ENDBRANCH  16  17
ENDBRANCH  14  16
ENDBRANCH  13  14
ENDBRANCH   9  13
TORSDOF 7
ENDMDL
MODEL 5
REMARK VINA RESULT:      -6.6      3.075      5.855
REMARK  Name = 
REMARK  8 active torsions:
REMARK  status: ('A' for Active; 'I' for Inactive)
REMARK    1  A    between atoms: C_1  and  O_2
REMARK    2  A    between atoms: O_2  and  C_3
REMARK    3  A    between atoms: C_11  and  C_12
REMARK    4  A    between atoms: C_12  and  N_13
REMARK    5  A    between atoms: N_13  and  C_14
REMARK    6  A    between atoms: C_14  and  C_15
REMARK    7  A    between atoms: C_15  and  O_16
REMARK    8  A    between atoms: O_16  and  C_17
REMARK                            x       y       z     vdW  Elec       q    Type
REMARK                         _______ _______ _______ _____ _____    ______ ____
ROOT
ATOM      1  C   UNL     1       6.812   5.548  16.151  0.00  0.00    +0.000 A 
ATOM      2  C   UNL     1       7.072   4.752  17.264  0.00  0.00    +0.000 A 
ATOM      3  C   UNL     1       6.190   4.753  18.351  0.00  0.00    +0.000 A 
ATOM      4  C   UNL     1       5.036   5.548  18.330  0.00  0.00    +0.000 A 
ATOM      5  C   UNL     1       4.744   6.302  17.184  0.00  0.00    +0.000 A 
ATOM      6  C   UNL     1       5.639   6.298  16.107  0.00  0.00    +0.000 A 
ATOM      7  C   UNL     1       3.525   7.180  17.092  0.00  0.00    +0.000 C 
ATOM      8  C   UNL     1       2.468   6.850  18.140  0.00  0.00    +0.000 C 
ATOM      9  C   UNL     1       3.121   6.725  19.525  0.00  0.00    +0.000 C 
ATOM     10  C   UNL     1       4.104   5.536  19.514  0.00  0.00    +0.000 C 
ENDROOT
BRANCH   1  12
ATOM     11  C   UNL     1       7.269   4.894  13.944  0.00  0.00    +0.000 C 
ATOM     12  O   UNL     1       7.736   5.515  15.141  0.00  0.00    +0.000 OA
ENDBRANCH   1  12
BRANCH   9  13
ATOM     13  C   UNL     1       2.055   6.556  20.615  0.00  0.00    +0.000 C 
BRANCH  13  14
ATOM     14  N   UNL     1       2.129   5.225  21.228  0.00  0.00    +0.000 NA
ATOM     15  H   UNL     1       2.104   5.314  22.244  0.00  0.00    +0.000 HD
BRANCH  14  16
ATOM     16  C   UNL     1       1.039   4.341  20.794  0.00  0.00    +0.000 C 
BRANCH  16  17
ATOM     17  C   UNL     1       1.282   2.869  21.139  0.00  0.00    +0.000 C 
BRANCH  17  18
ATOM     18  O   UNL     1       0.979   2.041  20.010  0.00  0.00    +0.000 OA
BRANCH  18  19
ATOM     19  C   UNL     1       1.802   2.355  18.947  0.00  0.00    +0.000 A 
ATOM     20  C   UNL     1       3.046   1.747  18.885  0.00  0.00    +0.000 A 
ATOM     21  C   UNL     1       3.869   2.051  17.800  0.00  0.00    +0.000 A 
ATOM     22  C   UNL     1       3.421   2.932  16.832  0.00  0.00    +0.000 A 
ATOM     23  C   UNL     1       2.161   3.491  16.977  0.00  0.00    +0.000 A 
ATOM     24  N   UNL     1       1.355   3.224  18.012  0.00  0.00    +0.000 NA
ENDBRANCH  18  19
ENDBRANCH  17  18
ENDBRANCH  16  17
ENDBRANCH  14  16
ENDBRANCH  13  14
ENDBRANCH   9  13
TORSDOF 7
ENDMDL
MODEL 6
REMARK VINA RESULT:      -6.5      0.974      1.244
REMARK  Name = 
REMARK  8 active torsions:
REMARK  status: ('A' for Active; 'I' for Inactive)
REMARK    1  A    between atoms: C_1  and  O_2
REMARK    2  A    between atoms: O_2  and  C_3
REMARK    3  A    between atoms: C_11  and  C_12
REMARK    4  A    between atoms: C_12  and  N_13
REMARK    5  A    between atoms: N_13  and  C_14
REMARK    6  A    between atoms: C_14  and  C_15
REMARK    7  A    between atoms: C_15  and  O_16
REMARK    8  A    between atoms: O_16  and  C_17
REMARK                            x       y       z     vdW  Elec       q    Type
REMARK                         _______ _______ _______ _____ _____    ______ ____
ROOT
ATOM      1  C   UNL     1       0.533  10.696  21.362  0.00  0.00    +0.000 A 
ATOM      2  C   UNL     1       0.784   9.611  22.198  0.00  0.00    +0.000 A 
ATOM      3  C   UNL     1       1.326   8.431  21.674  0.00  0.00    +0.000 A 
ATOM      4  C   UNL     1       1.628   8.331  20.310  0.00  0.00    +0.000 A 
ATOM      5  C   UNL     1       1.433   9.446  19.481  0.00  0.00    +0.000 A 
ATOM      6  C   UNL     1       0.882  10.617  20.015  0.00  0.00    +0.000 A 
ATOM      7  C   UNL     1       1.732   9.410  18.006  0.00  0.00    +0.000 C 
ATOM      8  C   UNL     1       2.630   8.246  17.605  0.00  0.00    +0.000 C 
ATOM      9  C   UNL     1       2.114   6.942  18.232  0.00  0.00    +0.000 C 
ATOM     10  C   UNL     1       2.207   7.050  19.768  0.00  0.00    +0.000 C 
ENDROOT
BRANCH   1  12
ATOM     11  C   UNL     1      -1.434  11.712  22.143  0.00  0.00    +0.000 C 
ATOM     12  O   UNL     1      -0.025  11.804  21.943  0.00  0.00    +0.000 OA
ENDBRANCH   1  12
BRANCH   9  13
ATOM     13  C   UNL     1       2.906   5.737  17.709  0.00  0.00    +0.000 C 
BRANCH  13  14
ATOM     14  N   UNL     1       4.346   6.016  17.691  0.00  0.00    +0.000 NA
ATOM     15  H   UNL     1       4.574   6.686  18.427  0.00  0.00    +0.000 HD
BRANCH  14  16
ATOM     16  C   UNL     1       5.160   4.806  17.871  0.00  0.00    +0.000 C 
BRANCH  16  17
ATOM     17  C   UNL     1       5.327   4.402  19.338  0.00  0.00    +0.000 C 
BRANCH  17  18
ATOM     18  O   UNL     1       4.897   3.048  19.529  0.00  0.00    +0.000 OA
BRANCH  18  19
ATOM     19  C   UNL     1       3.523   2.992  19.653  0.00  0.00    +0.000 A 
ATOM     20  C   UNL     1       2.817   2.232  18.734  0.00  0.00    +0.000 A 
ATOM     21  C   UNL     1       1.430   2.160  18.873  0.00  0.00    +0.000 A 
ATOM     22  C   UNL     1       0.815   2.835  19.912  0.00  0.00    +0.000 A 
ATOM     23  C   UNL     1       1.602   3.570  20.784  0.00  0.00    +0.000 A 
ATOM     24  N   UNL     1       2.933   3.663  20.669  0.00  0.00    +0.000 NA
ENDBRANCH  18  19
ENDBRANCH  17  18
ENDBRANCH  16  17
ENDBRANCH  14  16
ENDBRANCH  13  14
ENDBRANCH   9  13
TORSDOF 7
ENDMDL
MODEL 7
REMARK VINA RESULT:      -6.5      1.969      3.977
REMARK  Name = 
REMARK  8 active torsions:
REMARK  status: ('A' for Active; 'I' for Inactive)
REMARK    1  A    between atoms: C_1  and  O_2
REMARK    2  A    between atoms: O_2  and  C_3
REMARK    3  A    between atoms: C_11  and  C_12
REMARK    4  A    between atoms: C_12  and  N_13
REMARK    5  A    between atoms: N_13  and  C_14
REMARK    6  A    between atoms: C_14  and  C_15
REMARK    7  A    between atoms: C_15  and  O_16
REMARK    8  A    between atoms: O_16  and  C_17
REMARK                            x       y       z     vdW  Elec       q    Type
REMARK                         _______ _______ _______ _____ _____    ______ ____
ROOT
ATOM      1  C   UNL     1       0.481  11.101  19.528  0.00  0.00    +0.000 A 
ATOM      2  C   UNL     1       0.326  10.506  20.778  0.00  0.00    +0.000 A 
ATOM      3  C   UNL     1       0.830   9.222  21.013  0.00  0.00    +0.000 A 
ATOM      4  C   UNL     1       1.501   8.524  20.001  0.00  0.00    +0.000 A 
ATOM      5  C   UNL     1       1.711   9.147  18.762  0.00  0.00    +0.000 A 
ATOM      6  C   UNL     1       1.194  10.429  18.536  0.00  0.00    +0.000 A 
ATOM      7  C   UNL     1       2.421   8.458  17.628  0.00  0.00    +0.000 C 
ATOM      8  C   UNL     1       3.228   7.245  18.075  0.00  0.00    +0.000 C 
ATOM      9  C   UNL     1       2.378   6.355  18.995  0.00  0.00    +0.000 C 
ATOM     10  C   UNL     1       2.031   7.141  20.277  0.00  0.00    +0.000 C 
ENDROOT
BRANCH   1  12
ATOM     11  C   UNL     1      -1.087  12.411  18.373  0.00  0.00    +0.000 C 
ATOM     12  O   UNL     1      -0.064  12.346  19.365  0.00  0.00    +0.000 OA
ENDBRANCH   1  12
BRANCH   9  13
ATOM     13  C   UNL     1       3.114   5.051  19.322  0.00  0.00    +0.000 C 
BRANCH  13  14
ATOM     14  N   UNL     1       2.557   3.923  18.567  0.00  0.00    +0.000 NA
ATOM     15  H   UNL     1       1.543   4.021  18.504  0.00  0.00    +0.000 HD
BRANCH  14  16
ATOM     16  C   UNL     1       3.115   3.817  17.212  0.00  0.00    +0.000 C 
BRANCH  16  17
ATOM     17  C   UNL     1       4.643   3.723  17.194  0.00  0.00    +0.000 C 
BRANCH  17  18
ATOM     18  O   UNL     1       5.192   4.766  16.379  0.00  0.00    +0.000 OA
BRANCH  18  19
ATOM     19  C   UNL     1       6.121   5.497  17.092  0.00  0.00    +0.000 A 
ATOM     20  C   UNL     1       6.657   4.929  18.237  0.00  0.00    +0.000 A 
ATOM     21  C   UNL     1       7.611   5.662  18.946  0.00  0.00    +0.000 A 
ATOM     22  C   UNL     1       7.988   6.911  18.487  0.00  0.00    +0.000 A 
ATOM     23  C   UNL     1       7.398   7.399  17.332  0.00  0.00    +0.000 A 
ATOM     24  N   UNL     1       6.475   6.721  16.637  0.00  0.00    +0.000 NA
ENDBRANCH  18  19
ENDBRANCH  17  18
ENDBRANCH  16  17
ENDBRANCH  14  16
ENDBRANCH  13  14
ENDBRANCH   9  13
TORSDOF 7
ENDMDL
MODEL 8
REMARK VINA RESULT:      -6.4      3.128      5.084
REMARK  Name = 
REMARK  8 active torsions:
REMARK  status: ('A' for Active; 'I' for Inactive)
REMARK    1  A    between atoms: C_1  and  O_2
REMARK    2  A    between atoms: O_2  and  C_3
REMARK    3  A    between atoms: C_11  and  C_12
REMARK    4  A    between atoms: C_12  and  N_13
REMARK    5  A    between atoms: N_13  and  C_14
REMARK    6  A    between atoms: C_14  and  C_15
REMARK    7  A    between atoms: C_15  and  O_16
REMARK    8  A    between atoms: O_16  and  C_17
REMARK                            x       y       z     vdW  Elec       q    Type
REMARK                         _______ _______ _______ _____ _____    ______ ____
ROOT
ATOM      1  C   UNL     1       1.266   9.548  19.812  0.00  0.00    +0.000 A 
ATOM      2  C   UNL     1       1.544   9.546  18.447  0.00  0.00    +0.000 A 
ATOM      3  C   UNL     1       2.047   8.393  17.834  0.00  0.00    +0.000 A 
ATOM      4  C   UNL     1       2.270   7.229  18.582  0.00  0.00    +0.000 A 
ATOM      5  C   UNL     1       1.931   7.213  19.943  0.00  0.00    +0.000 A 
ATOM      6  C   UNL     1       1.437   8.376  20.546  0.00  0.00    +0.000 A 
ATOM      7  C   UNL     1       2.145   6.000  20.808  0.00  0.00    +0.000 C 
ATOM      8  C   UNL     1       2.348   4.720  20.005  0.00  0.00    +0.000 C 
ATOM      9  C   UNL     1       3.375   4.956  18.888  0.00  0.00    +0.000 C 
ATOM     10  C   UNL     1       2.815   6.000  17.900  0.00  0.00    +0.000 C 
ENDROOT
BRANCH   1  12
ATOM     11  C   UNL     1      -0.461  11.138  19.832  0.00  0.00    +0.000 C 
ATOM     12  O   UNL     1       0.804  10.722  20.344  0.00  0.00    +0.000 OA
ENDBRANCH   1  12
BRANCH   9  13
ATOM     13  C   UNL     1       3.715   3.640  18.175  0.00  0.00    +0.000 C 
BRANCH  13  14
ATOM     14  N   UNL     1       5.159   3.385  18.194  0.00  0.00    +0.000 NA
ATOM     15  H   UNL     1       5.413   2.798  17.399  0.00  0.00    +0.000 HD
BRANCH  14  16
ATOM     16  C   UNL     1       5.953   4.620  18.154  0.00  0.00    +0.000 C 
BRANCH  16  17
ATOM     17  C   UNL     1       6.566   4.902  16.780  0.00  0.00    +0.000 C 
BRANCH  17  18
ATOM     18  O   UNL     1       6.067   3.966  15.816  0.00  0.00    +0.000 OA
BRANCH  18  19
ATOM     19  C   UNL     1       6.579   4.244  14.564  0.00  0.00    +0.000 A 
ATOM     20  C   UNL     1       6.102   3.513  13.488  0.00  0.00    +0.000 A 
ATOM     21  C   UNL     1       6.606   3.809  12.221  0.00  0.00    +0.000 A 
ATOM     22  C   UNL     1       7.549   4.812  12.081  0.00  0.00    +0.000 A 
ATOM     23  C   UNL     1       7.967   5.491  13.214  0.00  0.00    +0.000 A 
ATOM     24  N   UNL     1       7.505   5.222  14.443  0.00  0.00    +0.000 NA
ENDBRANCH  18  19
ENDBRANCH  17  18
ENDBRANCH  16  17
ENDBRANCH  14  16
ENDBRANCH  13  14
ENDBRANCH   9  13
TORSDOF 7
ENDMDL
MODEL 9
REMARK VINA RESULT:      -6.4      1.077      1.879
REMARK  Name = 
REMARK  8 active torsions:
REMARK  status: ('A' for Active; 'I' for Inactive)
REMARK    1  A    between atoms: C_1  and  O_2
REMARK    2  A    between atoms: O_2  and  C_3
REMARK    3  A    between atoms: C_11  and  C_12
REMARK    4  A    between atoms: C_12  and  N_13
REMARK    5  A    between atoms: N_13  and  C_14
REMARK    6  A    between atoms: C_14  and  C_15
REMARK    7  A    between atoms: C_15  and  O_16
REMARK    8  A    between atoms: O_16  and  C_17
REMARK                            x       y       z     vdW  Elec       q    Type
REMARK                         _______ _______ _______ _____ _____    ______ ____
ROOT
ATOM      1  C   UNL     1      -0.180  10.219  20.506  0.00  0.00    +0.000 A 
ATOM      2  C   UNL     1      -0.035  10.780  19.240  0.00  0.00    +0.000 A 
ATOM      3  C   UNL     1       0.822  10.191  18.304  0.00  0.00    +0.000 A 
ATOM      4  C   UNL     1       1.539   9.030  18.626  0.00  0.00    +0.000 A 
ATOM      5  C   UNL     1       1.346   8.432  19.880  0.00  0.00    +0.000 A 
ATOM      6  C   UNL     1       0.491   9.036  20.810  0.00  0.00    +0.000 A 
ATOM      7  C   UNL     1       2.082   7.187  20.295  0.00  0.00    +0.000 C 
ATOM      8  C   UNL     1       2.698   6.435  19.121  0.00  0.00    +0.000 C 
ATOM      9  C   UNL     1       3.459   7.411  18.210  0.00  0.00    +0.000 C 
ATOM     10  C   UNL     1       2.459   8.416  17.603  0.00  0.00    +0.000 C 
ENDROOT
BRANCH   1  12
ATOM     11  C   UNL     1      -0.592  10.818  22.738  0.00  0.00    +0.000 C 
ATOM     12  O   UNL     1      -1.014  10.869  21.376  0.00  0.00    +0.000 OA
ENDBRANCH   1  12
BRANCH   9  13
ATOM     13  C   UNL     1       4.221   6.652  17.117  0.00  0.00    +0.000 C 
BRANCH  13  14
ATOM     14  N   UNL     1       4.674   5.342  17.598  0.00  0.00    +0.000 NA
ATOM     15  H   UNL     1       4.180   5.104  18.459  0.00  0.00    +0.000 HD
BRANCH  14  16
ATOM     16  C   UNL     1       4.467   4.273  16.612  0.00  0.00    +0.000 C 
BRANCH  16  17
ATOM     17  C   UNL     1       3.477   3.203  17.078  0.00  0.00    +0.000 C 
BRANCH  17  18
ATOM     18  O   UNL     1       3.948   2.585  18.282  0.00  0.00    +0.000 OA
BRANCH  18  19
ATOM     19  C   UNL     1       3.014   2.719  19.290  0.00  0.00    +0.000 A 
ATOM     20  C   UNL     1       3.430   2.511  20.595  0.00  0.00    +0.000 A 
ATOM     21  C   UNL     1       2.489   2.667  21.614  0.00  0.00    +0.000 A 
ATOM     22  C   UNL     1       1.192   3.023  21.293  0.00  0.00    +0.000 A 
ATOM     23  C   UNL     1       0.866   3.211  19.960  0.00  0.00    +0.000 A 
ATOM     24  N   UNL     1       1.747   3.061  18.962  0.00  0.00    +0.000 NA
ENDBRANCH  18  19
ENDBRANCH  17  18
ENDBRANCH  16  17
ENDBRANCH  14  16
ENDBRANCH  13  14
ENDBRANCH   9  13
TORSDOF 7
ENDMDL
