MODEL 1
REMARK VINA RESULT:      -8.7      0.000      0.000
REMARK  Name = 
REMARK  7 active torsions:
REMARK  status: ('A' for Active; 'I' for Inactive)
REMARK    1  A    between atoms: C_1  and  C_2
REMARK    2  A    between atoms: C_2  and  C_3
REMARK    3  A    between atoms: C_2  and  C_12
REMARK    4  A    between atoms: N_5  and  C_6
REMARK    5  A    between atoms: C_15  and  N_16
REMARK    6  A    between atoms: N_16  and  C_17
REMARK    7  A    between atoms: C_21  and  C_22
REMARK                            x       y       z     vdW  Elec       q    Type
REMARK                         _______ _______ _______ _____ _____    ______ ____
ROOT
ATOM      1  C   UNL     1       2.143   6.945  19.816  0.00  0.00    +0.000 A 
ATOM      2  C   UNL     1       1.485   7.632  20.845  0.00  0.00    +0.000 A 
ATOM      3  C   UNL     1       0.972   8.918  20.629  0.00  0.00    +0.000 A 
ATOM      4  C   UNL     1       1.123   9.549  19.391  0.00  0.00    +0.000 A 
ATOM      5  C   UNL     1       1.746   8.841  18.357  0.00  0.00    +0.000 A 
ATOM      6  C   UNL     1       2.253   7.559  18.562  0.00  0.00    +0.000 A 
ENDROOT
BRANCH   1   8
ATOM      7  C   UNL     1       1.410   4.639  20.357  0.00  0.00    +0.000 C 
ATOM      8  C   UNL     1       2.622   5.518  20.033  0.00  0.00    +0.000 C 
BRANCH   8   9
ATOM      9  C   UNL     1       3.400   4.946  18.837  0.00  0.00    +0.000 C 
ATOM     10  O   UNL     1       3.058   3.894  18.298  0.00  0.00    +0.000 OA
ATOM     11  N   UNL     1       4.509   5.702  18.475  0.00  0.00    +0.000 N 
ATOM     12  H   UNL     1       4.769   6.464  19.087  0.00  0.00    +0.000 HD
BRANCH  11  13
ATOM     13  C   UNL     1       5.376   5.419  17.392  0.00  0.00    +0.000 A 
ATOM     14  C   UNL     1       5.057   5.662  16.057  0.00  0.00    +0.000 A 
ATOM     15  C   UNL     1       5.947   5.297  15.046  0.00  0.00    +0.000 A 
ATOM     16  C   UNL     1       7.146   4.708  15.405  0.00  0.00    +0.000 A 
ATOM     17  N   UNL     1       7.518   4.497  16.684  0.00  0.00    +0.000 NA
ATOM     18  C   UNL     1       6.629   4.863  17.643  0.00  0.00    +0.000 A 
ENDBRANCH  11  13
ENDBRANCH   8   9
ENDBRANCH   1   8
BRANCH   4  19
ATOM     19  N   UNL     1       0.613  10.850  19.184  0.00  0.00    +0.000 N 
ATOM     20  H   UNL     1       1.233  11.422  18.616  0.00  0.00    +0.000 HD
BRANCH  19  21
ATOM     21  C   UNL     1      -0.738  11.205  18.951  0.00  0.00    +0.000 A 
ATOM     22  C   UNL     1      -1.496  11.904  19.888  0.00  0.00    +0.000 A 
ATOM     23  C   UNL     1      -2.819  12.184  19.605  0.00  0.00    +0.000 A 
ATOM     24  N   UNL     1      -3.434  11.804  18.468  0.00  0.00    +0.000 NA
ATOM     25  C   UNL     1      -2.702  11.108  17.553  0.00  0.00    +0.000 A 
ATOM     26  C   UNL     1      -1.356  10.799  17.767  0.00  0.00    +0.000 A 
BRANCH  25  27
ATOM     27  C   UNL     1      -3.369  10.635  16.269  0.00  0.00    +0.000 C 
ATOM     28  F   UNL     1      -3.229   9.303  16.018  0.00  0.00    +0.000 F 
ATOM     29  F   UNL     1      -4.711  10.879  16.252  0.00  0.00    +0.000 F 
ATOM     30  F   UNL     1      -2.871  11.272  15.167  0.00  0.00    +0.000 F 
ENDBRANCH  25  27
ENDBRANCH  19  21
ENDBRANCH   4  19
TORSDOF 6
ENDMDL
MODEL 2
REMARK VINA RESULT:      -8.6      4.653      9.166
REMARK  Name = 
REMARK  7 active torsions:
REMARK  status: ('A' for Active; 'I' for Inactive)
REMARK    1  A    between atoms: C_1  and  C_2
REMARK    2  A    between atoms: C_2  and  C_3
REMARK    3  A    between atoms: C_2  and  C_12
REMARK    4  A    between atoms: N_5  and  C_6
REMARK    5  A    between atoms: C_15  and  N_16
REMARK    6  A    between atoms: N_16  and  C_17
REMARK    7  A    between atoms: C_21  and  C_22
REMARK                            x       y       z     vdW  Elec       q    Type
REMARK                         _______ _______ _______ _____ _____    ______ ____
ROOT
ATOM      1  C   UNL     1       0.913   9.610  20.226  0.00  0.00    +0.000 A 
ATOM      2  C   UNL     1       1.559   9.217  19.046  0.00  0.00    +0.000 A 
ATOM      3  C   UNL     1       2.151   7.952  18.944  0.00  0.00    +0.000 A 
ATOM      4  C   UNL     1       2.128   7.062  20.022  0.00  0.00    +0.000 A 
ATOM      5  C   UNL     1       1.448   7.446  21.184  0.00  0.00    +0.000 A 
ATOM      6  C   UNL     1       0.850   8.701  21.290  0.00  0.00    +0.000 A 
ENDROOT
BRANCH   1   8
ATOM      7  C   UNL     1       1.230  12.033  20.639  0.00  0.00    +0.000 C 
ATOM      8  C   UNL     1       0.200  10.950  20.300  0.00  0.00    +0.000 C 
BRANCH   8   9
ATOM      9  C   UNL     1      -0.558  11.311  19.012  0.00  0.00    +0.000 C 
ATOM     10  O   UNL     1      -0.272  12.318  18.364  0.00  0.00    +0.000 OA
ATOM     11  N   UNL     1      -1.585  10.428  18.700  0.00  0.00    +0.000 N 
ATOM     12  H   UNL     1      -1.815   9.724  19.388  0.00  0.00    +0.000 HD
BRANCH  11  13
ATOM     13  C   UNL     1      -2.415  10.508  17.555  0.00  0.00    +0.000 A 
ATOM     14  C   UNL     1      -2.166   9.828  16.365  0.00  0.00    +0.000 A 
ATOM     15  C   UNL     1      -3.004  10.010  15.264  0.00  0.00    +0.000 A 
ATOM     16  C   UNL     1      -4.084  10.865  15.393  0.00  0.00    +0.000 A 
ATOM     17  N   UNL     1      -4.392  11.507  16.538  0.00  0.00    +0.000 NA
ATOM     18  C   UNL     1      -3.556  11.308  17.589  0.00  0.00    +0.000 A 
ENDBRANCH  11  13
ENDBRANCH   8   9
ENDBRANCH   1   8
BRANCH   4  19
ATOM     19  N   UNL     1       2.737   5.793  19.916  0.00  0.00    +0.000 N 
ATOM     20  H   UNL     1       2.094   5.036  20.138  0.00  0.00    +0.000 HD
BRANCH  19  21
ATOM     21  C   UNL     1       3.668   5.377  18.934  0.00  0.00    +0.000 A 
ATOM     22  C   UNL     1       3.280   4.707  17.776  0.00  0.00    +0.000 A 
ATOM     23  C   UNL     1       4.251   4.301  16.880  0.00  0.00    +0.000 A 
ATOM     24  N   UNL     1       5.569   4.505  17.067  0.00  0.00    +0.000 NA
ATOM     25  C   UNL     1       5.957   5.148  18.204  0.00  0.00    +0.000 A 
ATOM     26  C   UNL     1       5.030   5.597  19.149  0.00  0.00    +0.000 A 
BRANCH  25  27
ATOM     27  C   UNL     1       7.439   5.372  18.466  0.00  0.00    +0.000 C 
ATOM     28  F   UNL     1       7.764   5.515  19.782  0.00  0.00    +0.000 F 
ATOM     29  F   UNL     1       8.216   4.352  17.999  0.00  0.00    +0.000 F 
ATOM     30  F   UNL     1       7.907   6.496  17.846  0.00  0.00    +0.000 F 
ENDBRANCH  25  27
ENDBRANCH  19  21
ENDBRANCH   4  19
TORSDOF 6
ENDMDL
MODEL 3
REMARK VINA RESULT:      -8.5      0.743      1.059
REMARK  Name = 
REMARK  7 active torsions:
REMARK  status: ('A' for Active; 'I' for Inactive)
REMARK    1  A    between atoms: C_1  and  C_2
REMARK    2  A    between atoms: C_2  and  C_3
REMARK    3  A    between atoms: C_2  and  C_12
REMARK    4  A    between atoms: N_5  and  C_6
REMARK    5  A    between atoms: C_15  and  N_16
REMARK    6  A    between atoms: N_16  and  C_17
REMARK    7  A    between atoms: C_21  and  C_22
REMARK                            x       y       z     vdW  Elec       q    Type
REMARK                         _______ _______ _______ _____ _____    ______ ____
ROOT
ATOM      1  C   UNL     1       2.194   6.899  19.805  0.00  0.00    +0.000 A 
ATOM      2  C   UNL     1       1.498   7.329  20.943  0.00  0.00    +0.000 A 
ATOM      3  C   UNL     1       0.925   8.606  20.988  0.00  0.00    +0.000 A 
ATOM      4  C   UNL     1       1.053   9.486  19.909  0.00  0.00    +0.000 A 
ATOM      5  C   UNL     1       1.716   9.037  18.761  0.00  0.00    +0.000 A 
ATOM      6  C   UNL     1       2.283   7.764  18.706  0.00  0.00    +0.000 A 
ENDROOT
BRANCH   1   8
ATOM      7  C   UNL     1       1.628   4.509  20.135  0.00  0.00    +0.000 C 
ATOM      8  C   UNL     1       2.740   5.482  19.731  0.00  0.00    +0.000 C 
BRANCH   8   9
ATOM      9  C   UNL     1       3.302   5.115  18.348  0.00  0.00    +0.000 C 
ATOM     10  O   UNL     1       2.587   4.618  17.479  0.00  0.00    +0.000 OA
ATOM     11  N   UNL     1       4.663   5.362  18.213  0.00  0.00    +0.000 N 
ATOM     12  H   UNL     1       5.170   5.634  19.045  0.00  0.00    +0.000 HD
BRANCH  11  13
ATOM     13  C   UNL     1       5.423   5.148  17.037  0.00  0.00    +0.000 A 
ATOM     14  C   UNL     1       5.145   4.153  16.102  0.00  0.00    +0.000 A 
ATOM     15  C   UNL     1       5.982   3.972  15.000  0.00  0.00    +0.000 A 
ATOM     16  C   UNL     1       7.075   4.808  14.859  0.00  0.00    +0.000 A 
ATOM     17  N   UNL     1       7.357   5.815  15.711  0.00  0.00    +0.000 NA
ATOM     18  C   UNL     1       6.523   5.963  16.772  0.00  0.00    +0.000 A 
ENDBRANCH  11  13
ENDBRANCH   8   9
ENDBRANCH   1   8
BRANCH   4  19
ATOM     19  N   UNL     1       0.483  10.777  19.966  0.00  0.00    +0.000 N 
ATOM     20  H   UNL     1       1.170  11.510  19.811  0.00  0.00    +0.000 HD
BRANCH  19  21
ATOM     21  C   UNL     1      -0.780  11.170  19.462  0.00  0.00    +0.000 A 
ATOM     22  C   UNL     1      -1.663  11.958  20.196  0.00  0.00    +0.000 A 
ATOM     23  C   UNL     1      -2.894  12.271  19.652  0.00  0.00    +0.000 A 
ATOM     24  N   UNL     1      -3.304  11.843  18.442  0.00  0.00    +0.000 NA
ATOM     25  C   UNL     1      -2.450  11.061  17.723  0.00  0.00    +0.000 A 
ATOM     26  C   UNL     1      -1.185  10.713  18.206  0.00  0.00    +0.000 A 
BRANCH  25  27
ATOM     27  C   UNL     1      -2.888  10.534  16.364  0.00  0.00    +0.000 C 
ATOM     28  F   UNL     1      -2.635  11.378  15.324  0.00  0.00    +0.000 F 
ATOM     29  F   UNL     1      -2.288   9.352  16.039  0.00  0.00    +0.000 F 
ATOM     30  F   UNL     1      -4.230  10.283  16.318  0.00  0.00    +0.000 F 
ENDBRANCH  25  27
ENDBRANCH  19  21
ENDBRANCH   4  19
TORSDOF 6
ENDMDL
MODEL 4
REMARK VINA RESULT:      -8.5      1.313      1.449
REMARK  Name = 
REMARK  7 active torsions:
REMARK  status: ('A' for Active; 'I' for Inactive)
REMARK    1  A    between atoms: C_1  and  C_2
REMARK    2  A    between atoms: C_2  and  C_3
REMARK    3  A    between atoms: C_2  and  C_12
REMARK    4  A    between atoms: N_5  and  C_6
REMARK    5  A    between atoms: C_15  and  N_16
REMARK    6  A    between atoms: N_16  and  C_17
REMARK    7  A    between atoms: C_21  and  C_22
REMARK                            x       y       z     vdW  Elec       q    Type
REMARK                         _______ _______ _______ _____ _____    ______ ____
ROOT
ATOM      1  C   UNL     1       2.390   6.171  19.632  0.00  0.00    +0.000 A 
ATOM      2  C   UNL     1       1.685   6.519  20.792  0.00  0.00    +0.000 A 
ATOM      3  C   UNL     1       1.181   7.815  20.958  0.00  0.00    +0.000 A 
ATOM      4  C   UNL     1       1.388   8.794  19.981  0.00  0.00    +0.000 A 
ATOM      5  C   UNL     1       2.060   8.430  18.808  0.00  0.00    +0.000 A 
ATOM      6  C   UNL     1       2.558   7.139  18.633  0.00  0.00    +0.000 A 
ENDROOT
BRANCH   1   8
ATOM      7  C   UNL     1       1.754   3.964  18.701  0.00  0.00    +0.000 C 
ATOM      8  C   UNL     1       2.860   4.741  19.421  0.00  0.00    +0.000 C 
BRANCH   8   9
ATOM      9  C   UNL     1       4.184   4.640  18.646  0.00  0.00    +0.000 C 
ATOM     10  O   UNL     1       5.233   4.332  19.211  0.00  0.00    +0.000 OA
ATOM     11  N   UNL     1       4.071   4.962  17.299  0.00  0.00    +0.000 N 
ATOM     12  H   UNL     1       3.187   5.342  16.986  0.00  0.00    +0.000 HD
BRANCH  11  13
ATOM     13  C   UNL     1       5.125   4.920  16.354  0.00  0.00    +0.000 A 
ATOM     14  C   UNL     1       5.197   3.999  15.310  0.00  0.00    +0.000 A 
ATOM     15  C   UNL     1       6.302   3.989  14.460  0.00  0.00    +0.000 A 
ATOM     16  C   UNL     1       7.305   4.917  14.672  0.00  0.00    +0.000 A 
ATOM     17  N   UNL     1       7.258   5.857  15.637  0.00  0.00    +0.000 NA
ATOM     18  C   UNL     1       6.169   5.839  16.448  0.00  0.00    +0.000 A 
ENDBRANCH  11  13
ENDBRANCH   8   9
ENDBRANCH   1   8
BRANCH   4  19
ATOM     19  N   UNL     1       0.886  10.102  20.161  0.00  0.00    +0.000 N 
ATOM     20  H   UNL     1       1.585  10.734  20.546  0.00  0.00    +0.000 HD
BRANCH  19  21
ATOM     21  C   UNL     1       0.011  10.802  19.296  0.00  0.00    +0.000 A 
ATOM     22  C   UNL     1       0.110  12.175  19.087  0.00  0.00    +0.000 A 
ATOM     23  C   UNL     1      -0.804  12.795  18.256  0.00  0.00    +0.000 A 
ATOM     24  N   UNL     1      -1.809  12.144  17.638  0.00  0.00    +0.000 NA
ATOM     25  C   UNL     1      -1.920  10.802  17.849  0.00  0.00    +0.000 A 
ATOM     26  C   UNL     1      -1.025  10.108  18.667  0.00  0.00    +0.000 A 
BRANCH  25  27
ATOM     27  C   UNL     1      -3.059  10.037  17.191  0.00  0.00    +0.000 C 
ATOM     28  F   UNL     1      -3.574   9.028  17.951  0.00  0.00    +0.000 F 
ATOM     29  F   UNL     1      -4.116  10.838  16.870  0.00  0.00    +0.000 F 
ATOM     30  F   UNL     1      -2.676   9.454  16.016  0.00  0.00    +0.000 F 
ENDBRANCH  25  27
ENDBRANCH  19  21
ENDBRANCH   4  19
TORSDOF 6
ENDMDL
MODEL 5
REMARK VINA RESULT:      -8.5      0.623      1.378
REMARK  Name = 
REMARK  7 active torsions:
REMARK  status: ('A' for Active; 'I' for Inactive)
REMARK    1  A    between atoms: C_1  and  C_2
REMARK    2  A    between atoms: C_2  and  C_3
REMARK    3  A    between atoms: C_2  and  C_12
REMARK    4  A    between atoms: N_5  and  C_6
REMARK    5  A    between atoms: C_15  and  N_16
REMARK    6  A    between atoms: N_16  and  C_17
REMARK    7  A    between atoms: C_21  and  C_22
REMARK                            x       y       z     vdW  Elec       q    Type
REMARK                         _______ _______ _______ _____ _____    ______ ____
ROOT
ATOM      1  C   UNL     1       2.103   6.776  19.715  0.00  0.00    +0.000 A 
ATOM      2  C   UNL     1       2.267   7.406  18.473  0.00  0.00    +0.000 A 
ATOM      3  C   UNL     1       1.857   8.732  18.287  0.00  0.00    +0.000 A 
ATOM      4  C   UNL     1       1.258   9.449  19.328  0.00  0.00    +0.000 A 
ATOM      5  C   UNL     1       1.133   8.826  20.575  0.00  0.00    +0.000 A 
ATOM      6  C   UNL     1       1.545   7.508  20.770  0.00  0.00    +0.000 A 
ENDROOT
BRANCH   1   8
ATOM      7  C   UNL     1       1.443   4.450  20.260  0.00  0.00    +0.000 C 
ATOM      8  C   UNL     1       2.627   5.365  19.933  0.00  0.00    +0.000 C 
BRANCH   8   9
ATOM      9  C   UNL     1       3.419   4.816  18.736  0.00  0.00    +0.000 C 
ATOM     10  O   UNL     1       3.067   3.790  18.154  0.00  0.00    +0.000 OA
ATOM     11  N   UNL     1       4.552   5.558  18.425  0.00  0.00    +0.000 N 
ATOM     12  H   UNL     1       4.814   6.294  19.067  0.00  0.00    +0.000 HD
BRANCH  11  13
ATOM     13  C   UNL     1       5.438   5.292  17.352  0.00  0.00    +0.000 A 
ATOM     14  C   UNL     1       5.124   5.509  16.012  0.00  0.00    +0.000 A 
ATOM     15  C   UNL     1       6.035   5.163  15.014  0.00  0.00    +0.000 A 
ATOM     16  C   UNL     1       7.249   4.617  15.390  0.00  0.00    +0.000 A 
ATOM     17  N   UNL     1       7.616   4.433  16.674  0.00  0.00    +0.000 NA
ATOM     18  C   UNL     1       6.707   4.780  17.621  0.00  0.00    +0.000 A 
ENDBRANCH  11  13
ENDBRANCH   8   9
ENDBRANCH   1   8
BRANCH   4  19
ATOM     19  N   UNL     1       0.837  10.782  19.129  0.00  0.00    +0.000 N 
ATOM     20  H   UNL     1       1.363  11.247  18.393  0.00  0.00    +0.000 HD
BRANCH  19  21
ATOM     21  C   UNL     1      -0.492  11.267  19.170  0.00  0.00    +0.000 A 
ATOM     22  C   UNL     1      -0.898  12.252  20.069  0.00  0.00    +0.000 A 
ATOM     23  C   UNL     1      -2.221  12.650  20.074  0.00  0.00    +0.000 A 
ATOM     24  N   UNL     1      -3.160  12.127  19.261  0.00  0.00    +0.000 NA
ATOM     25  C   UNL     1      -2.771  11.154  18.388  0.00  0.00    +0.000 A 
ATOM     26  C   UNL     1      -1.448  10.710  18.319  0.00  0.00    +0.000 A 
BRANCH  25  27
ATOM     27  C   UNL     1      -3.808  10.518  17.473  0.00  0.00    +0.000 C 
ATOM     28  F   UNL     1      -4.333  11.364  16.541  0.00  0.00    +0.000 F 
ATOM     29  F   UNL     1      -3.312   9.456  16.774  0.00  0.00    +0.000 F 
ATOM     30  F   UNL     1      -4.877  10.027  18.168  0.00  0.00    +0.000 F 
ENDBRANCH  25  27
ENDBRANCH  19  21
ENDBRANCH   4  19
TORSDOF 6
ENDMDL
MODEL 6
REMARK VINA RESULT:      -8.4      1.119      1.223
REMARK  Name = 
REMARK  7 active torsions:
REMARK  status: ('A' for Active; 'I' for Inactive)
REMARK    1  A    between atoms: C_1  and  C_2
REMARK    2  A    between atoms: C_2  and  C_3
REMARK    3  A    between atoms: C_2  and  C_12
REMARK    4  A    between atoms: N_5  and  C_6
REMARK    5  A    between atoms: C_15  and  N_16
REMARK    6  A    between atoms: N_16  and  C_17
REMARK    7  A    between atoms: C_21  and  C_22
REMARK                            x       y       z     vdW  Elec       q    Type
REMARK                         _______ _______ _______ _____ _____    ______ ____
ROOT
ATOM      1  C   UNL     1       2.344   7.216  19.396  0.00  0.00    +0.000 A 
ATOM      2  C   UNL     1       1.607   7.925  20.356  0.00  0.00    +0.000 A 
ATOM      3  C   UNL     1       1.050   9.172  20.048  0.00  0.00    +0.000 A 
ATOM      4  C   UNL     1       1.234   9.747  18.786  0.00  0.00    +0.000 A 
ATOM      5  C   UNL     1       1.938   9.017  17.821  0.00  0.00    +0.000 A 
ATOM      6  C   UNL     1       2.489   7.770  18.118  0.00  0.00    +0.000 A 
ENDROOT
BRANCH   1   8
ATOM      7  C   UNL     1       1.772   4.804  19.408  0.00  0.00    +0.000 C 
ATOM      8  C   UNL     1       2.873   5.826  19.711  0.00  0.00    +0.000 C 
BRANCH   8   9
ATOM      9  C   UNL     1       4.160   5.475  18.947  0.00  0.00    +0.000 C 
ATOM     10  O   UNL     1       5.203   5.208  19.543  0.00  0.00    +0.000 OA
ATOM     11  N   UNL     1       4.025   5.530  17.565  0.00  0.00    +0.000 N 
ATOM     12  H   UNL     1       3.159   5.904  17.199  0.00  0.00    +0.000 HD
BRANCH  11  13
ATOM     13  C   UNL     1       5.041   5.222  16.628  0.00  0.00    +0.000 A 
ATOM     14  C   UNL     1       5.089   4.039  15.894  0.00  0.00    +0.000 A 
ATOM     15  C   UNL     1       6.161   3.789  15.036  0.00  0.00    +0.000 A 
ATOM     16  C   UNL     1       7.154   4.745  14.927  0.00  0.00    +0.000 A 
ATOM     17  N   UNL     1       7.128   5.924  15.581  0.00  0.00    +0.000 NA
ATOM     18  C   UNL     1       6.071   6.135  16.408  0.00  0.00    +0.000 A 
ENDBRANCH  11  13
ENDBRANCH   8   9
ENDBRANCH   1   8
BRANCH   4  19
ATOM     19  N   UNL     1       0.679  11.010  18.487  0.00  0.00    +0.000 N 
ATOM     20  H   UNL     1       0.981  11.360  17.581  0.00  0.00    +0.000 HD
BRANCH  19  21
ATOM     21  C   UNL     1      -0.637  11.448  18.772  0.00  0.00    +0.000 A 
ATOM     22  C   UNL     1      -0.938  12.224  19.889  0.00  0.00    +0.000 A 
ATOM     23  C   UNL     1      -2.253  12.583  20.120  0.00  0.00    +0.000 A 
ATOM     24  N   UNL     1      -3.277  12.213  19.327  0.00  0.00    +0.000 NA
ATOM     25  C   UNL     1      -2.990  11.443  18.239  0.00  0.00    +0.000 A 
ATOM     26  C   UNL     1      -1.683  11.051  17.937  0.00  0.00    +0.000 A 
BRANCH  25  27
ATOM     27  C   UNL     1      -4.123  10.980  17.335  0.00  0.00    +0.000 C 
ATOM     28  F   UNL     1      -3.764  10.037  16.418  0.00  0.00    +0.000 F 
ATOM     29  F   UNL     1      -5.167  10.443  18.031  0.00  0.00    +0.000 F 
ATOM     30  F   UNL     1      -4.660  12.009  16.614  0.00  0.00    +0.000 F 
ENDBRANCH  25  27
ENDBRANCH  19  21
ENDBRANCH   4  19
TORSDOF 6
ENDMDL
MODEL 7
REMARK VINA RESULT:      -8.4      4.062      9.060
REMARK  Name = 
REMARK  7 active torsions:
REMARK  status: ('A' for Active; 'I' for Inactive)
REMARK    1  A    between atoms: C_1  and  C_2
REMARK    2  A    between atoms: C_2  and  C_3
REMARK    3  A    between atoms: C_2  and  C_12
REMARK    4  A    between atoms: N_5  and  C_6
REMARK    5  A    between atoms: C_15  and  N_16
REMARK    6  A    between atoms: N_16  and  C_17
REMARK    7  A    between atoms: C_21  and  C_22
REMARK                            x       y       z     vdW  Elec       q    Type
REMARK                         _______ _______ _______ _____ _____    ______ ____
ROOT
ATOM      1  C   UNL     1       1.227   8.857  19.905  0.00  0.00    +0.000 A 
ATOM      2  C   UNL     1       1.809   8.720  18.637  0.00  0.00    +0.000 A 
ATOM      3  C   UNL     1       2.498   7.551  18.292  0.00  0.00    +0.000 A 
ATOM      4  C   UNL     1       2.639   6.506  19.210  0.00  0.00    +0.000 A 
ATOM      5  C   UNL     1       2.023   6.634  20.461  0.00  0.00    +0.000 A 
ATOM      6  C   UNL     1       1.329   7.792  20.809  0.00  0.00    +0.000 A 
ENDROOT
BRANCH   1   8
ATOM      7  C   UNL     1       1.340  11.142  20.860  0.00  0.00    +0.000 C 
ATOM      8  C   UNL     1       0.409  10.094  20.242  0.00  0.00    +0.000 C 
BRANCH   8   9
ATOM      9  C   UNL     1      -0.338  10.680  19.034  0.00  0.00    +0.000 C 
ATOM     10  O   UNL     1       0.091  11.666  18.435  0.00  0.00    +0.000 OA
ATOM     11  N   UNL     1      -1.525  10.021  18.734  0.00  0.00    +0.000 N 
ATOM     12  H   UNL     1      -1.843   9.319  19.390  0.00  0.00    +0.000 HD
BRANCH  11  13
ATOM     13  C   UNL     1      -2.387  10.334  17.655  0.00  0.00    +0.000 A 
ATOM     14  C   UNL     1      -2.215   9.855  16.358  0.00  0.00    +0.000 A 
ATOM     15  C   UNL     1      -3.078  10.262  15.340  0.00  0.00    +0.000 A 
ATOM     16  C   UNL     1      -4.104  11.133  15.656  0.00  0.00    +0.000 A 
ATOM     17  N   UNL     1      -4.340  11.585  16.905  0.00  0.00    +0.000 NA
ATOM     18  C   UNL     1      -3.481  11.170  17.871  0.00  0.00    +0.000 A 
ENDBRANCH  11  13
ENDBRANCH   8   9
ENDBRANCH   1   8
BRANCH   4  19
ATOM     19  N   UNL     1       3.346   5.334  18.859  0.00  0.00    +0.000 N 
ATOM     20  H   UNL     1       2.748   4.643  18.412  0.00  0.00    +0.000 HD
BRANCH  19  21
ATOM     21  C   UNL     1       4.661   5.260  18.342  0.00  0.00    +0.000 A 
ATOM     22  C   UNL     1       5.785   5.513  19.125  0.00  0.00    +0.000 A 
ATOM     23  C   UNL     1       7.036   5.456  18.540  0.00  0.00    +0.000 A 
ATOM     24  N   UNL     1       7.237   5.180  17.237  0.00  0.00    +0.000 NA
ATOM     25  C   UNL     1       6.140   4.943  16.462  0.00  0.00    +0.000 A 
ATOM     26  C   UNL     1       4.846   4.973  16.987  0.00  0.00    +0.000 A 
BRANCH  25  27
ATOM     27  C   UNL     1       6.324   4.655  14.979  0.00  0.00    +0.000 C 
ATOM     28  F   UNL     1       5.331   5.142  14.182  0.00  0.00    +0.000 F 
ATOM     29  F   UNL     1       7.486   5.170  14.482  0.00  0.00    +0.000 F 
ATOM     30  F   UNL     1       6.382   3.315  14.718  0.00  0.00    +0.000 F 
ENDBRANCH  25  27
ENDBRANCH  19  21
ENDBRANCH   4  19
TORSDOF 6
ENDMDL
MODEL 8
REMARK VINA RESULT:      -8.3      4.042      8.990
REMARK  Name = 
REMARK  7 active torsions:
REMARK  status: ('A' for Active; 'I' for Inactive)
REMARK    1  A    between atoms: C_1  and  C_2
REMARK    2  A    between atoms: C_2  and  C_3
REMARK    3  A    between atoms: C_2  and  C_12
REMARK    4  A    between atoms: N_5  and  C_6
REMARK    5  A    between atoms: C_15  and  N_16
REMARK    6  A    between atoms: N_16  and  C_17
REMARK    7  A    between atoms: C_21  and  C_22
REMARK                            x       y       z     vdW  Elec       q    Type
REMARK                         _______ _______ _______ _____ _____    ______ ____
ROOT
ATOM      1  C   UNL     1       1.145   8.824  19.914  0.00  0.00    +0.000 A 
ATOM      2  C   UNL     1       1.257   7.802  20.866  0.00  0.00    +0.000 A 
ATOM      3  C   UNL     1       1.986   6.640  20.583  0.00  0.00    +0.000 A 
ATOM      4  C   UNL     1       2.599   6.466  19.338  0.00  0.00    +0.000 A 
ATOM      5  C   UNL     1       2.516   7.507  18.406  0.00  0.00    +0.000 A 
ATOM      6  C   UNL     1       1.798   8.670  18.685  0.00  0.00    +0.000 A 
ENDROOT
BRANCH   1   8
ATOM      7  C   UNL     1       1.450  11.120  20.799  0.00  0.00    +0.000 C 
ATOM      8  C   UNL     1       0.424  10.117  20.260  0.00  0.00    +0.000 C 
BRANCH   8   9
ATOM      9  C   UNL     1      -0.350  10.720  19.077  0.00  0.00    +0.000 C 
ATOM     10  O   UNL     1       0.043  11.738  18.509  0.00  0.00    +0.000 OA
ATOM     11  N   UNL     1      -1.518  10.034  18.763  0.00  0.00    +0.000 N 
ATOM     12  H   UNL     1      -1.809   9.301  19.396  0.00  0.00    +0.000 HD
BRANCH  11  13
ATOM     13  C   UNL     1      -2.398  10.356  17.701  0.00  0.00    +0.000 A 
ATOM     14  C   UNL     1      -2.254   9.879  16.400  0.00  0.00    +0.000 A 
ATOM     15  C   UNL     1      -3.132  10.294  15.399  0.00  0.00    +0.000 A 
ATOM     16  C   UNL     1      -4.146  11.172  15.736  0.00  0.00    +0.000 A 
ATOM     17  N   UNL     1      -4.355  11.624  16.990  0.00  0.00    +0.000 NA
ATOM     18  C   UNL     1      -3.481  11.200  17.939  0.00  0.00    +0.000 A 
ENDBRANCH  11  13
ENDBRANCH   8   9
ENDBRANCH   1   8
BRANCH   4  19
ATOM     19  N   UNL     1       3.323   5.287  19.055  0.00  0.00    +0.000 N 
ATOM     20  H   UNL     1       2.732   4.555  18.667  0.00  0.00    +0.000 HD
BRANCH  19  21
ATOM     21  C   UNL     1       4.631   5.201  18.520  0.00  0.00    +0.000 A 
ATOM     22  C   UNL     1       5.767   5.432  19.292  0.00  0.00    +0.000 A 
ATOM     23  C   UNL     1       7.010   5.365  18.691  0.00  0.00    +0.000 A 
ATOM     24  N   UNL     1       7.192   5.101  17.382  0.00  0.00    +0.000 NA
ATOM     25  C   UNL     1       6.083   4.887  16.619  0.00  0.00    +0.000 A 
ATOM     26  C   UNL     1       4.795   4.927  17.161  0.00  0.00    +0.000 A 
BRANCH  25  27
ATOM     27  C   UNL     1       6.244   4.614  15.131  0.00  0.00    +0.000 C 
ATOM     28  F   UNL     1       6.198   3.294  14.791  0.00  0.00    +0.000 F 
ATOM     29  F   UNL     1       5.288   5.227  14.375  0.00  0.00    +0.000 F 
ATOM     30  F   UNL     1       7.437   5.075  14.649  0.00  0.00    +0.000 F 
ENDBRANCH  25  27
ENDBRANCH  19  21
ENDBRANCH   4  19
TORSDOF 6
ENDMDL
MODEL 9
REMARK VINA RESULT:      -8.3      1.765      2.230
REMARK  Name = 
REMARK  7 active torsions:
REMARK  status: ('A' for Active; 'I' for Inactive)
REMARK    1  A    between atoms: C_1  and  C_2
REMARK    2  A    between atoms: C_2  and  C_3
REMARK    3  A    between atoms: C_2  and  C_12
REMARK    4  A    between atoms: N_5  and  C_6
REMARK    5  A    between atoms: C_15  and  N_16
REMARK    6  A    between atoms: N_16  and  C_17
REMARK    7  A    between atoms: C_21  and  C_22
REMARK                            x       y       z     vdW  Elec       q    Type
REMARK                         _______ _______ _______ _____ _____    ______ ____
ROOT
ATOM      1  C   UNL     1       2.106   7.652  19.422  0.00  0.00    +0.000 A 
ATOM      2  C   UNL     1       1.319   8.298  20.386  0.00  0.00    +0.000 A 
ATOM      3  C   UNL     1       0.550   9.417  20.044  0.00  0.00    +0.000 A 
ATOM      4  C   UNL     1       0.565   9.926  18.741  0.00  0.00    +0.000 A 
ATOM      5  C   UNL     1       1.323   9.253  17.776  0.00  0.00    +0.000 A 
ATOM      6  C   UNL     1       2.086   8.133  18.107  0.00  0.00    +0.000 A 
ENDROOT
BRANCH   1   8
ATOM      7  C   UNL     1       1.931   5.445  20.538  0.00  0.00    +0.000 C 
ATOM      8  C   UNL     1       2.872   6.388  19.780  0.00  0.00    +0.000 C 
BRANCH   8   9
ATOM      9  C   UNL     1       3.483   5.678  18.562  0.00  0.00    +0.000 C 
ATOM     10  O   UNL     1       2.866   4.799  17.960  0.00  0.00    +0.000 OA
ATOM     11  N   UNL     1       4.772   6.096  18.257  0.00  0.00    +0.000 N 
ATOM     12  H   UNL     1       5.225   6.718  18.914  0.00  0.00    +0.000 HD
BRANCH  11  13
ATOM     13  C   UNL     1       5.550   5.631  17.169  0.00  0.00    +0.000 A 
ATOM     14  C   UNL     1       5.168   5.748  15.834  0.00  0.00    +0.000 A 
ATOM     15  C   UNL     1       5.967   5.207  14.826  0.00  0.00    +0.000 A 
ATOM     16  C   UNL     1       7.141   4.571  15.187  0.00  0.00    +0.000 A 
ATOM     17  N   UNL     1       7.576   4.475  16.460  0.00  0.00    +0.000 NA
ATOM     18  C   UNL     1       6.774   5.011  17.415  0.00  0.00    +0.000 A 
ENDBRANCH  11  13
ENDBRANCH   8   9
ENDBRANCH   1   8
BRANCH   4  19
ATOM     19  N   UNL     1      -0.204  11.062  18.407  0.00  0.00    +0.000 N 
ATOM     20  H   UNL     1       0.305  11.712  17.813  0.00  0.00    +0.000 HD
BRANCH  19  21
ATOM     21  C   UNL     1      -1.586  11.091  18.101  0.00  0.00    +0.000 A 
ATOM     22  C   UNL     1      -2.100  10.548  16.925  0.00  0.00    +0.000 A 
ATOM     23  C   UNL     1      -3.456  10.646  16.679  0.00  0.00    +0.000 A 
ATOM     24  N   UNL     1      -4.323  11.256  17.512  0.00  0.00    +0.000 NA
ATOM     25  C   UNL     1      -3.824  11.800  18.658  0.00  0.00    +0.000 A 
ATOM     26  C   UNL     1      -2.466  11.729  18.978  0.00  0.00    +0.000 A 
BRANCH  25  27
ATOM     27  C   UNL     1      -4.766  12.522  19.610  0.00  0.00    +0.000 C 
ATOM     28  F   UNL     1      -5.594  11.700  20.316  0.00  0.00    +0.000 F 
ATOM     29  F   UNL     1      -4.104  13.270  20.540  0.00  0.00    +0.000 F 
ATOM     30  F   UNL     1      -5.586  13.399  18.957  0.00  0.00    +0.000 F 
ENDBRANCH  25  27
ENDBRANCH  19  21
ENDBRANCH   4  19
TORSDOF 6
ENDMDL
