MODEL 1
REMARK VINA RESULT:      -7.0      0.000      0.000
REMARK  Name = 
REMARK  2 active torsions:
REMARK  status: ('A' for Active; 'I' for Inactive)
REMARK    1  A    between atoms: C_4  and  C_5
REMARK    2  A    between atoms: C_5  and  N_6
REMARK                            x       y       z     vdW  Elec       q    Type
REMARK                         _______ _______ _______ _____ _____    ______ ____
ROOT
ATOM      1  N   UNL     1       4.761   3.941  17.735  0.00  0.00    +0.000 N 
ATOM      2  C   UNL     1       3.461   3.799  17.332  0.00  0.00    +0.000 A 
ATOM      3  C   UNL     1       2.772   3.268  18.404  0.00  0.00    +0.000 A 
ATOM      4  C   UNL     1       3.757   3.117  19.415  0.00  0.00    +0.000 A 
ATOM      5  N   UNL     1       4.957   3.551  19.014  0.00  0.00    +0.000 NA
ATOM      6  C   UNL     1       3.595   2.480  20.754  0.00  0.00    +0.000 C 
ATOM      7  C   UNL     1       2.299   2.806  21.516  0.00  0.00    +0.000 C 
ATOM      8  N   UNL     1       1.337   3.729  20.912  0.00  0.00    +0.000 NA
ATOM      9  C   UNL     1       0.600   3.137  19.793  0.00  0.00    +0.000 C 
ATOM     10  C   UNL     1       1.340   2.859  18.468  0.00  0.00    +0.000 C 
ATOM     11  H   UNL     1       1.829   4.565  20.589  0.00  0.00    +0.000 HD
ENDROOT
BRANCH   1  12
ATOM     12  C   UNL     1       5.909   4.271  16.891  0.00  0.00    +0.000 C 
BRANCH  12  16
ATOM     13  C   UNL     1       8.173   7.597  18.459  0.00  0.00    +0.000 A 
ATOM     14  C   UNL     1       7.362   7.762  17.342  0.00  0.00    +0.000 A 
ATOM     15  C   UNL     1       6.639   6.682  16.838  0.00  0.00    +0.000 A 
ATOM     16  C   UNL     1       6.726   5.416  17.437  0.00  0.00    +0.000 A 
ATOM     17  C   UNL     1       7.534   5.265  18.574  0.00  0.00    +0.000 A 
ATOM     18  C   UNL     1       8.257   6.352  19.082  0.00  0.00    +0.000 A 
ENDBRANCH  12  16
ENDBRANCH   1  12
TORSDOF 2
ENDMDL
MODEL 2
REMARK VINA RESULT:      -7.0      1.387      1.442
REMARK  Name = 
REMARK  2 active torsions:
REMARK  status: ('A' for Active; 'I' for Inactive)
REMARK    1  A    between atoms: C_4  and  C_5
REMARK    2  A    between atoms: C_5  and  N_6
REMARK                            x       y       z     vdW  Elec       q    Type
REMARK                         _______ _______ _______ _____ _____    ______ ____
ROOT
ATOM      1  N   UNL     1       4.004   5.168  17.348  0.00  0.00    +0.000 N 
ATOM      2  C   UNL     1       3.671   3.861  17.120  0.00  0.00    +0.000 A 
ATOM      3  C   UNL     1       2.995   3.424  18.242  0.00  0.00    +0.000 A 
ATOM      4  C   UNL     1       2.978   4.553  19.102  0.00  0.00    +0.000 A 
ATOM      5  N   UNL     1       3.568   5.617  18.545  0.00  0.00    +0.000 NA
ATOM      6  C   UNL     1       2.474   4.619  20.504  0.00  0.00    +0.000 C 
ATOM      7  C   UNL     1       1.152   3.886  20.793  0.00  0.00    +0.000 C 
ATOM      8  N   UNL     1       0.463   3.210  19.692  0.00  0.00    +0.000 NA
ATOM      9  C   UNL     1       1.127   1.973  19.274  0.00  0.00    +0.000 C 
ATOM     10  C   UNL     1       2.477   2.057  18.531  0.00  0.00    +0.000 C 
ATOM     11  H   UNL     1       0.399   3.846  18.894  0.00  0.00    +0.000 HD
ENDROOT
BRANCH   1  12
ATOM     12  C   UNL     1       4.898   5.999  16.542  0.00  0.00    +0.000 C 
BRANCH  12  16
ATOM     13  C   UNL     1       8.405   7.280  18.712  0.00  0.00    +0.000 A 
ATOM     14  C   UNL     1       7.807   8.122  17.780  0.00  0.00    +0.000 A 
ATOM     15  C   UNL     1       6.679   7.698  17.079  0.00  0.00    +0.000 A 
ATOM     16  C   UNL     1       6.138   6.420  17.290  0.00  0.00    +0.000 A 
ATOM     17  C   UNL     1       6.740   5.586  18.245  0.00  0.00    +0.000 A 
ATOM     18  C   UNL     1       7.870   6.014  18.952  0.00  0.00    +0.000 A 
ENDBRANCH  12  16
ENDBRANCH   1  12
TORSDOF 2
ENDMDL
MODEL 3
REMARK VINA RESULT:      -6.9      0.299      1.204
REMARK  Name = 
REMARK  2 active torsions:
REMARK  status: ('A' for Active; 'I' for Inactive)
REMARK    1  A    between atoms: C_4  and  C_5
REMARK    2  A    between atoms: C_5  and  N_6
REMARK                            x       y       z     vdW  Elec       q    Type
REMARK                         _______ _______ _______ _____ _____    ______ ____
ROOT
ATOM      1  N   UNL     1       4.558   3.784  17.787  0.00  0.00    +0.000 N 
ATOM      2  C   UNL     1       3.288   3.549  17.335  0.00  0.00    +0.000 A 
ATOM      3  C   UNL     1       2.560   3.100  18.418  0.00  0.00    +0.000 A 
ATOM      4  C   UNL     1       3.492   3.093  19.488  0.00  0.00    +0.000 A 
ATOM      5  N   UNL     1       4.696   3.534  19.108  0.00  0.00    +0.000 NA
ATOM      6  C   UNL     1       3.279   2.588  20.876  0.00  0.00    +0.000 C 
ATOM      7  C   UNL     1       1.931   2.935  21.532  0.00  0.00    +0.000 C 
ATOM      8  N   UNL     1       0.971   3.751  20.787  0.00  0.00    +0.000 NA
ATOM      9  C   UNL     1       0.320   3.019  19.698  0.00  0.00    +0.000 C 
ATOM     10  C   UNL     1       1.143   2.640  18.449  0.00  0.00    +0.000 C 
ATOM     11  H   UNL     1       1.450   4.570  20.406  0.00  0.00    +0.000 HD
ENDROOT
BRANCH   1  12
ATOM     12  C   UNL     1       5.738   4.075  16.975  0.00  0.00    +0.000 C 
BRANCH  12  16
ATOM     13  C   UNL     1       7.982   7.504  18.338  0.00  0.00    +0.000 A 
ATOM     14  C   UNL     1       8.186   6.255  18.914  0.00  0.00    +0.000 A 
ATOM     15  C   UNL     1       7.453   5.154  18.473  0.00  0.00    +0.000 A 
ATOM     16  C   UNL     1       6.495   5.288  17.456  0.00  0.00    +0.000 A 
ATOM     17  C   UNL     1       6.310   6.550  16.870  0.00  0.00    +0.000 A 
ATOM     18  C   UNL     1       7.050   7.654  17.311  0.00  0.00    +0.000 A 
ENDBRANCH  12  16
ENDBRANCH   1  12
TORSDOF 2
ENDMDL
MODEL 4
REMARK VINA RESULT:      -6.8      2.973      4.144
REMARK  Name = 
REMARK  2 active torsions:
REMARK  status: ('A' for Active; 'I' for Inactive)
REMARK    1  A    between atoms: C_4  and  C_5
REMARK    2  A    between atoms: C_5  and  N_6
REMARK                            x       y       z     vdW  Elec       q    Type
REMARK                         _______ _______ _______ _____ _____    ______ ____
ROOT
ATOM      1  N   UNL     1       5.924   5.295  17.072  0.00  0.00    +0.000 N 
ATOM      2  C   UNL     1       5.388   6.551  16.980  0.00  0.00    +0.000 A 
ATOM      3  C   UNL     1       4.147   6.495  17.582  0.00  0.00    +0.000 A 
ATOM      4  C   UNL     1       4.023   5.145  18.004  0.00  0.00    +0.000 A 
ATOM      5  N   UNL     1       5.114   4.427  17.717  0.00  0.00    +0.000 NA
ATOM      6  C   UNL     1       2.830   4.490  18.616  0.00  0.00    +0.000 C 
ATOM      7  C   UNL     1       2.070   5.305  19.678  0.00  0.00    +0.000 C 
ATOM      8  N   UNL     1       2.570   6.631  20.043  0.00  0.00    +0.000 NA
ATOM      9  C   UNL     1       2.326   7.640  19.009  0.00  0.00    +0.000 C 
ATOM     10  C   UNL     1       3.125   7.574  17.691  0.00  0.00    +0.000 C 
ATOM     11  H   UNL     1       3.573   6.573  20.230  0.00  0.00    +0.000 HD
ENDROOT
BRANCH   1  12
ATOM     12  C   UNL     1       7.130   4.806  16.404  0.00  0.00    +0.000 C 
BRANCH  12  16
ATOM     13  C   UNL     1       6.670   4.218  12.151  0.00  0.00    +0.000 A 
ATOM     14  C   UNL     1       7.655   5.068  12.642  0.00  0.00    +0.000 A 
ATOM     15  C   UNL     1       7.793   5.257  14.016  0.00  0.00    +0.000 A 
ATOM     16  C   UNL     1       6.939   4.609  14.921  0.00  0.00    +0.000 A 
ATOM     17  C   UNL     1       5.959   3.741  14.416  0.00  0.00    +0.000 A 
ATOM     18  C   UNL     1       5.824   3.548  13.035  0.00  0.00    +0.000 A 
ENDBRANCH  12  16
ENDBRANCH   1  12
TORSDOF 2
ENDMDL
MODEL 5
REMARK VINA RESULT:      -6.7      4.361      4.822
REMARK  Name = 
REMARK  2 active torsions:
REMARK  status: ('A' for Active; 'I' for Inactive)
REMARK    1  A    between atoms: C_4  and  C_5
REMARK    2  A    between atoms: C_5  and  N_6
REMARK                            x       y       z     vdW  Elec       q    Type
REMARK                         _______ _______ _______ _____ _____    ______ ____
ROOT
ATOM      1  N   UNL     1       2.805   6.765  18.365  0.00  0.00    +0.000 N 
ATOM      2  C   UNL     1       2.397   6.770  19.670  0.00  0.00    +0.000 A 
ATOM      3  C   UNL     1       1.820   8.004  19.898  0.00  0.00    +0.000 A 
ATOM      4  C   UNL     1       1.938   8.680  18.655  0.00  0.00    +0.000 A 
ATOM      5  N   UNL     1       2.511   7.915  17.720  0.00  0.00    +0.000 NA
ATOM      6  C   UNL     1       1.580  10.097  18.354  0.00  0.00    +0.000 C 
ATOM      7  C   UNL     1       0.265  10.617  18.961  0.00  0.00    +0.000 C 
ATOM      8  N   UNL     1      -0.559   9.701  19.752  0.00  0.00    +0.000 NA
ATOM      9  C   UNL     1       0.007   9.416  21.073  0.00  0.00    +0.000 C 
ATOM     10  C   UNL     1       1.277   8.546  21.175  0.00  0.00    +0.000 C 
ATOM     11  H   UNL     1      -0.677   8.825  19.238  0.00  0.00    +0.000 HD
ENDROOT
BRANCH   1  12
ATOM     12  C   UNL     1       3.647   5.761  17.714  0.00  0.00    +0.000 C 
BRANCH  12  16
ATOM     13  C   UNL     1       7.840   6.425  18.509  0.00  0.00    +0.000 A 
ATOM     14  C   UNL     1       7.210   7.080  17.456  0.00  0.00    +0.000 A 
ATOM     15  C   UNL     1       5.858   6.855  17.202  0.00  0.00    +0.000 A 
ATOM     16  C   UNL     1       5.117   5.962  17.990  0.00  0.00    +0.000 A 
ATOM     17  C   UNL     1       5.758   5.319  19.061  0.00  0.00    +0.000 A 
ATOM     18  C   UNL     1       7.115   5.549  19.318  0.00  0.00    +0.000 A 
ENDBRANCH  12  16
ENDBRANCH   1  12
TORSDOF 2
ENDMDL
MODEL 6
REMARK VINA RESULT:      -6.7      0.990      2.088
REMARK  Name = 
REMARK  2 active torsions:
REMARK  status: ('A' for Active; 'I' for Inactive)
REMARK    1  A    between atoms: C_4  and  C_5
REMARK    2  A    between atoms: C_5  and  N_6
REMARK                            x       y       z     vdW  Elec       q    Type
REMARK                         _______ _______ _______ _____ _____    ______ ____
ROOT
ATOM      1  N   UNL     1       4.911   4.196  17.988  0.00  0.00    +0.000 N 
ATOM      2  C   UNL     1       4.621   4.695  19.229  0.00  0.00    +0.000 A 
ATOM      3  C   UNL     1       3.302   4.375  19.483  0.00  0.00    +0.000 A 
ATOM      4  C   UNL     1       2.878   3.683  18.319  0.00  0.00    +0.000 A 
ATOM      5  N   UNL     1       3.865   3.553  17.425  0.00  0.00    +0.000 NA
ATOM      6  C   UNL     1       1.503   3.202  17.998  0.00  0.00    +0.000 C 
ATOM      7  C   UNL     1       0.717   2.551  19.149  0.00  0.00    +0.000 C 
ATOM      8  N   UNL     1       1.363   2.411  20.456  0.00  0.00    +0.000 NA
ATOM      9  C   UNL     1       1.480   3.682  21.176  0.00  0.00    +0.000 C 
ATOM     10  C   UNL     1       2.476   4.746  20.667  0.00  0.00    +0.000 C 
ATOM     11  H   UNL     1       2.293   2.007  20.330  0.00  0.00    +0.000 HD
ENDROOT
BRANCH   1  12
ATOM     12  C   UNL     1       6.115   4.456  17.199  0.00  0.00    +0.000 C 
BRANCH  12  16
ATOM     13  C   UNL     1       8.278   7.981  18.443  0.00  0.00    +0.000 A 
ATOM     14  C   UNL     1       8.434   6.781  19.128  0.00  0.00    +0.000 A 
ATOM     15  C   UNL     1       7.727   5.649  18.724  0.00  0.00    +0.000 A 
ATOM     16  C   UNL     1       6.843   5.703  17.635  0.00  0.00    +0.000 A 
ATOM     17  C   UNL     1       6.707   6.915  16.941  0.00  0.00    +0.000 A 
ATOM     18  C   UNL     1       7.420   8.050  17.344  0.00  0.00    +0.000 A 
ENDBRANCH  12  16
ENDBRANCH   1  12
TORSDOF 2
ENDMDL
MODEL 7
REMARK VINA RESULT:      -6.7      4.434      5.034
REMARK  Name = 
REMARK  2 active torsions:
REMARK  status: ('A' for Active; 'I' for Inactive)
REMARK    1  A    between atoms: C_4  and  C_5
REMARK    2  A    between atoms: C_5  and  N_6
REMARK                            x       y       z     vdW  Elec       q    Type
REMARK                         _______ _______ _______ _____ _____    ______ ____
ROOT
ATOM      1  N   UNL     1       2.770   6.805  18.392  0.00  0.00    +0.000 N 
ATOM      2  C   UNL     1       2.322   6.862  19.683  0.00  0.00    +0.000 A 
ATOM      3  C   UNL     1       1.764   8.114  19.851  0.00  0.00    +0.000 A 
ATOM      4  C   UNL     1       1.933   8.745  18.591  0.00  0.00    +0.000 A 
ATOM      5  N   UNL     1       2.520   7.938  17.701  0.00  0.00    +0.000 NA
ATOM      6  C   UNL     1       1.615  10.158  18.232  0.00  0.00    +0.000 C 
ATOM      7  C   UNL     1       0.292  10.723  18.779  0.00  0.00    +0.000 C 
ATOM      8  N   UNL     1      -0.575   9.851  19.573  0.00  0.00    +0.000 NA
ATOM      9  C   UNL     1      -0.056   9.600  20.921  0.00  0.00    +0.000 C 
ATOM     10  C   UNL     1       1.193   8.710  21.092  0.00  0.00    +0.000 C 
ATOM     11  H   UNL     1      -0.694   8.961  19.086  0.00  0.00    +0.000 HD
ENDROOT
BRANCH   1  12
ATOM     12  C   UNL     1       3.611   5.763  17.803  0.00  0.00    +0.000 C 
BRANCH  12  16
ATOM     13  C   UNL     1       7.833   6.310  18.528  0.00  0.00    +0.000 A 
ATOM     14  C   UNL     1       7.075   5.494  19.362  0.00  0.00    +0.000 A 
ATOM     15  C   UNL     1       5.712   5.328  19.124  0.00  0.00    +0.000 A 
ATOM     16  C   UNL     1       5.082   5.985  18.056  0.00  0.00    +0.000 A 
ATOM     17  C   UNL     1       5.860   6.792  17.211  0.00  0.00    +0.000 A 
ATOM     18  C   UNL     1       7.230   6.955  17.448  0.00  0.00    +0.000 A 
ENDBRANCH  12  16
ENDBRANCH   1  12
TORSDOF 2
ENDMDL
MODEL 8
REMARK VINA RESULT:      -6.7      1.330      1.732
REMARK  Name = 
REMARK  2 active torsions:
REMARK  status: ('A' for Active; 'I' for Inactive)
REMARK    1  A    between atoms: C_4  and  C_5
REMARK    2  A    between atoms: C_5  and  N_6
REMARK                            x       y       z     vdW  Elec       q    Type
REMARK                         _______ _______ _______ _____ _____    ______ ____
ROOT
ATOM      1  N   UNL     1       4.218   5.187  17.387  0.00  0.00    +0.000 N 
ATOM      2  C   UNL     1       3.450   5.778  18.352  0.00  0.00    +0.000 A 
ATOM      3  C   UNL     1       2.534   4.829  18.763  0.00  0.00    +0.000 A 
ATOM      4  C   UNL     1       2.832   3.689  17.971  0.00  0.00    +0.000 A 
ATOM      5  N   UNL     1       3.871   3.902  17.156  0.00  0.00    +0.000 NA
ATOM      6  C   UNL     1       2.081   2.401  17.914  0.00  0.00    +0.000 C 
ATOM      7  C   UNL     1       1.596   1.830  19.257  0.00  0.00    +0.000 C 
ATOM      8  N   UNL     1       1.923   2.548  20.491  0.00  0.00    +0.000 NA
ATOM      9  C   UNL     1       1.141   3.775  20.663  0.00  0.00    +0.000 C 
ATOM     10  C   UNL     1       1.425   4.983  19.746  0.00  0.00    +0.000 C 
ATOM     11  H   UNL     1       2.919   2.779  20.492  0.00  0.00    +0.000 HD
ENDROOT
BRANCH   1  12
ATOM     12  C   UNL     1       5.185   5.848  16.511  0.00  0.00    +0.000 C 
BRANCH  12  16
ATOM     13  C   UNL     1       8.467   7.612  18.694  0.00  0.00    +0.000 A 
ATOM     14  C   UNL     1       7.810   8.335  17.705  0.00  0.00    +0.000 A 
ATOM     15  C   UNL     1       6.756   7.756  17.000  0.00  0.00    +0.000 A 
ATOM     16  C   UNL     1       6.350   6.439  17.266  0.00  0.00    +0.000 A 
ATOM     17  C   UNL     1       7.008   5.725  18.279  0.00  0.00    +0.000 A 
ATOM     18  C   UNL     1       8.065   6.309  18.989  0.00  0.00    +0.000 A 
ENDBRANCH  12  16
ENDBRANCH   1  12
TORSDOF 2
ENDMDL
MODEL 9
REMARK VINA RESULT:      -6.7      4.048      5.137
REMARK  Name = 
REMARK  2 active torsions:
REMARK  status: ('A' for Active; 'I' for Inactive)
REMARK    1  A    between atoms: C_4  and  C_5
REMARK    2  A    between atoms: C_5  and  N_6
REMARK                            x       y       z     vdW  Elec       q    Type
REMARK                         _______ _______ _______ _____ _____    ______ ____
ROOT
ATOM      1  N   UNL     1       3.079   6.306  18.120  0.00  0.00    +0.000 N 
ATOM      2  C   UNL     1       4.128   5.563  18.588  0.00  0.00    +0.000 A 
ATOM      3  C   UNL     1       3.614   4.329  18.934  0.00  0.00    +0.000 A 
ATOM      4  C   UNL     1       2.229   4.431  18.640  0.00  0.00    +0.000 A 
ATOM      5  N   UNL     1       1.913   5.623  18.121  0.00  0.00    +0.000 NA
ATOM      6  C   UNL     1       1.163   3.427  18.923  0.00  0.00    +0.000 C 
ATOM      7  C   UNL     1       1.515   1.955  18.643  0.00  0.00    +0.000 C 
ATOM      8  N   UNL     1       2.835   1.636  18.095  0.00  0.00    +0.000 NA
ATOM      9  C   UNL     1       3.912   1.769  19.079  0.00  0.00    +0.000 C 
ATOM     10  C   UNL     1       4.324   3.177  19.559  0.00  0.00    +0.000 C 
ATOM     11  H   UNL     1       3.026   2.249  17.299  0.00  0.00    +0.000 HD
ENDROOT
BRANCH   1  12
ATOM     12  C   UNL     1       3.083   7.738  17.823  0.00  0.00    +0.000 C 
BRANCH  12  16
ATOM     13  C   UNL     1       0.024   9.915  19.957  0.00  0.00    +0.000 A 
ATOM     14  C   UNL     1       0.836   9.006  20.625  0.00  0.00    +0.000 A 
ATOM     15  C   UNL     1       1.817   8.302  19.928  0.00  0.00    +0.000 A 
ATOM     16  C   UNL     1       1.993   8.488  18.548  0.00  0.00    +0.000 A 
ATOM     17  C   UNL     1       1.179   9.422  17.887  0.00  0.00    +0.000 A 
ATOM     18  C   UNL     1       0.197  10.131  18.589  0.00  0.00    +0.000 A 
ENDBRANCH  12  16
ENDBRANCH   1  12
TORSDOF 2
ENDMDL
