MODEL 1
REMARK VINA RESULT:      -7.4      0.000      0.000
REMARK  Name = 
REMARK  9 active torsions:
REMARK  status: ('A' for Active; 'I' for Inactive)
REMARK    1  A    between atoms: C_1  and  C_2
REMARK    2  A    between atoms: C_4  and  C_5
REMARK    3  A    between atoms: C_8  and  C_9
REMARK    4  A    between atoms: C_12  and  O_13
REMARK    5  A    between atoms: C_15  and  C_16
REMARK    6  A    between atoms: C_16  and  C_17
REMARK    7  A    between atoms: N_19  and  C_20
REMARK    8  A    between atoms: C_20  and  C_21
REMARK    9  A    between atoms: C_21  and  C_22
REMARK                            x       y       z     vdW  Elec       q    Type
REMARK                         _______ _______ _______ _____ _____    ______ ____
ROOT
ATOM      1  C   UNL     1       3.861   2.706  17.104  0.00  0.00    +0.000 C 
ATOM      2  C   UNL     1       3.899   4.119  17.578  0.00  0.00    +0.000 A 
ATOM      3  S   UNL     1       2.411   4.923  17.860  0.00  0.00    +0.000 S 
ATOM      4  C   UNL     1       3.249   6.352  18.328  0.00  0.00    +0.000 A 
ATOM      5  N   UNL     1       4.564   6.240  18.296  0.00  0.00    +0.000 NA
ATOM      6  C   UNL     1       4.958   4.972  17.862  0.00  0.00    +0.000 A 
ENDROOT
BRANCH   4   7
ATOM      7  C   UNL     1       2.474   7.549  18.709  0.00  0.00    +0.000 A 
ATOM      8  N   UNL     1       2.344   8.493  17.727  0.00  0.00    +0.000 NA
ATOM      9  C   UNL     1       1.666   9.627  18.016  0.00  0.00    +0.000 A 
ATOM     10  C   UNL     1       1.102   9.882  19.252  0.00  0.00    +0.000 A 
ATOM     11  C   UNL     1       1.230   8.916  20.253  0.00  0.00    +0.000 A 
ATOM     12  C   UNL     1       1.922   7.734  19.980  0.00  0.00    +0.000 A 
BRANCH  10  13
ATOM     13  C   UNL     1       0.400  11.101  19.487  0.00  0.00    +0.000 C 
ATOM     14  N   UNL     1      -0.172  12.093  19.674  0.00  0.00    +0.000 NA
ENDBRANCH  10  13
BRANCH  12  15
ATOM     15  O   UNL     1       2.019   6.780  20.953  0.00  0.00    +0.000 OA
ATOM     16  H   UNL     1       2.821   6.246  20.828  0.00  0.00    +0.000 HD
ENDBRANCH  12  15
ENDBRANCH   4   7
BRANCH   6  17
ATOM     17  C   UNL     1       6.438   4.703  17.840  0.00  0.00    +0.000 C 
BRANCH  17  18
ATOM     18  C   UNL     1       7.271   5.778  18.512  0.00  0.00    +0.000 C 
ATOM     19  O   UNL     1       7.699   5.642  19.658  0.00  0.00    +0.000 OA
ATOM     20  N   UNL     1       7.488   6.951  17.804  0.00  0.00    +0.000 N 
ATOM     21  H   UNL     1       7.072   7.090  16.891  0.00  0.00    +0.000 HD
BRANCH  20  22
ATOM     22  C   UNL     1       8.229   8.020  18.466  0.00  0.00    +0.000 C 
BRANCH  22  23
ATOM     23  C   UNL     1       8.236   9.376  17.764  0.00  0.00    +0.000 C 
BRANCH  23  24
ATOM     24  C   UNL     1       9.115  10.342  18.533  0.00  0.00    +0.000 A 
ATOM     25  C   UNL     1       9.999  11.189  17.867  0.00  0.00    +0.000 A 
ATOM     26  C   UNL     1      10.840  12.014  18.614  0.00  0.00    +0.000 A 
ATOM     27  C   UNL     1      10.786  11.971  20.001  0.00  0.00    +0.000 A 
ATOM     28  C   UNL     1       9.882  11.098  20.585  0.00  0.00    +0.000 A 
ATOM     29  N   UNL     1       9.050  10.288  19.886  0.00  0.00    +0.000 NA
ENDBRANCH  23  24
ENDBRANCH  22  23
ENDBRANCH  20  22
ENDBRANCH  17  18
ENDBRANCH   6  17
TORSDOF 8
ENDMDL
MODEL 2
REMARK VINA RESULT:      -7.3      1.523      1.876
REMARK  Name = 
REMARK  9 active torsions:
REMARK  status: ('A' for Active; 'I' for Inactive)
REMARK    1  A    between atoms: C_1  and  C_2
REMARK    2  A    between atoms: C_4  and  C_5
REMARK    3  A    between atoms: C_8  and  C_9
REMARK    4  A    between atoms: C_12  and  O_13
REMARK    5  A    between atoms: C_15  and  C_16
REMARK    6  A    between atoms: C_16  and  C_17
REMARK    7  A    between atoms: N_19  and  C_20
REMARK    8  A    between atoms: C_20  and  C_21
REMARK    9  A    between atoms: C_21  and  C_22
REMARK                            x       y       z     vdW  Elec       q    Type
REMARK                         _______ _______ _______ _____ _____    ______ ____
ROOT
ATOM      1  C   UNL     1       4.386   3.188  19.297  0.00  0.00    +0.000 C 
ATOM      2  C   UNL     1       4.040   4.616  19.043  0.00  0.00    +0.000 A 
ATOM      3  S   UNL     1       2.702   5.289  19.879  0.00  0.00    +0.000 S 
ATOM      4  C   UNL     1       2.952   6.804  19.100  0.00  0.00    +0.000 A 
ATOM      5  N   UNL     1       3.983   6.821  18.275  0.00  0.00    +0.000 NA
ATOM      6  C   UNL     1       4.615   5.577  18.221  0.00  0.00    +0.000 A 
ENDROOT
BRANCH   4   7
ATOM      7  C   UNL     1       2.035   7.923  19.390  0.00  0.00    +0.000 A 
ATOM      8  N   UNL     1       1.506   7.930  20.651  0.00  0.00    +0.000 NA
ATOM      9  C   UNL     1       0.639   8.916  20.976  0.00  0.00    +0.000 A 
ATOM     10  C   UNL     1       0.258   9.914  20.098  0.00  0.00    +0.000 A 
ATOM     11  C   UNL     1       0.802   9.910  18.812  0.00  0.00    +0.000 A 
ATOM     12  C   UNL     1       1.703   8.906  18.451  0.00  0.00    +0.000 A 
BRANCH  10  13
ATOM     13  C   UNL     1      -0.662  10.923  20.508  0.00  0.00    +0.000 C 
ATOM     14  N   UNL     1      -1.408  11.748  20.840  0.00  0.00    +0.000 NA
ENDBRANCH  10  13
BRANCH  12  15
ATOM     15  O   UNL     1       2.255   8.923  17.202  0.00  0.00    +0.000 OA
ATOM     16  H   UNL     1       1.619   8.601  16.543  0.00  0.00    +0.000 HD
ENDBRANCH  12  15
ENDBRANCH   4   7
BRANCH   6  17
ATOM     17  C   UNL     1       5.843   5.488  17.357  0.00  0.00    +0.000 C 
BRANCH  17  18
ATOM     18  C   UNL     1       7.018   6.300  17.869  0.00  0.00    +0.000 C 
ATOM     19  O   UNL     1       7.732   5.895  18.786  0.00  0.00    +0.000 OA
ATOM     20  N   UNL     1       7.225   7.548  17.301  0.00  0.00    +0.000 N 
ATOM     21  H   UNL     1       6.591   7.910  16.599  0.00  0.00    +0.000 HD
BRANCH  20  22
ATOM     22  C   UNL     1       8.308   8.368  17.832  0.00  0.00    +0.000 C 
BRANCH  22  23
ATOM     23  C   UNL     1       7.988   9.841  18.077  0.00  0.00    +0.000 C 
BRANCH  23  24
ATOM     24  C   UNL     1       9.204  10.535  18.658  0.00  0.00    +0.000 A 
ATOM     25  C   UNL     1       9.306  10.771  20.028  0.00  0.00    +0.000 A 
ATOM     26  C   UNL     1      10.408  11.474  20.515  0.00  0.00    +0.000 A 
ATOM     27  C   UNL     1      11.374  11.932  19.629  0.00  0.00    +0.000 A 
ATOM     28  C   UNL     1      11.195  11.660  18.282  0.00  0.00    +0.000 A 
ATOM     29  N   UNL     1      10.139  10.975  17.780  0.00  0.00    +0.000 NA
ENDBRANCH  23  24
ENDBRANCH  22  23
ENDBRANCH  20  22
ENDBRANCH  17  18
ENDBRANCH   6  17
TORSDOF 8
ENDMDL
MODEL 3
REMARK VINA RESULT:      -7.2      1.543      1.799
REMARK  Name = 
REMARK  9 active torsions:
REMARK  status: ('A' for Active; 'I' for Inactive)
REMARK    1  A    between atoms: C_1  and  C_2
REMARK    2  A    between atoms: C_4  and  C_5
REMARK    3  A    between atoms: C_8  and  C_9
REMARK    4  A    between atoms: C_12  and  O_13
REMARK    5  A    between atoms: C_15  and  C_16
REMARK    6  A    between atoms: C_16  and  C_17
REMARK    7  A    between atoms: N_19  and  C_20
REMARK    8  A    between atoms: C_20  and  C_21
REMARK    9  A    between atoms: C_21  and  C_22
REMARK                            x       y       z     vdW  Elec       q    Type
REMARK                         _______ _______ _______ _____ _____    ______ ____
ROOT
ATOM      1  C   UNL     1       4.531   3.643  18.941  0.00  0.00    +0.000 C 
ATOM      2  C   UNL     1       4.111   5.059  18.739  0.00  0.00    +0.000 A 
ATOM      3  S   UNL     1       2.766   5.644  19.628  0.00  0.00    +0.000 S 
ATOM      4  C   UNL     1       2.925   7.190  18.889  0.00  0.00    +0.000 A 
ATOM      5  N   UNL     1       3.931   7.280  18.039  0.00  0.00    +0.000 NA
ATOM      6  C   UNL     1       4.619   6.070  17.931  0.00  0.00    +0.000 A 
ENDROOT
BRANCH   4   7
ATOM      7  C   UNL     1       1.965   8.256  19.235  0.00  0.00    +0.000 A 
ATOM      8  N   UNL     1       1.443   8.181  20.496  0.00  0.00    +0.000 NA
ATOM      9  C   UNL     1       0.538   9.114  20.872  0.00  0.00    +0.000 A 
ATOM     10  C   UNL     1       0.113  10.136  20.044  0.00  0.00    +0.000 A 
ATOM     11  C   UNL     1       0.649  10.217  18.757  0.00  0.00    +0.000 A 
ATOM     12  C   UNL     1       1.588   9.268  18.346  0.00  0.00    +0.000 A 
BRANCH  10  13
ATOM     13  C   UNL     1      -0.846  11.087  20.505  0.00  0.00    +0.000 C 
ATOM     14  N   UNL     1      -1.626  11.861  20.876  0.00  0.00    +0.000 NA
ENDBRANCH  10  13
BRANCH  12  15
ATOM     15  O   UNL     1       2.133   9.368  17.097  0.00  0.00    +0.000 OA
ATOM     16  H   UNL     1       1.501   9.066  16.424  0.00  0.00    +0.000 HD
ENDBRANCH  12  15
ENDBRANCH   4   7
BRANCH   6  17
ATOM     17  C   UNL     1       5.827   6.063  17.035  0.00  0.00    +0.000 C 
BRANCH  17  18
ATOM     18  C   UNL     1       7.030   6.782  17.615  0.00  0.00    +0.000 C 
ATOM     19  O   UNL     1       7.781   6.235  18.423  0.00  0.00    +0.000 OA
ATOM     20  N   UNL     1       7.223   8.105  17.245  0.00  0.00    +0.000 N 
ATOM     21  H   UNL     1       6.562   8.575  16.639  0.00  0.00    +0.000 HD
BRANCH  20  22
ATOM     22  C   UNL     1       8.336   8.828  17.850  0.00  0.00    +0.000 C 
BRANCH  22  23
ATOM     23  C   UNL     1       8.101  10.305  18.153  0.00  0.00    +0.000 C 
BRANCH  23  24
ATOM     24  C   UNL     1       9.381  10.926  18.677  0.00  0.00    +0.000 A 
ATOM     25  C   UNL     1      10.436  11.224  17.816  0.00  0.00    +0.000 A 
ATOM     26  C   UNL     1      11.622  11.732  18.347  0.00  0.00    +0.000 A 
ATOM     27  C   UNL     1      11.732  11.921  19.718  0.00  0.00    +0.000 A 
ATOM     28  C   UNL     1      10.639  11.596  20.504  0.00  0.00    +0.000 A 
ATOM     29  N   UNL     1       9.472  11.107  20.017  0.00  0.00    +0.000 NA
ENDBRANCH  23  24
ENDBRANCH  22  23
ENDBRANCH  20  22
ENDBRANCH  17  18
ENDBRANCH   6  17
TORSDOF 8
ENDMDL
MODEL 4
REMARK VINA RESULT:      -6.9      1.612      1.941
REMARK  Name = 
REMARK  9 active torsions:
REMARK  status: ('A' for Active; 'I' for Inactive)
REMARK    1  A    between atoms: C_1  and  C_2
REMARK    2  A    between atoms: C_4  and  C_5
REMARK    3  A    between atoms: C_8  and  C_9
REMARK    4  A    between atoms: C_12  and  O_13
REMARK    5  A    between atoms: C_15  and  C_16
REMARK    6  A    between atoms: C_16  and  C_17
REMARK    7  A    between atoms: N_19  and  C_20
REMARK    8  A    between atoms: C_20  and  C_21
REMARK    9  A    between atoms: C_21  and  C_22
REMARK                            x       y       z     vdW  Elec       q    Type
REMARK                         _______ _______ _______ _____ _____    ______ ____
ROOT
ATOM      1  C   UNL     1       4.025   2.645  17.416  0.00  0.00    +0.000 C 
ATOM      2  C   UNL     1       3.987   4.070  17.857  0.00  0.00    +0.000 A 
ATOM      3  S   UNL     1       2.483   4.727  18.355  0.00  0.00    +0.000 S 
ATOM      4  C   UNL     1       3.229   6.248  18.664  0.00  0.00    +0.000 A 
ATOM      5  N   UNL     1       4.528   6.269  18.428  0.00  0.00    +0.000 NA
ATOM      6  C   UNL     1       4.981   5.035  17.957  0.00  0.00    +0.000 A 
ENDROOT
BRANCH   4   7
ATOM      7  C   UNL     1       2.401   7.372  19.142  0.00  0.00    +0.000 A 
ATOM      8  N   UNL     1       1.927   7.244  20.418  0.00  0.00    +0.000 NA
ATOM      9  C   UNL     1       1.141   8.228  20.911  0.00  0.00    +0.000 A 
ATOM     10  C   UNL     1       0.791   9.354  20.190  0.00  0.00    +0.000 A 
ATOM     11  C   UNL     1       1.279   9.489  18.888  0.00  0.00    +0.000 A 
ATOM     12  C   UNL     1       2.095   8.488  18.356  0.00  0.00    +0.000 A 
BRANCH  10  13
ATOM     13  C   UNL     1      -0.043  10.354  20.773  0.00  0.00    +0.000 C 
ATOM     14  N   UNL     1      -0.717  11.170  21.249  0.00  0.00    +0.000 NA
ENDBRANCH  10  13
BRANCH  12  15
ATOM     15  O   UNL     1       2.594   8.638  17.094  0.00  0.00    +0.000 OA
ATOM     16  H   UNL     1       3.156   9.428  17.040  0.00  0.00    +0.000 HD
ENDBRANCH  12  15
ENDBRANCH   4   7
BRANCH   6  17
ATOM     17  C   UNL     1       6.460   4.916  17.708  0.00  0.00    +0.000 C 
BRANCH  17  18
ATOM     18  C   UNL     1       7.116   6.208  17.260  0.00  0.00    +0.000 C 
ATOM     19  O   UNL     1       7.410   6.409  16.082  0.00  0.00    +0.000 OA
ATOM     20  N   UNL     1       7.427   7.139  18.241  0.00  0.00    +0.000 N 
ATOM     21  H   UNL     1       7.253   6.939  19.219  0.00  0.00    +0.000 HD
BRANCH  20  22
ATOM     22  C   UNL     1       8.121   8.355  17.832  0.00  0.00    +0.000 C 
BRANCH  22  23
ATOM     23  C   UNL     1       8.844   9.127  18.934  0.00  0.00    +0.000 C 
BRANCH  23  24
ATOM     24  C   UNL     1       9.116  10.543  18.467  0.00  0.00    +0.000 A 
ATOM     25  C   UNL     1       8.106  11.312  17.889  0.00  0.00    +0.000 A 
ATOM     26  C   UNL     1       8.414  12.586  17.411  0.00  0.00    +0.000 A 
ATOM     27  C   UNL     1       9.716  13.059  17.510  0.00  0.00    +0.000 A 
ATOM     28  C   UNL     1      10.660  12.230  18.094  0.00  0.00    +0.000 A 
ATOM     29  N   UNL     1      10.391  10.991  18.573  0.00  0.00    +0.000 NA
ENDBRANCH  23  24
ENDBRANCH  22  23
ENDBRANCH  20  22
ENDBRANCH  17  18
ENDBRANCH   6  17
TORSDOF 8
ENDMDL
MODEL 5
REMARK VINA RESULT:      -6.9      3.231      5.295
REMARK  Name = 
REMARK  9 active torsions:
REMARK  status: ('A' for Active; 'I' for Inactive)
REMARK    1  A    between atoms: C_1  and  C_2
REMARK    2  A    between atoms: C_4  and  C_5
REMARK    3  A    between atoms: C_8  and  C_9
REMARK    4  A    between atoms: C_12  and  O_13
REMARK    5  A    between atoms: C_15  and  C_16
REMARK    6  A    between atoms: C_16  and  C_17
REMARK    7  A    between atoms: N_19  and  C_20
REMARK    8  A    between atoms: C_20  and  C_21
REMARK    9  A    between atoms: C_21  and  C_22
REMARK                            x       y       z     vdW  Elec       q    Type
REMARK                         _______ _______ _______ _____ _____    ______ ____
ROOT
ATOM      1  C   UNL     1       2.929   8.141  17.396  0.00  0.00    +0.000 C 
ATOM      2  C   UNL     1       2.129   8.401  18.627  0.00  0.00    +0.000 A 
ATOM      3  S   UNL     1       1.226   9.857  18.718  0.00  0.00    +0.000 S 
ATOM      4  C   UNL     1       0.659   9.429  20.286  0.00  0.00    +0.000 A 
ATOM      5  N   UNL     1       1.098   8.262  20.718  0.00  0.00    +0.000 NA
ATOM      6  C   UNL     1       1.948   7.659  19.788  0.00  0.00    +0.000 A 
ENDROOT
BRANCH   4   7
ATOM      7  C   UNL     1      -0.233  10.359  21.008  0.00  0.00    +0.000 A 
ATOM      8  N   UNL     1      -1.051  11.113  20.214  0.00  0.00    +0.000 NA
ATOM      9  C   UNL     1      -1.878  12.003  20.809  0.00  0.00    +0.000 A 
ATOM     10  C   UNL     1      -1.934  12.190  22.178  0.00  0.00    +0.000 A 
ATOM     11  C   UNL     1      -1.102  11.416  22.990  0.00  0.00    +0.000 A 
ATOM     12  C   UNL     1      -0.241  10.487  22.401  0.00  0.00    +0.000 A 
BRANCH  10  13
ATOM     13  C   UNL     1      -2.830  13.148  22.739  0.00  0.00    +0.000 C 
ATOM     14  N   UNL     1      -3.558  13.929  23.192  0.00  0.00    +0.000 NA
ENDBRANCH  10  13
BRANCH  12  15
ATOM     15  O   UNL     1       0.549   9.711  23.200  0.00  0.00    +0.000 OA
ATOM     16  H   UNL     1       0.869  10.221  23.962  0.00  0.00    +0.000 HD
ENDBRANCH  12  15
ENDBRANCH   4   7
BRANCH   6  17
ATOM     17  C   UNL     1       2.467   6.293  20.142  0.00  0.00    +0.000 C 
BRANCH  17  18
ATOM     18  C   UNL     1       2.556   5.342  18.964  0.00  0.00    +0.000 C 
ATOM     19  O   UNL     1       1.558   4.784  18.507  0.00  0.00    +0.000 OA
ATOM     20  N   UNL     1       3.818   5.078  18.453  0.00  0.00    +0.000 N 
ATOM     21  H   UNL     1       4.645   5.479  18.878  0.00  0.00    +0.000 HD
BRANCH  20  22
ATOM     22  C   UNL     1       3.925   4.112  17.364  0.00  0.00    +0.000 C 
BRANCH  22  23
ATOM     23  C   UNL     1       5.135   4.256  16.445  0.00  0.00    +0.000 C 
BRANCH  23  24
ATOM     24  C   UNL     1       6.141   5.200  17.072  0.00  0.00    +0.000 A 
ATOM     25  C   UNL     1       7.013   4.758  18.066  0.00  0.00    +0.000 A 
ATOM     26  C   UNL     1       7.877   5.675  18.666  0.00  0.00    +0.000 A 
ATOM     27  C   UNL     1       7.845   7.006  18.271  0.00  0.00    +0.000 A 
ATOM     28  C   UNL     1       6.945   7.363  17.281  0.00  0.00    +0.000 A 
ATOM     29  N   UNL     1       6.099   6.496  16.675  0.00  0.00    +0.000 NA
ENDBRANCH  23  24
ENDBRANCH  22  23
ENDBRANCH  20  22
ENDBRANCH  17  18
ENDBRANCH   6  17
TORSDOF 8
ENDMDL
MODEL 6
REMARK VINA RESULT:      -6.9      4.803      9.961
REMARK  Name = 
REMARK  9 active torsions:
REMARK  status: ('A' for Active; 'I' for Inactive)
REMARK    1  A    between atoms: C_1  and  C_2
REMARK    2  A    between atoms: C_4  and  C_5
REMARK    3  A    between atoms: C_8  and  C_9
REMARK    4  A    between atoms: C_12  and  O_13
REMARK    5  A    between atoms: C_15  and  C_16
REMARK    6  A    between atoms: C_16  and  C_17
REMARK    7  A    between atoms: N_19  and  C_20
REMARK    8  A    between atoms: C_20  and  C_21
REMARK    9  A    between atoms: C_21  and  C_22
REMARK                            x       y       z     vdW  Elec       q    Type
REMARK                         _______ _______ _______ _____ _____    ______ ____
ROOT
ATOM      1  C   UNL     1      -1.259  10.656  23.170  0.00  0.00    +0.000 C 
ATOM      2  C   UNL     1      -0.477  10.454  21.916  0.00  0.00    +0.000 A 
ATOM      3  S   UNL     1       0.259   8.927  21.654  0.00  0.00    +0.000 S 
ATOM      4  C   UNL     1       0.898   9.472  20.152  0.00  0.00    +0.000 A 
ATOM      5  N   UNL     1       0.573  10.715  19.847  0.00  0.00    +0.000 NA
ATOM      6  C   UNL     1      -0.207  11.299  20.847  0.00  0.00    +0.000 A 
ENDROOT
BRANCH   4   7
ATOM      7  C   UNL     1       1.734   8.557  19.349  0.00  0.00    +0.000 A 
ATOM      8  N   UNL     1       2.059   7.380  19.963  0.00  0.00    +0.000 NA
ATOM      9  C   UNL     1       2.843   6.504  19.293  0.00  0.00    +0.000 A 
ATOM     10  C   UNL     1       3.333   6.741  18.022  0.00  0.00    +0.000 A 
ATOM     11  C   UNL     1       2.996   7.941  17.393  0.00  0.00    +0.000 A 
ATOM     12  C   UNL     1       2.186   8.862  18.061  0.00  0.00    +0.000 A 
BRANCH  10  13
ATOM     13  C   UNL     1       4.156   5.773  17.374  0.00  0.00    +0.000 C 
ATOM     14  N   UNL     1       4.826   4.984  16.851  0.00  0.00    +0.000 NA
ENDBRANCH  10  13
BRANCH  12  15
ATOM     15  O   UNL     1       1.835  10.021  17.431  0.00  0.00    +0.000 OA
ATOM     16  H   UNL     1       2.619  10.565  17.253  0.00  0.00    +0.000 HD
ENDBRANCH  12  15
ENDBRANCH   4   7
BRANCH   6  17
ATOM     17  C   UNL     1      -0.693  12.699  20.586  0.00  0.00    +0.000 C 
BRANCH  17  18
ATOM     18  C   UNL     1      -2.203  12.826  20.521  0.00  0.00    +0.000 C 
ATOM     19  O   UNL     1      -2.862  13.190  21.495  0.00  0.00    +0.000 OA
ATOM     20  N   UNL     1      -2.823  12.463  19.335  0.00  0.00    +0.000 N 
ATOM     21  H   UNL     1      -2.285  12.093  18.561  0.00  0.00    +0.000 HD
BRANCH  20  22
ATOM     22  C   UNL     1      -4.280  12.515  19.283  0.00  0.00    +0.000 C 
BRANCH  22  23
ATOM     23  C   UNL     1      -4.983  11.292  18.698  0.00  0.00    +0.000 C 
BRANCH  23  24
ATOM     24  C   UNL     1      -4.214  10.792  17.492  0.00  0.00    +0.000 A 
ATOM     25  C   UNL     1      -3.230   9.814  17.627  0.00  0.00    +0.000 A 
ATOM     26  C   UNL     1      -2.497   9.429  16.503  0.00  0.00    +0.000 A 
ATOM     27  C   UNL     1      -2.754  10.032  15.279  0.00  0.00    +0.000 A 
ATOM     28  C   UNL     1      -3.746  10.999  15.232  0.00  0.00    +0.000 A 
ATOM     29  N   UNL     1      -4.478  11.389  16.304  0.00  0.00    +0.000 NA
ENDBRANCH  23  24
ENDBRANCH  22  23
ENDBRANCH  20  22
ENDBRANCH  17  18
ENDBRANCH   6  17
TORSDOF 8
ENDMDL
MODEL 7
REMARK VINA RESULT:      -6.8      4.333      6.140
REMARK  Name = 
REMARK  9 active torsions:
REMARK  status: ('A' for Active; 'I' for Inactive)
REMARK    1  A    between atoms: C_1  and  C_2
REMARK    2  A    between atoms: C_4  and  C_5
REMARK    3  A    between atoms: C_8  and  C_9
REMARK    4  A    between atoms: C_12  and  O_13
REMARK    5  A    between atoms: C_15  and  C_16
REMARK    6  A    between atoms: C_16  and  C_17
REMARK    7  A    between atoms: N_19  and  C_20
REMARK    8  A    between atoms: C_20  and  C_21
REMARK    9  A    between atoms: C_21  and  C_22
REMARK                            x       y       z     vdW  Elec       q    Type
REMARK                         _______ _______ _______ _____ _____    ______ ____
ROOT
ATOM      1  C   UNL     1       2.664   7.801  18.075  0.00  0.00    +0.000 C 
ATOM      2  C   UNL     1       1.861   8.202  19.266  0.00  0.00    +0.000 A 
ATOM      3  S   UNL     1       0.956   9.657  19.184  0.00  0.00    +0.000 S 
ATOM      4  C   UNL     1       0.387   9.415  20.790  0.00  0.00    +0.000 A 
ATOM      5  N   UNL     1       0.828   8.307  21.357  0.00  0.00    +0.000 NA
ATOM      6  C   UNL     1       1.680   7.602  20.506  0.00  0.00    +0.000 A 
ENDROOT
BRANCH   4   7
ATOM      7  C   UNL     1      -0.507  10.421  21.396  0.00  0.00    +0.000 A 
ATOM      8  N   UNL     1      -1.063  11.310  20.518  0.00  0.00    +0.000 NA
ATOM      9  C   UNL     1      -1.875  12.273  21.010  0.00  0.00    +0.000 A 
ATOM     10  C   UNL     1      -2.168  12.408  22.354  0.00  0.00    +0.000 A 
ATOM     11  C   UNL     1      -1.605  11.497  23.251  0.00  0.00    +0.000 A 
ATOM     12  C   UNL     1      -0.766  10.490  22.769  0.00  0.00    +0.000 A 
BRANCH  10  13
ATOM     13  C   UNL     1      -3.033  13.449  22.804  0.00  0.00    +0.000 C 
ATOM     14  N   UNL     1      -3.736  14.294  23.173  0.00  0.00    +0.000 NA
ENDBRANCH  10  13
BRANCH  12  15
ATOM     15  O   UNL     1      -0.242   9.583  23.646  0.00  0.00    +0.000 OA
ATOM     16  H   UNL     1       0.661   9.836  23.900  0.00  0.00    +0.000 HD
ENDBRANCH  12  15
ENDBRANCH   4   7
BRANCH   6  17
ATOM     17  C   UNL     1       2.201   6.287  21.019  0.00  0.00    +0.000 C 
BRANCH  17  18
ATOM     18  C   UNL     1       2.149   5.163  20.001  0.00  0.00    +0.000 C 
ATOM     19  O   UNL     1       1.080   4.736  19.565  0.00  0.00    +0.000 OA
ATOM     20  N   UNL     1       3.354   4.593  19.620  0.00  0.00    +0.000 N 
ATOM     21  H   UNL     1       4.226   4.896  20.036  0.00  0.00    +0.000 HD
BRANCH  20  22
ATOM     22  C   UNL     1       3.313   3.465  18.695  0.00  0.00    +0.000 C 
BRANCH  22  23
ATOM     23  C   UNL     1       3.401   3.803  17.208  0.00  0.00    +0.000 C 
BRANCH  23  24
ATOM     24  C   UNL     1       4.819   4.214  16.864  0.00  0.00    +0.000 A 
ATOM     25  C   UNL     1       5.224   4.339  15.535  0.00  0.00    +0.000 A 
ATOM     26  C   UNL     1       6.554   4.653  15.258  0.00  0.00    +0.000 A 
ATOM     27  C   UNL     1       7.449   4.826  16.306  0.00  0.00    +0.000 A 
ATOM     28  C   UNL     1       6.967   4.680  17.597  0.00  0.00    +0.000 A 
ATOM     29  N   UNL     1       5.680   4.381  17.897  0.00  0.00    +0.000 NA
ENDBRANCH  23  24
ENDBRANCH  22  23
ENDBRANCH  20  22
ENDBRANCH  17  18
ENDBRANCH   6  17
TORSDOF 8
ENDMDL
MODEL 8
REMARK VINA RESULT:      -6.8      1.195      1.434
REMARK  Name = 
REMARK  9 active torsions:
REMARK  status: ('A' for Active; 'I' for Inactive)
REMARK    1  A    between atoms: C_1  and  C_2
REMARK    2  A    between atoms: C_4  and  C_5
REMARK    3  A    between atoms: C_8  and  C_9
REMARK    4  A    between atoms: C_12  and  O_13
REMARK    5  A    between atoms: C_15  and  C_16
REMARK    6  A    between atoms: C_16  and  C_17
REMARK    7  A    between atoms: N_19  and  C_20
REMARK    8  A    between atoms: C_20  and  C_21
REMARK    9  A    between atoms: C_21  and  C_22
REMARK                            x       y       z     vdW  Elec       q    Type
REMARK                         _______ _______ _______ _____ _____    ______ ____
ROOT
ATOM      1  C   UNL     1       4.106   3.067  17.457  0.00  0.00    +0.000 C 
ATOM      2  C   UNL     1       3.992   4.505  17.833  0.00  0.00    +0.000 A 
ATOM      3  S   UNL     1       2.432   5.138  18.164  0.00  0.00    +0.000 S 
ATOM      4  C   UNL     1       3.107   6.690  18.477  0.00  0.00    +0.000 A 
ATOM      5  N   UNL     1       4.421   6.740  18.360  0.00  0.00    +0.000 NA
ATOM      6  C   UNL     1       4.948   5.502  17.985  0.00  0.00    +0.000 A 
ENDROOT
BRANCH   4   7
ATOM      7  C   UNL     1       2.210   7.808  18.830  0.00  0.00    +0.000 A 
ATOM      8  N   UNL     1       1.916   8.663  17.804  0.00  0.00    +0.000 NA
ATOM      9  C   UNL     1       1.118   9.724  18.064  0.00  0.00    +0.000 A 
ATOM     10  C   UNL     1       0.588   9.988  19.313  0.00  0.00    +0.000 A 
ATOM     11  C   UNL     1       0.883   9.112  20.359  0.00  0.00    +0.000 A 
ATOM     12  C   UNL     1       1.702   8.007  20.118  0.00  0.00    +0.000 A 
BRANCH  10  13
ATOM     13  C   UNL     1      -0.247  11.127  19.516  0.00  0.00    +0.000 C 
ATOM     14  N   UNL     1      -0.925  12.054  19.678  0.00  0.00    +0.000 NA
ENDBRANCH  10  13
BRANCH  12  15
ATOM     15  O   UNL     1       1.964   7.136  21.137  0.00  0.00    +0.000 OA
ATOM     16  H   UNL     1       1.147   6.704  21.435  0.00  0.00    +0.000 HD
ENDBRANCH  12  15
ENDBRANCH   4   7
BRANCH   6  17
ATOM     17  C   UNL     1       6.446   5.416  17.878  0.00  0.00    +0.000 C 
BRANCH  17  18
ATOM     18  C   UNL     1       7.106   6.700  17.412  0.00  0.00    +0.000 C 
ATOM     19  O   UNL     1       7.118   7.026  16.225  0.00  0.00    +0.000 OA
ATOM     20  N   UNL     1       7.748   7.471  18.370  0.00  0.00    +0.000 N 
ATOM     21  H   UNL     1       7.800   7.163  19.334  0.00  0.00    +0.000 HD
BRANCH  20  22
ATOM     22  C   UNL     1       8.445   8.672  17.924  0.00  0.00    +0.000 C 
BRANCH  22  23
ATOM     23  C   UNL     1       8.945   9.613  19.018  0.00  0.00    +0.000 C 
BRANCH  23  24
ATOM     24  C   UNL     1       9.477  10.886  18.391  0.00  0.00    +0.000 A 
ATOM     25  C   UNL     1      10.846  11.144  18.349  0.00  0.00    +0.000 A 
ATOM     26  C   UNL     1      11.292  12.357  17.825  0.00  0.00    +0.000 A 
ATOM     27  C   UNL     1      10.366  13.285  17.365  0.00  0.00    +0.000 A 
ATOM     28  C   UNL     1       9.024  12.952  17.446  0.00  0.00    +0.000 A 
ATOM     29  N   UNL     1       8.561  11.780  17.945  0.00  0.00    +0.000 NA
ENDBRANCH  23  24
ENDBRANCH  22  23
ENDBRANCH  20  22
ENDBRANCH  17  18
ENDBRANCH   6  17
TORSDOF 8
ENDMDL
MODEL 9
REMARK VINA RESULT:      -6.8      4.136      7.778
REMARK  Name = 
REMARK  9 active torsions:
REMARK  status: ('A' for Active; 'I' for Inactive)
REMARK    1  A    between atoms: C_1  and  C_2
REMARK    2  A    between atoms: C_4  and  C_5
REMARK    3  A    between atoms: C_8  and  C_9
REMARK    4  A    between atoms: C_12  and  O_13
REMARK    5  A    between atoms: C_15  and  C_16
REMARK    6  A    between atoms: C_16  and  C_17
REMARK    7  A    between atoms: N_19  and  C_20
REMARK    8  A    between atoms: C_20  and  C_21
REMARK    9  A    between atoms: C_21  and  C_22
REMARK                            x       y       z     vdW  Elec       q    Type
REMARK                         _______ _______ _______ _____ _____    ______ ____
ROOT
ATOM      1  C   UNL     1       0.679   2.833  19.452  0.00  0.00    +0.000 C 
ATOM      2  C   UNL     1       1.853   3.668  19.066  0.00  0.00    +0.000 A 
ATOM      3  S   UNL     1       2.736   3.230  17.663  0.00  0.00    +0.000 S 
ATOM      4  C   UNL     1       3.811   4.553  17.902  0.00  0.00    +0.000 A 
ATOM      5  N   UNL     1       3.525   5.295  18.956  0.00  0.00    +0.000 NA
ATOM      6  C   UNL     1       2.413   4.802  19.642  0.00  0.00    +0.000 A 
ENDROOT
BRANCH   4   7
ATOM      7  C   UNL     1       4.930   4.752  16.960  0.00  0.00    +0.000 A 
ATOM      8  N   UNL     1       4.569   5.181  15.713  0.00  0.00    +0.000 NA
ATOM      9  C   UNL     1       5.543   5.362  14.792  0.00  0.00    +0.000 A 
ATOM     10  C   UNL     1       6.882   5.132  15.047  0.00  0.00    +0.000 A 
ATOM     11  C   UNL     1       7.251   4.698  16.322  0.00  0.00    +0.000 A 
ATOM     12  C   UNL     1       6.266   4.507  17.293  0.00  0.00    +0.000 A 
BRANCH  10  13
ATOM     13  C   UNL     1       7.858   5.343  14.028  0.00  0.00    +0.000 C 
ATOM     14  N   UNL     1       8.654   5.516  13.202  0.00  0.00    +0.000 NA
ENDBRANCH  10  13
BRANCH  12  15
ATOM     15  O   UNL     1       6.634   4.112  18.547  0.00  0.00    +0.000 OA
ATOM     16  H   UNL     1       6.579   4.855  19.170  0.00  0.00    +0.000 HD
ENDBRANCH  12  15
ENDBRANCH   4   7
BRANCH   6  17
ATOM     17  C   UNL     1       1.952   5.600  20.831  0.00  0.00    +0.000 C 
BRANCH  17  18
ATOM     18  C   UNL     1       1.685   7.062  20.527  0.00  0.00    +0.000 C 
ATOM     19  O   UNL     1       0.999   7.761  21.272  0.00  0.00    +0.000 OA
ATOM     20  N   UNL     1       2.198   7.571  19.343  0.00  0.00    +0.000 N 
ATOM     21  H   UNL     1       2.699   6.974  18.696  0.00  0.00    +0.000 HD
BRANCH  20  22
ATOM     22  C   UNL     1       1.890   8.956  19.006  0.00  0.00    +0.000 C 
BRANCH  22  23
ATOM     23  C   UNL     1       0.949   9.174  17.824  0.00  0.00    +0.000 C 
BRANCH  23  24
ATOM     24  C   UNL     1      -0.225  10.028  18.259  0.00  0.00    +0.000 A 
ATOM     25  C   UNL     1      -1.404  10.054  17.516  0.00  0.00    +0.000 A 
ATOM     26  C   UNL     1      -2.437  10.905  17.912  0.00  0.00    +0.000 A 
ATOM     27  C   UNL     1      -2.267  11.714  19.028  0.00  0.00    +0.000 A 
ATOM     28  C   UNL     1      -1.063  11.631  19.708  0.00  0.00    +0.000 A 
ATOM     29  N   UNL     1      -0.045  10.810  19.352  0.00  0.00    +0.000 NA
ENDBRANCH  23  24
ENDBRANCH  22  23
ENDBRANCH  20  22
ENDBRANCH  17  18
ENDBRANCH   6  17
TORSDOF 8
ENDMDL
