MODEL 1
REMARK VINA RESULT:      -8.4      0.000      0.000
REMARK  Name = 
REMARK  6 active torsions:
REMARK  status: ('A' for Active; 'I' for Inactive)
REMARK    1  A    between atoms: C_1  and  O_2
REMARK    2  A    between atoms: O_2  and  C_3
REMARK    3  A    between atoms: N_5  and  C_6
REMARK    4  A    between atoms: C_15  and  C_16
REMARK    5  A    between atoms: C_16  and  O_18
REMARK    6  A    between atoms: C_27  and  N_28
REMARK                            x       y       z     vdW  Elec       q    Type
REMARK                         _______ _______ _______ _____ _____    ______ ____
ROOT
ATOM      1  C   UNL     1       1.960   8.144  19.455  0.00  0.00    +0.000 A 
ATOM      2  N   UNL     1       2.343   6.831  19.624  0.00  0.00    +0.000 NA
ATOM      3  C   UNL     1       3.212   6.192  18.766  0.00  0.00    +0.000 A 
ATOM      4  C   UNL     1       3.744   6.910  17.669  0.00  0.00    +0.000 A 
ATOM      5  C   UNL     1       3.348   8.238  17.473  0.00  0.00    +0.000 A 
ATOM      6  C   UNL     1       2.473   8.854  18.348  0.00  0.00    +0.000 A 
ATOM      7  F   UNL     1       2.166  10.150  18.100  0.00  0.00    +0.000 F 
ATOM      8  C   UNL     1       4.655   6.295  16.790  0.00  0.00    +0.000 A 
ATOM      9  O   UNL     1       5.097   6.923  15.841  0.00  0.00    +0.000 OA
ATOM     10  C   UNL     1       5.065   4.968  17.013  0.00  0.00    +0.000 A 
ATOM     11  C   UNL     1       4.525   4.301  18.119  0.00  0.00    +0.000 A 
ATOM     12  N   UNL     1       3.617   4.887  18.960  0.00  0.00    +0.000 N 
ATOM     13  C   UNL     1       3.095   4.027  20.001  0.00  0.00    +0.000 A 
ATOM     14  N   UNL     1       3.797   2.976  20.497  0.00  0.00    +0.000 NA
ATOM     15  C   UNL     1       3.059   2.203  21.328  0.00  0.00    +0.000 A 
ATOM     16  C   UNL     1       1.737   2.601  21.461  0.00  0.00    +0.000 A 
ATOM     17  S   UNL     1       1.505   4.003  20.549  0.00  0.00    +0.000 S 
ENDROOT
BRANCH   1  20
ATOM     18  C   UNL     1       0.125  10.776  21.216  0.00  0.00    +0.000 C 
ATOM     19  C   UNL     1       0.073   9.789  20.041  0.00  0.00    +0.000 C 
ATOM     20  N   UNL     1       1.057   8.791  20.384  0.00  0.00    +0.000 N 
ATOM     21  C   UNL     1       1.182   8.681  21.827  0.00  0.00    +0.000 C 
ATOM     22  C   UNL     1       0.367   9.841  22.421  0.00  0.00    +0.000 C 
BRANCH  22  23
ATOM     23  N   UNL     1      -0.881   9.362  23.020  0.00  0.00    +0.000 NA
ATOM     24  H   UNL     1      -0.743   8.506  23.601  0.00  0.00    +0.000 HD
ATOM     25  H   UNL     1      -1.566   9.157  22.254  0.00  0.00    +0.000 HD
ENDBRANCH  22  23
BRANCH  18  27
ATOM     26  C   UNL     1       0.993  12.600  20.073  0.00  0.00    +0.000 C 
ATOM     27  O   UNL     1       1.247  11.632  21.076  0.00  0.00    +0.000 OA
ENDBRANCH  18  27
ENDBRANCH   1  20
BRANCH  10  28
ATOM     28  C   UNL     1       6.031   4.275  16.084  0.00  0.00    +0.000 C 
ATOM     29  O   UNL     1       5.683   3.262  15.498  0.00  0.00    +0.000 OA
BRANCH  28  30
ATOM     30  O   UNL     1       7.293   4.716  15.868  0.00  0.00    +0.000 OA
ATOM     31  H   UNL     1       8.093   4.182  15.929  0.00  0.00    +0.000 HD
ENDBRANCH  28  30
ENDBRANCH  10  28
TORSDOF 5
ENDMDL
MODEL 2
REMARK VINA RESULT:      -7.2      1.017      1.183
REMARK  Name = 
REMARK  6 active torsions:
REMARK  status: ('A' for Active; 'I' for Inactive)
REMARK    1  A    between atoms: C_1  and  O_2
REMARK    2  A    between atoms: O_2  and  C_3
REMARK    3  A    between atoms: N_5  and  C_6
REMARK    4  A    between atoms: C_15  and  C_16
REMARK    5  A    between atoms: C_16  and  O_18
REMARK    6  A    between atoms: C_27  and  N_28
REMARK                            x       y       z     vdW  Elec       q    Type
REMARK                         _______ _______ _______ _____ _____    ______ ____
ROOT
ATOM      1  C   UNL     1       2.169   7.839  19.592  0.00  0.00    +0.000 A 
ATOM      2  N   UNL     1       2.717   6.575  19.635  0.00  0.00    +0.000 NA
ATOM      3  C   UNL     1       3.522   6.077  18.634  0.00  0.00    +0.000 A 
ATOM      4  C   UNL     1       3.811   6.896  17.516  0.00  0.00    +0.000 A 
ATOM      5  C   UNL     1       3.246   8.174  17.449  0.00  0.00    +0.000 A 
ATOM      6  C   UNL     1       2.439   8.647  18.467  0.00  0.00    +0.000 A 
ATOM      7  F   UNL     1       1.957   9.907  18.335  0.00  0.00    +0.000 F 
ATOM      8  C   UNL     1       4.653   6.428  16.489  0.00  0.00    +0.000 A 
ATOM      9  O   UNL     1       4.884   7.140  15.525  0.00  0.00    +0.000 OA
ATOM     10  C   UNL     1       5.236   5.150  16.582  0.00  0.00    +0.000 A 
ATOM     11  C   UNL     1       4.933   4.381  17.712  0.00  0.00    +0.000 A 
ATOM     12  N   UNL     1       4.094   4.823  18.700  0.00  0.00    +0.000 N 
ATOM     13  C   UNL     1       3.822   3.867  19.752  0.00  0.00    +0.000 A 
ATOM     14  N   UNL     1       4.700   2.888  20.090  0.00  0.00    +0.000 NA
ATOM     15  C   UNL     1       4.177   2.002  20.969  0.00  0.00    +0.000 A 
ATOM     16  C   UNL     1       2.851   2.235  21.302  0.00  0.00    +0.000 A 
ATOM     17  S   UNL     1       2.338   3.634  20.508  0.00  0.00    +0.000 S 
ENDROOT
BRANCH   1  20
ATOM     18  C   UNL     1      -0.646   9.388  21.345  0.00  0.00    +0.000 C 
ATOM     19  C   UNL     1      -0.064   8.057  20.846  0.00  0.00    +0.000 C 
ATOM     20  N   UNL     1       1.340   8.338  20.669  0.00  0.00    +0.000 N 
ATOM     21  C   UNL     1       1.767   9.377  21.591  0.00  0.00    +0.000 C 
ATOM     22  C   UNL     1       0.489   9.927  22.244  0.00  0.00    +0.000 C 
BRANCH  22  23
ATOM     23  N   UNL     1       0.366   9.477  23.634  0.00  0.00    +0.000 NA
ATOM     24  H   UNL     1      -0.609   9.201  23.879  0.00  0.00    +0.000 HD
ATOM     25  H   UNL     1       0.680  10.250  24.267  0.00  0.00    +0.000 HD
ENDBRANCH  22  23
BRANCH  18  27
ATOM     26  C   UNL     1      -1.062  11.587  20.732  0.00  0.00    +0.000 C 
ATOM     27  O   UNL     1      -0.818  10.277  20.253  0.00  0.00    +0.000 OA
ENDBRANCH  18  27
ENDBRANCH   1  20
BRANCH  10  28
ATOM     28  C   UNL     1       6.132   4.613  15.494  0.00  0.00    +0.000 C 
ATOM     29  O   UNL     1       7.326   4.477  15.708  0.00  0.00    +0.000 OA
BRANCH  28  30
ATOM     30  O   UNL     1       5.680   4.280  14.261  0.00  0.00    +0.000 OA
ATOM     31  H   UNL     1       5.451   4.899  13.559  0.00  0.00    +0.000 HD
ENDBRANCH  28  30
ENDBRANCH  10  28
TORSDOF 5
ENDMDL
MODEL 3
REMARK VINA RESULT:      -6.7      5.728      8.247
REMARK  Name = 
REMARK  6 active torsions:
REMARK  status: ('A' for Active; 'I' for Inactive)
REMARK    1  A    between atoms: C_1  and  O_2
REMARK    2  A    between atoms: O_2  and  C_3
REMARK    3  A    between atoms: N_5  and  C_6
REMARK    4  A    between atoms: C_15  and  C_16
REMARK    5  A    between atoms: C_16  and  O_18
REMARK    6  A    between atoms: C_27  and  N_28
REMARK                            x       y       z     vdW  Elec       q    Type
REMARK                         _______ _______ _______ _____ _____    ______ ____
ROOT
ATOM      1  C   UNL     1      -3.062  12.716  20.843  0.00  0.00    +0.000 A 
ATOM      2  N   UNL     1      -2.203  11.898  20.140  0.00  0.00    +0.000 NA
ATOM      3  C   UNL     1      -2.486  11.431  18.875  0.00  0.00    +0.000 A 
ATOM      4  C   UNL     1      -3.704  11.809  18.261  0.00  0.00    +0.000 A 
ATOM      5  C   UNL     1      -4.595  12.622  18.970  0.00  0.00    +0.000 A 
ATOM      6  C   UNL     1      -4.287  13.075  20.239  0.00  0.00    +0.000 A 
ATOM      7  F   UNL     1      -5.193  13.881  20.842  0.00  0.00    +0.000 F 
ATOM      8  C   UNL     1      -4.011  11.372  16.959  0.00  0.00    +0.000 A 
ATOM      9  O   UNL     1      -5.070  11.696  16.446  0.00  0.00    +0.000 OA
ATOM     10  C   UNL     1      -3.094  10.576  16.247  0.00  0.00    +0.000 A 
ATOM     11  C   UNL     1      -1.896  10.238  16.888  0.00  0.00    +0.000 A 
ATOM     12  N   UNL     1      -1.606  10.640  18.164  0.00  0.00    +0.000 N 
ATOM     13  C   UNL     1      -0.364  10.130  18.705  0.00  0.00    +0.000 A 
ATOM     14  N   UNL     1       0.689   9.794  17.917  0.00  0.00    +0.000 NA
ATOM     15  C   UNL     1       1.677   9.175  18.604  0.00  0.00    +0.000 A 
ATOM     16  C   UNL     1       1.398   8.960  19.945  0.00  0.00    +0.000 A 
ATOM     17  S   UNL     1      -0.118   9.621  20.289  0.00  0.00    +0.000 S 
ENDROOT
BRANCH   1  20
ATOM     18  C   UNL     1      -3.416  13.686  24.354  0.00  0.00    +0.000 C 
ATOM     19  C   UNL     1      -3.037  12.538  23.407  0.00  0.00    +0.000 C 
ATOM     20  N   UNL     1      -2.727  13.203  22.164  0.00  0.00    +0.000 N 
ATOM     21  C   UNL     1      -2.231  14.544  22.419  0.00  0.00    +0.000 C 
ATOM     22  C   UNL     1      -2.444  14.806  23.919  0.00  0.00    +0.000 C 
BRANCH  22  23
ATOM     23  N   UNL     1      -1.176  14.765  24.652  0.00  0.00    +0.000 NA
ATOM     24  H   UNL     1      -0.927  13.802  24.965  0.00  0.00    +0.000 HD
ATOM     25  H   UNL     1      -1.248  15.395  25.485  0.00  0.00    +0.000 HD
ENDBRANCH  22  23
BRANCH  18  27
ATOM     26  C   UNL     1      -5.619  12.998  24.106  0.00  0.00    +0.000 C 
ATOM     27  O   UNL     1      -4.743  14.111  24.088  0.00  0.00    +0.000 OA
ENDBRANCH  18  27
ENDBRANCH   1  20
BRANCH  10  28
ATOM     28  C   UNL     1      -3.397  10.081  14.855  0.00  0.00    +0.000 C 
ATOM     29  O   UNL     1      -2.491   9.966  14.044  0.00  0.00    +0.000 OA
BRANCH  28  30
ATOM     30  O   UNL     1      -4.646   9.763  14.440  0.00  0.00    +0.000 OA
ATOM     31  H   UNL     1      -4.903   8.942  14.005  0.00  0.00    +0.000 HD
ENDBRANCH  28  30
ENDBRANCH  10  28
TORSDOF 5
ENDMDL
MODEL 4
REMARK VINA RESULT:      -6.7      5.847     11.124
REMARK  Name = 
REMARK  6 active torsions:
REMARK  status: ('A' for Active; 'I' for Inactive)
REMARK    1  A    between atoms: C_1  and  O_2
REMARK    2  A    between atoms: O_2  and  C_3
REMARK    3  A    between atoms: N_5  and  C_6
REMARK    4  A    between atoms: C_15  and  C_16
REMARK    5  A    between atoms: C_16  and  O_18
REMARK    6  A    between atoms: C_27  and  N_28
REMARK                            x       y       z     vdW  Elec       q    Type
REMARK                         _______ _______ _______ _____ _____    ______ ____
ROOT
ATOM      1  C   UNL     1      -1.558  12.042  20.567  0.00  0.00    +0.000 A 
ATOM      2  N   UNL     1      -2.836  12.370  20.166  0.00  0.00    +0.000 NA
ATOM      3  C   UNL     1      -3.867  12.578  21.057  0.00  0.00    +0.000 A 
ATOM      4  C   UNL     1      -3.608  12.461  22.443  0.00  0.00    +0.000 A 
ATOM      5  C   UNL     1      -2.321  12.109  22.865  0.00  0.00    +0.000 A 
ATOM      6  C   UNL     1      -1.306  11.904  21.949  0.00  0.00    +0.000 A 
ATOM      7  F   UNL     1      -0.083  11.595  22.445  0.00  0.00    +0.000 F 
ATOM      8  C   UNL     1      -4.632  12.693  23.381  0.00  0.00    +0.000 A 
ATOM      9  O   UNL     1      -4.398  12.578  24.573  0.00  0.00    +0.000 OA
ATOM     10  C   UNL     1      -5.916  13.072  22.944  0.00  0.00    +0.000 A 
ATOM     11  C   UNL     1      -6.122  13.190  21.565  0.00  0.00    +0.000 A 
ATOM     12  N   UNL     1      -5.135  12.938  20.649  0.00  0.00    +0.000 N 
ATOM     13  C   UNL     1      -5.543  13.023  19.263  0.00  0.00    +0.000 A 
ATOM     14  N   UNL     1      -6.568  13.813  18.853  0.00  0.00    +0.000 NA
ATOM     15  C   UNL     1      -6.896  13.608  17.556  0.00  0.00    +0.000 A 
ATOM     16  C   UNL     1      -6.168  12.608  16.929  0.00  0.00    +0.000 A 
ATOM     17  S   UNL     1      -5.036  12.002  18.026  0.00  0.00    +0.000 S 
ENDROOT
BRANCH   1  20
ATOM     18  C   UNL     1       0.961  10.375  18.502  0.00  0.00    +0.000 C 
ATOM     19  C   UNL     1      -0.491  10.871  18.543  0.00  0.00    +0.000 C 
ATOM     20  N   UNL     1      -0.493  11.847  19.606  0.00  0.00    +0.000 N 
ATOM     21  C   UNL     1       0.817  12.461  19.729  0.00  0.00    +0.000 C 
ATOM     22  C   UNL     1       1.758  11.661  18.814  0.00  0.00    +0.000 C 
BRANCH  22  23
ATOM     23  N   UNL     1       2.097  12.419  17.606  0.00  0.00    +0.000 NA
ATOM     24  H   UNL     1       3.098  12.311  17.335  0.00  0.00    +0.000 HD
ATOM     25  H   UNL     1       1.887  13.432  17.774  0.00  0.00    +0.000 HD
ENDBRANCH  22  23
BRANCH  18  27
ATOM     26  C   UNL     1       1.970   8.365  19.076  0.00  0.00    +0.000 C 
ATOM     27  O   UNL     1       1.181   9.443  19.547  0.00  0.00    +0.000 OA
ENDBRANCH  18  27
ENDBRANCH   1  20
BRANCH  10  28
ATOM     28  C   UNL     1      -7.038  13.317  23.922  0.00  0.00    +0.000 C 
ATOM     29  O   UNL     1      -7.915  12.478  24.057  0.00  0.00    +0.000 OA
BRANCH  28  30
ATOM     30  O   UNL     1      -7.139  14.446  24.663  0.00  0.00    +0.000 OA
ATOM     31  H   UNL     1      -6.401  14.971  24.992  0.00  0.00    +0.000 HD
ENDBRANCH  28  30
ENDBRANCH  10  28
TORSDOF 5
ENDMDL
MODEL 5
REMARK VINA RESULT:      -6.6      2.247      6.915
REMARK  Name = 
REMARK  6 active torsions:
REMARK  status: ('A' for Active; 'I' for Inactive)
REMARK    1  A    between atoms: C_1  and  O_2
REMARK    2  A    between atoms: O_2  and  C_3
REMARK    3  A    between atoms: N_5  and  C_6
REMARK    4  A    between atoms: C_15  and  C_16
REMARK    5  A    between atoms: C_16  and  O_18
REMARK    6  A    between atoms: C_27  and  N_28
REMARK                            x       y       z     vdW  Elec       q    Type
REMARK                         _______ _______ _______ _____ _____    ______ ____
ROOT
ATOM      1  C   UNL     1       4.188   5.843  17.045  0.00  0.00    +0.000 A 
ATOM      2  N   UNL     1       3.545   5.346  18.159  0.00  0.00    +0.000 NA
ATOM      3  C   UNL     1       2.769   6.131  18.984  0.00  0.00    +0.000 A 
ATOM      4  C   UNL     1       2.615   7.504  18.677  0.00  0.00    +0.000 A 
ATOM      5  C   UNL     1       3.278   8.027  17.561  0.00  0.00    +0.000 A 
ATOM      6  C   UNL     1       4.051   7.217  16.752  0.00  0.00    +0.000 A 
ATOM      7  F   UNL     1       4.634   7.799  15.676  0.00  0.00    +0.000 F 
ATOM      8  C   UNL     1       1.808   8.328  19.484  0.00  0.00    +0.000 A 
ATOM      9  O   UNL     1       1.692   9.513  19.215  0.00  0.00    +0.000 OA
ATOM     10  C   UNL     1       1.125   7.784  20.589  0.00  0.00    +0.000 A 
ATOM     11  C   UNL     1       1.296   6.418  20.846  0.00  0.00    +0.000 A 
ATOM     12  N   UNL     1       2.102   5.620  20.079  0.00  0.00    +0.000 N 
ATOM     13  C   UNL     1       2.233   4.253  20.537  0.00  0.00    +0.000 A 
ATOM     14  N   UNL     1       1.265   3.631  21.256  0.00  0.00    +0.000 NA
ATOM     15  C   UNL     1       1.662   2.428  21.732  0.00  0.00    +0.000 A 
ATOM     16  C   UNL     1       2.978   2.100  21.442  0.00  0.00    +0.000 A 
ATOM     17  S   UNL     1       3.645   3.339  20.508  0.00  0.00    +0.000 S 
ENDROOT
BRANCH   1  20
ATOM     18  C   UNL     1       6.982   3.816  15.831  0.00  0.00    +0.000 C 
ATOM     19  C   UNL     1       5.655   3.779  16.602  0.00  0.00    +0.000 C 
ATOM     20  N   UNL     1       4.982   4.987  16.189  0.00  0.00    +0.000 N 
ATOM     21  C   UNL     1       5.393   5.360  14.846  0.00  0.00    +0.000 C 
ATOM     22  C   UNL     1       6.561   4.431  14.478  0.00  0.00    +0.000 C 
BRANCH  22  23
ATOM     23  N   UNL     1       6.148   3.418  13.504  0.00  0.00    +0.000 NA
ATOM     24  H   UNL     1       5.219   3.628  13.078  0.00  0.00    +0.000 HD
ATOM     25  H   UNL     1       6.110   2.486  13.982  0.00  0.00    +0.000 HD
ENDBRANCH  22  23
BRANCH  18  27
ATOM     26  C   UNL     1       7.782   4.568  17.876  0.00  0.00    +0.000 C 
ATOM     27  O   UNL     1       7.885   4.703  16.469  0.00  0.00    +0.000 OA
ENDBRANCH  18  27
ENDBRANCH   1  20
BRANCH  10  28
ATOM     28  C   UNL     1       0.262   8.641  21.480  0.00  0.00    +0.000 C 
ATOM     29  O   UNL     1      -0.774   8.184  21.938  0.00  0.00    +0.000 OA
BRANCH  28  30
ATOM     30  O   UNL     1       0.571   9.920  21.799  0.00  0.00    +0.000 OA
ATOM     31  H   UNL     1       0.638  10.278  22.691  0.00  0.00    +0.000 HD
ENDBRANCH  28  30
ENDBRANCH  10  28
TORSDOF 5
ENDMDL
MODEL 6
REMARK VINA RESULT:      -6.4      3.058      4.525
REMARK  Name = 
REMARK  6 active torsions:
REMARK  status: ('A' for Active; 'I' for Inactive)
REMARK    1  A    between atoms: C_1  and  O_2
REMARK    2  A    between atoms: O_2  and  C_3
REMARK    3  A    between atoms: N_5  and  C_6
REMARK    4  A    between atoms: C_15  and  C_16
REMARK    5  A    between atoms: C_16  and  O_18
REMARK    6  A    between atoms: C_27  and  N_28
REMARK                            x       y       z     vdW  Elec       q    Type
REMARK                         _______ _______ _______ _____ _____    ______ ____
ROOT
ATOM      1  C   UNL     1       2.192   7.381  19.625  0.00  0.00    +0.000 A 
ATOM      2  N   UNL     1       3.255   6.790  18.976  0.00  0.00    +0.000 NA
ATOM      3  C   UNL     1       3.632   5.484  19.201  0.00  0.00    +0.000 A 
ATOM      4  C   UNL     1       2.896   4.708  20.128  0.00  0.00    +0.000 A 
ATOM      5  C   UNL     1       1.826   5.301  20.809  0.00  0.00    +0.000 A 
ATOM      6  C   UNL     1       1.471   6.614  20.566  0.00  0.00    +0.000 A 
ATOM      7  F   UNL     1       0.406   7.100  21.247  0.00  0.00    +0.000 F 
ATOM      8  C   UNL     1       3.238   3.362  20.360  0.00  0.00    +0.000 A 
ATOM      9  O   UNL     1       2.601   2.708  21.171  0.00  0.00    +0.000 OA
ATOM     10  C   UNL     1       4.299   2.770  19.650  0.00  0.00    +0.000 A 
ATOM     11  C   UNL     1       4.989   3.571  18.733  0.00  0.00    +0.000 A 
ATOM     12  N   UNL     1       4.677   4.888  18.524  0.00  0.00    +0.000 N 
ATOM     13  C   UNL     1       5.547   5.591  17.606  0.00  0.00    +0.000 A 
ATOM     14  N   UNL     1       6.217   4.958  16.609  0.00  0.00    +0.000 NA
ATOM     15  C   UNL     1       7.106   5.766  15.986  0.00  0.00    +0.000 A 
ATOM     16  C   UNL     1       7.194   7.044  16.516  0.00  0.00    +0.000 A 
ATOM     17  S   UNL     1       6.076   7.179  17.775  0.00  0.00    +0.000 S 
ENDROOT
BRANCH   1  20
ATOM     18  C   UNL     1       0.178  10.432  19.447  0.00  0.00    +0.000 C 
ATOM     19  C   UNL     1       1.193   9.653  20.295  0.00  0.00    +0.000 C 
ATOM     20  N   UNL     1       1.812   8.752  19.354  0.00  0.00    +0.000 N 
ATOM     21  C   UNL     1       1.799   9.329  18.020  0.00  0.00    +0.000 C 
ATOM     22  C   UNL     1       0.924  10.589  18.103  0.00  0.00    +0.000 C 
BRANCH  22  23
ATOM     23  N   UNL     1       1.738  11.807  18.051  0.00  0.00    +0.000 NA
ATOM     24  H   UNL     1       1.493  12.416  17.240  0.00  0.00    +0.000 HD
ATOM     25  H   UNL     1       2.748  11.534  17.991  0.00  0.00    +0.000 HD
ENDBRANCH  22  23
BRANCH  18  27
ATOM     26  C   UNL     1      -1.817  10.258  18.273  0.00  0.00    +0.000 C 
ATOM     27  O   UNL     1      -0.978   9.639  19.232  0.00  0.00    +0.000 OA
ENDBRANCH  18  27
ENDBRANCH   1  20
BRANCH  10  28
ATOM     28  C   UNL     1       4.698   1.335  19.884  0.00  0.00    +0.000 C 
ATOM     29  O   UNL     1       5.291   1.032  20.907  0.00  0.00    +0.000 OA
BRANCH  28  30
ATOM     30  O   UNL     1       4.444   0.344  18.996  0.00  0.00    +0.000 OA
ATOM     31  H   UNL     1       4.509   0.416  18.038  0.00  0.00    +0.000 HD
ENDBRANCH  28  30
ENDBRANCH  10  28
TORSDOF 5
ENDMDL
MODEL 7
REMARK VINA RESULT:      -6.4      5.820      8.252
REMARK  Name = 
REMARK  6 active torsions:
REMARK  status: ('A' for Active; 'I' for Inactive)
REMARK    1  A    between atoms: C_1  and  O_2
REMARK    2  A    between atoms: O_2  and  C_3
REMARK    3  A    between atoms: N_5  and  C_6
REMARK    4  A    between atoms: C_15  and  C_16
REMARK    5  A    between atoms: C_16  and  O_18
REMARK    6  A    between atoms: C_27  and  N_28
REMARK                            x       y       z     vdW  Elec       q    Type
REMARK                         _______ _______ _______ _____ _____    ______ ____
ROOT
ATOM      1  C   UNL     1      -3.599  12.885  20.769  0.00  0.00    +0.000 A 
ATOM      2  N   UNL     1      -2.659  12.100  20.136  0.00  0.00    +0.000 NA
ATOM      3  C   UNL     1      -2.844  11.592  18.869  0.00  0.00    +0.000 A 
ATOM      4  C   UNL     1      -4.042  11.893  18.178  0.00  0.00    +0.000 A 
ATOM      5  C   UNL     1      -5.014  12.672  18.816  0.00  0.00    +0.000 A 
ATOM      6  C   UNL     1      -4.803  13.167  20.089  0.00  0.00    +0.000 A 
ATOM      7  F   UNL     1      -5.783  13.936  20.620  0.00  0.00    +0.000 F 
ATOM      8  C   UNL     1      -4.251  11.412  16.872  0.00  0.00    +0.000 A 
ATOM      9  O   UNL     1      -5.294  11.669  16.292  0.00  0.00    +0.000 OA
ATOM     10  C   UNL     1      -3.254  10.651  16.232  0.00  0.00    +0.000 A 
ATOM     11  C   UNL     1      -2.080  10.391  16.947  0.00  0.00    +0.000 A 
ATOM     12  N   UNL     1      -1.885  10.834  18.228  0.00  0.00    +0.000 N 
ATOM     13  C   UNL     1      -0.651  10.402  18.850  0.00  0.00    +0.000 A 
ATOM     14  N   UNL     1       0.461  10.106  18.131  0.00  0.00    +0.000 NA
ATOM     15  C   UNL     1       1.439   9.554  18.888  0.00  0.00    +0.000 A 
ATOM     16  C   UNL     1       1.094   9.353  20.216  0.00  0.00    +0.000 A 
ATOM     17  S   UNL     1      -0.471   9.940  20.458  0.00  0.00    +0.000 S 
ENDROOT
BRANCH   1  20
ATOM     18  C   UNL     1      -1.852  14.244  23.684  0.00  0.00    +0.000 C 
ATOM     19  C   UNL     1      -2.614  14.609  22.402  0.00  0.00    +0.000 C 
ATOM     20  N   UNL     1      -3.366  13.417  22.096  0.00  0.00    +0.000 N 
ATOM     21  C   UNL     1      -3.674  12.688  23.314  0.00  0.00    +0.000 C 
ATOM     22  C   UNL     1      -2.877  13.367  24.438  0.00  0.00    +0.000 C 
BRANCH  22  23
ATOM     23  N   UNL     1      -3.752  14.153  25.312  0.00  0.00    +0.000 NA
ATOM     24  H   UNL     1      -3.511  15.168  25.311  0.00  0.00    +0.000 HD
ATOM     25  H   UNL     1      -3.680  13.777  26.288  0.00  0.00    +0.000 HD
ENDBRANCH  22  23
BRANCH  18  27
ATOM     26  C   UNL     1      -0.008  14.032  22.291  0.00  0.00    +0.000 C 
ATOM     27  O   UNL     1      -0.725  13.445  23.363  0.00  0.00    +0.000 OA
ENDBRANCH  18  27
ENDBRANCH   1  20
BRANCH  10  28
ATOM     28  C   UNL     1      -3.450  10.111  14.837  0.00  0.00    +0.000 C 
ATOM     29  O   UNL     1      -2.483   9.957  14.108  0.00  0.00    +0.000 OA
BRANCH  28  30
ATOM     30  O   UNL     1      -4.667   9.795  14.332  0.00  0.00    +0.000 OA
ATOM     31  H   UNL     1      -4.889   9.735  13.396  0.00  0.00    +0.000 HD
ENDBRANCH  28  30
ENDBRANCH  10  28
TORSDOF 5
ENDMDL
MODEL 8
REMARK VINA RESULT:      -6.4      7.799     10.130
REMARK  Name = 
REMARK  6 active torsions:
REMARK  status: ('A' for Active; 'I' for Inactive)
REMARK    1  A    between atoms: C_1  and  O_2
REMARK    2  A    between atoms: O_2  and  C_3
REMARK    3  A    between atoms: N_5  and  C_6
REMARK    4  A    between atoms: C_15  and  C_16
REMARK    5  A    between atoms: C_16  and  O_18
REMARK    6  A    between atoms: C_27  and  N_28
REMARK                            x       y       z     vdW  Elec       q    Type
REMARK                         _______ _______ _______ _____ _____    ______ ____
ROOT
ATOM      1  C   UNL     1      -0.642  13.287  20.518  0.00  0.00    +0.000 A 
ATOM      2  N   UNL     1      -1.544  12.736  19.633  0.00  0.00    +0.000 NA
ATOM      3  C   UNL     1      -2.869  12.531  19.950  0.00  0.00    +0.000 A 
ATOM      4  C   UNL     1      -3.333  12.908  21.233  0.00  0.00    +0.000 A 
ATOM      5  C   UNL     1      -2.424  13.451  22.149  0.00  0.00    +0.000 A 
ATOM      6  C   UNL     1      -1.100  13.643  21.805  0.00  0.00    +0.000 A 
ATOM      7  F   UNL     1      -0.295  14.200  22.742  0.00  0.00    +0.000 F 
ATOM      8  C   UNL     1      -4.687  12.738  21.580  0.00  0.00    +0.000 A 
ATOM      9  O   UNL     1      -5.071  13.057  22.693  0.00  0.00    +0.000 OA
ATOM     10  C   UNL     1      -5.596  12.216  20.640  0.00  0.00    +0.000 A 
ATOM     11  C   UNL     1      -5.095  11.870  19.379  0.00  0.00    +0.000 A 
ATOM     12  N   UNL     1      -3.774  12.009  19.048  0.00  0.00    +0.000 N 
ATOM     13  C   UNL     1      -3.412  11.523  17.734  0.00  0.00    +0.000 A 
ATOM     14  N   UNL     1      -4.297  11.478  16.706  0.00  0.00    +0.000 NA
ATOM     15  C   UNL     1      -3.807  10.827  15.625  0.00  0.00    +0.000 A 
ATOM     16  C   UNL     1      -2.538  10.295  15.800  0.00  0.00    +0.000 A 
ATOM     17  S   UNL     1      -1.994  10.707  17.345  0.00  0.00    +0.000 S 
ENDROOT
BRANCH   1  20
ATOM     18  C   UNL     1       2.976  13.757  20.813  0.00  0.00    +0.000 C 
ATOM     19  C   UNL     1       1.864  12.719  20.601  0.00  0.00    +0.000 C 
ATOM     20  N   UNL     1       0.741  13.503  20.148  0.00  0.00    +0.000 N 
ATOM     21  C   UNL     1       1.203  14.687  19.444  0.00  0.00    +0.000 C 
ATOM     22  C   UNL     1       2.724  14.750  19.656  0.00  0.00    +0.000 C 
BRANCH  22  23
ATOM     23  N   UNL     1       3.447  14.385  18.435  0.00  0.00    +0.000 NA
ATOM     24  H   UNL     1       2.813  14.264  17.617  0.00  0.00    +0.000 HD
ATOM     25  H   UNL     1       3.970  13.493  18.607  0.00  0.00    +0.000 HD
ENDBRANCH  22  23
BRANCH  18  27
ATOM     26  C   UNL     1       3.920  15.199  22.366  0.00  0.00    +0.000 C 
ATOM     27  O   UNL     1       2.773  14.434  22.042  0.00  0.00    +0.000 OA
ENDBRANCH  18  27
ENDBRANCH   1  20
BRANCH  10  28
ATOM     28  C   UNL     1      -7.050  12.010  20.983  0.00  0.00    +0.000 C 
ATOM     29  O   UNL     1      -7.913  12.383  20.203  0.00  0.00    +0.000 OA
BRANCH  28  30
ATOM     30  O   UNL     1      -7.463  11.435  22.137  0.00  0.00    +0.000 OA
ATOM     31  H   UNL     1      -6.959  10.804  22.663  0.00  0.00    +0.000 HD
ENDBRANCH  28  30
ENDBRANCH  10  28
TORSDOF 5
ENDMDL
MODEL 9
REMARK VINA RESULT:      -6.3      9.298     11.619
REMARK  Name = 
REMARK  6 active torsions:
REMARK  status: ('A' for Active; 'I' for Inactive)
REMARK    1  A    between atoms: C_1  and  O_2
REMARK    2  A    between atoms: O_2  and  C_3
REMARK    3  A    between atoms: N_5  and  C_6
REMARK    4  A    between atoms: C_15  and  C_16
REMARK    5  A    between atoms: C_16  and  O_18
REMARK    6  A    between atoms: C_27  and  N_28
REMARK                            x       y       z     vdW  Elec       q    Type
REMARK                         _______ _______ _______ _____ _____    ______ ____
ROOT
ATOM      1  C   UNL     1       9.063  13.986  20.023  0.00  0.00    +0.000 A 
ATOM      2  N   UNL     1       7.813  14.462  20.354  0.00  0.00    +0.000 NA
ATOM      3  C   UNL     1       7.215  14.207  21.569  0.00  0.00    +0.000 A 
ATOM      4  C   UNL     1       7.913  13.432  22.526  0.00  0.00    +0.000 A 
ATOM      5  C   UNL     1       9.175  12.924  22.197  0.00  0.00    +0.000 A 
ATOM      6  C   UNL     1       9.749  13.194  20.969  0.00  0.00    +0.000 A 
ATOM      7  F   UNL     1      10.985  12.688  20.743  0.00  0.00    +0.000 F 
ATOM      8  C   UNL     1       7.343  13.176  23.788  0.00  0.00    +0.000 A 
ATOM      9  O   UNL     1       7.950  12.496  24.599  0.00  0.00    +0.000 OA
ATOM     10  C   UNL     1       6.085  13.714  24.116  0.00  0.00    +0.000 A 
ATOM     11  C   UNL     1       5.438  14.487  23.144  0.00  0.00    +0.000 A 
ATOM     12  N   UNL     1       5.977  14.716  21.907  0.00  0.00    +0.000 N 
ATOM     13  C   UNL     1       5.137  15.462  20.995  0.00  0.00    +0.000 A 
ATOM     14  N   UNL     1       4.203  16.348  21.426  0.00  0.00    +0.000 NA
ATOM     15  C   UNL     1       3.412  16.798  20.424  0.00  0.00    +0.000 A 
ATOM     16  C   UNL     1       3.673  16.232  19.185  0.00  0.00    +0.000 A 
ATOM     17  S   UNL     1       4.978  15.173  19.345  0.00  0.00    +0.000 S 
ENDROOT
BRANCH   1  20
ATOM     18  C   UNL     1      11.130  13.650  17.021  0.00  0.00    +0.000 C 
ATOM     19  C   UNL     1       9.739  13.387  17.616  0.00  0.00    +0.000 C 
ATOM     20  N   UNL     1       9.669  14.286  18.743  0.00  0.00    +0.000 N 
ATOM     21  C   UNL     1      10.490  15.460  18.503  0.00  0.00    +0.000 C 
ATOM     22  C   UNL     1      11.292  15.173  17.224  0.00  0.00    +0.000 C 
BRANCH  22  23
ATOM     23  N   UNL     1      10.780  15.948  16.090  0.00  0.00    +0.000 NA
ATOM     24  H   UNL     1      10.103  16.685  16.384  0.00  0.00    +0.000 HD
ATOM     25  H   UNL     1      10.314  15.294  15.417  0.00  0.00    +0.000 HD
ENDBRANCH  22  23
BRANCH  18  27
ATOM     26  C   UNL     1      11.757  11.626  17.966  0.00  0.00    +0.000 C 
ATOM     27  O   UNL     1      12.117  12.985  17.792  0.00  0.00    +0.000 OA
ENDBRANCH  18  27
ENDBRANCH   1  20
BRANCH  10  28
ATOM     28  C   UNL     1       5.440  13.449  25.454  0.00  0.00    +0.000 C 
ATOM     29  O   UNL     1       5.076  14.388  26.145  0.00  0.00    +0.000 OA
BRANCH  28  30
ATOM     30  O   UNL     1       5.251  12.203  25.949  0.00  0.00    +0.000 OA
ATOM     31  H   UNL     1       4.892  11.453  25.463  0.00  0.00    +0.000 HD
ENDBRANCH  28  30
ENDBRANCH  10  28
TORSDOF 5
ENDMDL
