MODEL 1
REMARK VINA RESULT:      -7.0      0.000      0.000
REMARK  Name = 
REMARK  3 active torsions:
REMARK  status: ('A' for Active; 'I' for Inactive)
REMARK    1  A    between atoms: C_5  and  N_6
REMARK    2  A    between atoms: C_14  and  C_15
REMARK    3  A    between atoms: C_15  and  N_16
REMARK                            x       y       z     vdW  Elec       q    Type
REMARK                         _______ _______ _______ _____ _____    ______ ____
ROOT
ATOM      1  N   UNL     1      -1.382  11.672  21.627  0.00  0.00    +0.000 N 
ATOM      2  C   UNL     1      -1.395  11.703  20.164  0.00  0.00    +0.000 C 
ATOM      3  C   UNL     1      -0.109  12.316  19.617  0.00  0.00    +0.000 C 
ATOM      4  C   UNL     1       1.197  11.713  20.128  0.00  0.00    +0.000 C 
ATOM      5  N   UNL     1       1.052  10.358  20.646  0.00  0.00    +0.000 N 
ATOM      6  C   UNL     1       1.426   9.237  19.935  0.00  0.00    +0.000 A 
ATOM      7  C   UNL     1       1.490   9.240  18.543  0.00  0.00    +0.000 A 
ATOM      8  C   UNL     1       1.924   8.110  17.844  0.00  0.00    +0.000 A 
ATOM      9  C   UNL     1       2.305   6.973  18.549  0.00  0.00    +0.000 A 
ATOM     10  C   UNL     1       2.181   7.028  19.928  0.00  0.00    +0.000 A 
ATOM     11  N   UNL     1       1.745   8.113  20.613  0.00  0.00    +0.000 NA
ATOM     12  C   UNL     1       0.644  10.241  22.056  0.00  0.00    +0.000 C 
ATOM     13  C   UNL     1      -0.881  10.411  22.229  0.00  0.00    +0.000 C 
ENDROOT
BRANCH   1  18
ATOM     14  F   UNL     1      -4.285  15.252  24.714  0.00  0.00    +0.000 F 
ATOM     15  C   UNL     1      -3.588  14.382  23.970  0.00  0.00    +0.000 A 
ATOM     16  C   UNL     1      -4.257  13.513  23.127  0.00  0.00    +0.000 A 
ATOM     17  C   UNL     1      -3.526  12.607  22.350  0.00  0.00    +0.000 A 
ATOM     18  C   UNL     1      -2.122  12.550  22.402  0.00  0.00    +0.000 A 
ATOM     19  C   UNL     1      -1.483  13.448  23.275  0.00  0.00    +0.000 A 
ATOM     20  C   UNL     1      -2.206  14.360  24.056  0.00  0.00    +0.000 A 
ENDBRANCH   1  18
BRANCH   9  21
ATOM     21  C   UNL     1       2.840   5.758  17.854  0.00  0.00    +0.000 C 
BRANCH  21  22
ATOM     22  N   UNL     1       4.143   5.360  18.353  0.00  0.00    +0.000 N 
ATOM     23  C   UNL     1       5.338   5.964  18.071  0.00  0.00    +0.000 A 
ATOM     24  C   UNL     1       6.292   5.126  18.602  0.00  0.00    +0.000 A 
ATOM     25  N   UNL     1       5.707   4.049  19.214  0.00  0.00    +0.000 NA
ATOM     26  C   UNL     1       4.413   4.218  19.054  0.00  0.00    +0.000 A 
ENDBRANCH  21  22
ENDBRANCH   9  21
TORSDOF 3
ENDMDL
MODEL 2
REMARK VINA RESULT:      -6.9      4.398      9.057
REMARK  Name = 
REMARK  3 active torsions:
REMARK  status: ('A' for Active; 'I' for Inactive)
REMARK    1  A    between atoms: C_5  and  N_6
REMARK    2  A    between atoms: C_14  and  C_15
REMARK    3  A    between atoms: C_15  and  N_16
REMARK                            x       y       z     vdW  Elec       q    Type
REMARK                         _______ _______ _______ _____ _____    ______ ____
ROOT
ATOM      1  N   UNL     1       1.998   7.397  19.472  0.00  0.00    +0.000 N 
ATOM      2  C   UNL     1       2.691   8.137  18.417  0.00  0.00    +0.000 C 
ATOM      3  C   UNL     1       1.698   8.789  17.460  0.00  0.00    +0.000 C 
ATOM      4  C   UNL     1       0.614   9.654  18.097  0.00  0.00    +0.000 C 
ATOM      5  N   UNL     1       0.962  10.143  19.426  0.00  0.00    +0.000 N 
ATOM      6  C   UNL     1       1.392  11.431  19.665  0.00  0.00    +0.000 A 
ATOM      7  C   UNL     1       2.000  12.196  18.673  0.00  0.00    +0.000 A 
ATOM      8  C   UNL     1       2.380  13.519  18.920  0.00  0.00    +0.000 A 
ATOM      9  C   UNL     1       2.138  14.079  20.170  0.00  0.00    +0.000 A 
ATOM     10  C   UNL     1       1.564  13.249  21.120  0.00  0.00    +0.000 A 
ATOM     11  N   UNL     1       1.209  11.961  20.895  0.00  0.00    +0.000 NA
ATOM     12  C   UNL     1       0.663   9.239  20.550  0.00  0.00    +0.000 C 
ATOM     13  C   UNL     1       1.752   8.157  20.722  0.00  0.00    +0.000 C 
ENDROOT
BRANCH   1  18
ATOM     14  F   UNL     1       1.603   1.865  19.589  0.00  0.00    +0.000 F 
ATOM     15  C   UNL     1       1.705   3.201  19.558  0.00  0.00    +0.000 A 
ATOM     16  C   UNL     1       2.085   3.830  18.386  0.00  0.00    +0.000 A 
ATOM     17  C   UNL     1       2.188   5.226  18.356  0.00  0.00    +0.000 A 
ATOM     18  C   UNL     1       1.918   6.014  19.489  0.00  0.00    +0.000 A 
ATOM     19  C   UNL     1       1.539   5.333  20.659  0.00  0.00    +0.000 A 
ATOM     20  C   UNL     1       1.431   3.936  20.698  0.00  0.00    +0.000 A 
ENDBRANCH   1  18
BRANCH   9  21
ATOM     21  C   UNL     1       2.464  15.510  20.468  0.00  0.00    +0.000 C 
BRANCH  21  22
ATOM     22  N   UNL     1       2.076  16.405  19.394  0.00  0.00    +0.000 N 
ATOM     23  C   UNL     1       0.804  16.814  19.100  0.00  0.00    +0.000 A 
ATOM     24  C   UNL     1       0.915  17.482  17.902  0.00  0.00    +0.000 A 
ATOM     25  N   UNL     1       2.218  17.508  17.478  0.00  0.00    +0.000 NA
ATOM     26  C   UNL     1       2.896  16.856  18.398  0.00  0.00    +0.000 A 
ENDBRANCH  21  22
ENDBRANCH   9  21
TORSDOF 3
ENDMDL
MODEL 3
REMARK VINA RESULT:      -6.9      1.296      1.826
REMARK  Name = 
REMARK  3 active torsions:
REMARK  status: ('A' for Active; 'I' for Inactive)
REMARK    1  A    between atoms: C_5  and  N_6
REMARK    2  A    between atoms: C_14  and  C_15
REMARK    3  A    between atoms: C_15  and  N_16
REMARK                            x       y       z     vdW  Elec       q    Type
REMARK                         _______ _______ _______ _____ _____    ______ ____
ROOT
ATOM      1  N   UNL     1      -1.539  11.606  21.104  0.00  0.00    +0.000 N 
ATOM      2  C   UNL     1      -1.458  11.594  19.643  0.00  0.00    +0.000 C 
ATOM      3  C   UNL     1      -0.174  12.261  19.158  0.00  0.00    +0.000 C 
ATOM      4  C   UNL     1       1.126  11.746  19.770  0.00  0.00    +0.000 C 
ATOM      5  N   UNL     1       1.021  10.400  20.321  0.00  0.00    +0.000 N 
ATOM      6  C   UNL     1       1.499   9.282  19.671  0.00  0.00    +0.000 A 
ATOM      7  C   UNL     1       1.652   9.248  18.287  0.00  0.00    +0.000 A 
ATOM      8  C   UNL     1       2.190   8.124  17.654  0.00  0.00    +0.000 A 
ATOM      9  C   UNL     1       2.585   7.031  18.417  0.00  0.00    +0.000 A 
ATOM     10  C   UNL     1       2.369   7.119  19.783  0.00  0.00    +0.000 A 
ATOM     11  N   UNL     1       1.833   8.197  20.404  0.00  0.00    +0.000 NA
ATOM     12  C   UNL     1       0.529  10.301  21.706  0.00  0.00    +0.000 C 
ATOM     13  C   UNL     1      -1.011  10.392  21.776  0.00  0.00    +0.000 C 
ENDROOT
BRANCH   1  18
ATOM     14  F   UNL     1      -4.826  15.032  23.973  0.00  0.00    +0.000 F 
ATOM     15  C   UNL     1      -4.036  14.204  23.274  0.00  0.00    +0.000 A 
ATOM     16  C   UNL     1      -3.773  14.471  21.943  0.00  0.00    +0.000 A 
ATOM     17  C   UNL     1      -2.947  13.605  21.217  0.00  0.00    +0.000 A 
ATOM     18  C   UNL     1      -2.373  12.463  21.802  0.00  0.00    +0.000 A 
ATOM     19  C   UNL     1      -2.670  12.228  23.156  0.00  0.00    +0.000 A 
ATOM     20  C   UNL     1      -3.495  13.090  23.892  0.00  0.00    +0.000 A 
ENDBRANCH   1  18
BRANCH   9  21
ATOM     21  C   UNL     1       3.228   5.828  17.797  0.00  0.00    +0.000 C 
BRANCH  21  22
ATOM     22  N   UNL     1       2.592   4.587  18.198  0.00  0.00    +0.000 N 
ATOM     23  C   UNL     1       3.157   3.592  18.949  0.00  0.00    +0.000 A 
ATOM     24  C   UNL     1       2.255   2.555  18.899  0.00  0.00    +0.000 A 
ATOM     25  N   UNL     1       1.153   2.903  18.162  0.00  0.00    +0.000 NA
ATOM     26  C   UNL     1       1.381   4.134  17.757  0.00  0.00    +0.000 A 
ENDBRANCH  21  22
ENDBRANCH   9  21
TORSDOF 3
ENDMDL
MODEL 4
REMARK VINA RESULT:      -6.9      4.370      9.176
REMARK  Name = 
REMARK  3 active torsions:
REMARK  status: ('A' for Active; 'I' for Inactive)
REMARK    1  A    between atoms: C_5  and  N_6
REMARK    2  A    between atoms: C_14  and  C_15
REMARK    3  A    between atoms: C_15  and  N_16
REMARK                            x       y       z     vdW  Elec       q    Type
REMARK                         _______ _______ _______ _____ _____    ______ ____
ROOT
ATOM      1  N   UNL     1       2.011   7.368  19.541  0.00  0.00    +0.000 N 
ATOM      2  C   UNL     1       2.694   8.105  18.477  0.00  0.00    +0.000 C 
ATOM      3  C   UNL     1       1.694   8.700  17.490  0.00  0.00    +0.000 C 
ATOM      4  C   UNL     1       0.575   9.546  18.093  0.00  0.00    +0.000 C 
ATOM      5  N   UNL     1       0.889  10.078  19.413  0.00  0.00    +0.000 N 
ATOM      6  C   UNL     1       1.274  11.385  19.625  0.00  0.00    +0.000 A 
ATOM      7  C   UNL     1       1.871  12.144  18.621  0.00  0.00    +0.000 A 
ATOM      8  C   UNL     1       2.204  13.484  18.840  0.00  0.00    +0.000 A 
ATOM      9  C   UNL     1       1.928  14.067  20.072  0.00  0.00    +0.000 A 
ATOM     10  C   UNL     1       1.369  13.242  21.035  0.00  0.00    +0.000 A 
ATOM     11  N   UNL     1       1.057  11.938  20.838  0.00  0.00    +0.000 NA
ATOM     12  C   UNL     1       0.604   9.193  20.556  0.00  0.00    +0.000 C 
ATOM     13  C   UNL     1       1.724   8.151  20.769  0.00  0.00    +0.000 C 
ENDROOT
BRANCH   1  18
ATOM     14  F   UNL     1       1.940   1.823  19.687  0.00  0.00    +0.000 F 
ATOM     15  C   UNL     1       1.951   3.163  19.656  0.00  0.00    +0.000 A 
ATOM     16  C   UNL     1       1.723   3.877  20.818  0.00  0.00    +0.000 A 
ATOM     17  C   UNL     1       1.737   5.276  20.782  0.00  0.00    +0.000 A 
ATOM     18  C   UNL     1       1.975   5.985  19.591  0.00  0.00    +0.000 A 
ATOM     19  C   UNL     1       2.199   5.220  18.433  0.00  0.00    +0.000 A 
ATOM     20  C   UNL     1       2.188   3.819  18.459  0.00  0.00    +0.000 A 
ENDBRANCH   1  18
BRANCH   9  21
ATOM     21  C   UNL     1       2.204  15.515  20.338  0.00  0.00    +0.000 C 
BRANCH  21  22
ATOM     22  N   UNL     1       1.416  16.396  19.497  0.00  0.00    +0.000 N 
ATOM     23  C   UNL     1       0.051  16.421  19.404  0.00  0.00    +0.000 A 
ATOM     24  C   UNL     1      -0.217  17.266  18.353  0.00  0.00    +0.000 A 
ATOM     25  N   UNL     1       0.943  17.769  17.825  0.00  0.00    +0.000 NA
ATOM     26  C   UNL     1       1.910  17.232  18.536  0.00  0.00    +0.000 A 
ENDBRANCH  21  22
ENDBRANCH   9  21
TORSDOF 3
ENDMDL
MODEL 5
REMARK VINA RESULT:      -6.9      3.714      9.748
REMARK  Name = 
REMARK  3 active torsions:
REMARK  status: ('A' for Active; 'I' for Inactive)
REMARK    1  A    between atoms: C_5  and  N_6
REMARK    2  A    between atoms: C_14  and  C_15
REMARK    3  A    between atoms: C_15  and  N_16
REMARK                            x       y       z     vdW  Elec       q    Type
REMARK                         _______ _______ _______ _____ _____    ______ ____
ROOT
ATOM      1  N   UNL     1       1.066   8.746  19.898  0.00  0.00    +0.000 N 
ATOM      2  C   UNL     1       0.493   8.414  21.203  0.00  0.00    +0.000 C 
ATOM      3  C   UNL     1       1.102   9.274  22.306  0.00  0.00    +0.000 C 
ATOM      4  C   UNL     1       1.072  10.784  22.078  0.00  0.00    +0.000 C 
ATOM      5  N   UNL     1       0.052  11.212  21.127  0.00  0.00    +0.000 N 
ATOM      6  C   UNL     1      -1.145  11.777  21.513  0.00  0.00    +0.000 A 
ATOM      7  C   UNL     1      -1.696  11.539  22.770  0.00  0.00    +0.000 A 
ATOM      8  C   UNL     1      -2.883  12.165  23.161  0.00  0.00    +0.000 A 
ATOM      9  C   UNL     1      -3.515  13.044  22.287  0.00  0.00    +0.000 A 
ATOM     10  C   UNL     1      -2.931  13.204  21.040  0.00  0.00    +0.000 A 
ATOM     11  N   UNL     1      -1.790  12.589  20.646  0.00  0.00    +0.000 NA
ATOM     12  C   UNL     1       0.433  11.176  19.705  0.00  0.00    +0.000 C 
ATOM     13  C   UNL     1       0.309   9.754  19.114  0.00  0.00    +0.000 C 
ENDROOT
BRANCH   1  18
ATOM     14  F   UNL     1       4.721   5.440  17.353  0.00  0.00    +0.000 F 
ATOM     15  C   UNL     1       3.843   6.245  17.967  0.00  0.00    +0.000 A 
ATOM     16  C   UNL     1       3.527   7.468  17.405  0.00  0.00    +0.000 A 
ATOM     17  C   UNL     1       2.607   8.305  18.048  0.00  0.00    +0.000 A 
ATOM     18  C   UNL     1       1.991   7.939  19.257  0.00  0.00    +0.000 A 
ATOM     19  C   UNL     1       2.344   6.689  19.795  0.00  0.00    +0.000 A 
ATOM     20  C   UNL     1       3.262   5.843  19.158  0.00  0.00    +0.000 A 
ENDBRANCH   1  18
BRANCH   9  21
ATOM     21  C   UNL     1      -4.752  13.792  22.679  0.00  0.00    +0.000 C 
BRANCH  21  22
ATOM     22  N   UNL     1      -5.908  12.925  22.812  0.00  0.00    +0.000 N 
ATOM     23  C   UNL     1      -6.718  12.492  21.797  0.00  0.00    +0.000 A 
ATOM     24  C   UNL     1      -7.772  11.871  22.426  0.00  0.00    +0.000 A 
ATOM     25  N   UNL     1      -7.610  11.896  23.787  0.00  0.00    +0.000 NA
ATOM     26  C   UNL     1      -6.477  12.532  23.990  0.00  0.00    +0.000 A 
ENDBRANCH  21  22
ENDBRANCH   9  21
TORSDOF 3
ENDMDL
MODEL 6
REMARK VINA RESULT:      -6.8      4.489      8.789
REMARK  Name = 
REMARK  3 active torsions:
REMARK  status: ('A' for Active; 'I' for Inactive)
REMARK    1  A    between atoms: C_5  and  N_6
REMARK    2  A    between atoms: C_14  and  C_15
REMARK    3  A    between atoms: C_15  and  N_16
REMARK                            x       y       z     vdW  Elec       q    Type
REMARK                         _______ _______ _______ _____ _____    ______ ____
ROOT
ATOM      1  N   UNL     1       2.005   7.397  19.495  0.00  0.00    +0.000 N 
ATOM      2  C   UNL     1       2.658   8.156  18.427  0.00  0.00    +0.000 C 
ATOM      3  C   UNL     1       1.630   8.769  17.481  0.00  0.00    +0.000 C 
ATOM      4  C   UNL     1       0.528   9.601  18.130  0.00  0.00    +0.000 C 
ATOM      5  N   UNL     1       0.878  10.108  19.452  0.00  0.00    +0.000 N 
ATOM      6  C   UNL     1       1.268  11.410  19.678  0.00  0.00    +0.000 A 
ATOM      7  C   UNL     1       1.836  12.190  18.674  0.00  0.00    +0.000 A 
ATOM      8  C   UNL     1       2.175  13.526  18.910  0.00  0.00    +0.000 A 
ATOM      9  C   UNL     1       1.933  14.084  20.161  0.00  0.00    +0.000 A 
ATOM     10  C   UNL     1       1.400  13.240  21.122  0.00  0.00    +0.000 A 
ATOM     11  N   UNL     1       1.085  11.940  20.908  0.00  0.00    +0.000 NA
ATOM     12  C   UNL     1       0.625   9.200  20.584  0.00  0.00    +0.000 C 
ATOM     13  C   UNL     1       1.752   8.156  20.745  0.00  0.00    +0.000 C 
ENDROOT
BRANCH   1  18
ATOM     14  F   UNL     1       1.798   1.856  19.646  0.00  0.00    +0.000 F 
ATOM     15  C   UNL     1       1.855   3.194  19.605  0.00  0.00    +0.000 A 
ATOM     16  C   UNL     1       2.154   3.831  18.415  0.00  0.00    +0.000 A 
ATOM     17  C   UNL     1       2.210   5.229  18.376  0.00  0.00    +0.000 A 
ATOM     18  C   UNL     1       1.972   6.013  19.519  0.00  0.00    +0.000 A 
ATOM     19  C   UNL     1       1.675   5.324  20.708  0.00  0.00    +0.000 A 
ATOM     20  C   UNL     1       1.615   3.925  20.757  0.00  0.00    +0.000 A 
ENDBRANCH   1  18
BRANCH   9  21
ATOM     21  C   UNL     1       2.215  15.527  20.448  0.00  0.00    +0.000 C 
BRANCH  21  22
ATOM     22  N   UNL     1       3.515  15.948  19.960  0.00  0.00    +0.000 N 
ATOM     23  C   UNL     1       4.723  15.698  20.552  0.00  0.00    +0.000 A 
ATOM     24  C   UNL     1       5.628  16.452  19.842  0.00  0.00    +0.000 A 
ATOM     25  N   UNL     1       5.006  17.129  18.826  0.00  0.00    +0.000 NA
ATOM     26  C   UNL     1       3.735  16.803  18.917  0.00  0.00    +0.000 A 
ENDBRANCH  21  22
ENDBRANCH   9  21
TORSDOF 3
ENDMDL
MODEL 7
REMARK VINA RESULT:      -6.7      1.212      1.633
REMARK  Name = 
REMARK  3 active torsions:
REMARK  status: ('A' for Active; 'I' for Inactive)
REMARK    1  A    between atoms: C_5  and  N_6
REMARK    2  A    between atoms: C_14  and  C_15
REMARK    3  A    between atoms: C_15  and  N_16
REMARK                            x       y       z     vdW  Elec       q    Type
REMARK                         _______ _______ _______ _____ _____    ______ ____
ROOT
ATOM      1  N   UNL     1      -1.234  11.606  21.946  0.00  0.00    +0.000 N 
ATOM      2  C   UNL     1      -1.286  11.696  20.486  0.00  0.00    +0.000 C 
ATOM      3  C   UNL     1      -0.001  12.296  19.926  0.00  0.00    +0.000 C 
ATOM      4  C   UNL     1       1.302  11.638  20.374  0.00  0.00    +0.000 C 
ATOM      5  N   UNL     1       1.135  10.268  20.843  0.00  0.00    +0.000 N 
ATOM      6  C   UNL     1       1.458   9.167  20.078  0.00  0.00    +0.000 A 
ATOM      7  C   UNL     1       1.482   9.223  18.686  0.00  0.00    +0.000 A 
ATOM      8  C   UNL     1       1.865   8.111  17.931  0.00  0.00    +0.000 A 
ATOM      9  C   UNL     1       2.234   6.937  18.579  0.00  0.00    +0.000 A 
ATOM     10  C   UNL     1       2.151   6.941  19.963  0.00  0.00    +0.000 A 
ATOM     11  N   UNL     1       1.765   8.008  20.702  0.00  0.00    +0.000 NA
ATOM     12  C   UNL     1       0.764  10.105  22.259  0.00  0.00    +0.000 C 
ATOM     13  C   UNL     1      -0.751  10.309  22.483  0.00  0.00    +0.000 C 
ENDROOT
BRANCH   1  18
ATOM     14  F   UNL     1      -3.972  15.142  25.227  0.00  0.00    +0.000 F 
ATOM     15  C   UNL     1      -3.313  14.282  24.439  0.00  0.00    +0.000 A 
ATOM     16  C   UNL     1      -3.962  13.158  23.960  0.00  0.00    +0.000 A 
ATOM     17  C   UNL     1      -3.271  12.263  23.134  0.00  0.00    +0.000 A 
ATOM     18  C   UNL     1      -1.927  12.471  22.776  0.00  0.00    +0.000 A 
ATOM     19  C   UNL     1      -1.306  13.624  23.288  0.00  0.00    +0.000 A 
ATOM     20  C   UNL     1      -1.990  14.526  24.113  0.00  0.00    +0.000 A 
ENDBRANCH   1  18
BRANCH   9  21
ATOM     21  C   UNL     1       2.716   5.737  17.822  0.00  0.00    +0.000 C 
BRANCH  21  22
ATOM     22  N   UNL     1       2.432   4.493  18.512  0.00  0.00    +0.000 N 
ATOM     23  C   UNL     1       3.319   3.750  19.242  0.00  0.00    +0.000 A 
ATOM     24  C   UNL     1       2.652   2.581  19.527  0.00  0.00    +0.000 A 
ATOM     25  N   UNL     1       1.383   2.607  19.012  0.00  0.00    +0.000 NA
ATOM     26  C   UNL     1       1.276   3.772  18.410  0.00  0.00    +0.000 A 
ENDBRANCH  21  22
ENDBRANCH   9  21
TORSDOF 3
ENDMDL
MODEL 8
REMARK VINA RESULT:      -6.6      0.896      1.088
REMARK  Name = 
REMARK  3 active torsions:
REMARK  status: ('A' for Active; 'I' for Inactive)
REMARK    1  A    between atoms: C_5  and  N_6
REMARK    2  A    between atoms: C_14  and  C_15
REMARK    3  A    between atoms: C_15  and  N_16
REMARK                            x       y       z     vdW  Elec       q    Type
REMARK                         _______ _______ _______ _____ _____    ______ ____
ROOT
ATOM      1  N   UNL     1      -1.520  11.630  21.051  0.00  0.00    +0.000 N 
ATOM      2  C   UNL     1      -1.443  11.600  19.590  0.00  0.00    +0.000 C 
ATOM      3  C   UNL     1      -0.151  12.243  19.095  0.00  0.00    +0.000 C 
ATOM      4  C   UNL     1       1.143  11.716  19.710  0.00  0.00    +0.000 C 
ATOM      5  N   UNL     1       1.020  10.379  20.277  0.00  0.00    +0.000 N 
ATOM      6  C   UNL     1       1.481   9.246  19.639  0.00  0.00    +0.000 A 
ATOM      7  C   UNL     1       1.631   9.194  18.256  0.00  0.00    +0.000 A 
ATOM      8  C   UNL     1       2.151   8.055  17.634  0.00  0.00    +0.000 A 
ATOM      9  C   UNL     1       2.532   6.965  18.410  0.00  0.00    +0.000 A 
ATOM     10  C   UNL     1       2.320   7.072  19.775  0.00  0.00    +0.000 A 
ATOM     11  N   UNL     1       1.801   8.165  20.384  0.00  0.00    +0.000 NA
ATOM     12  C   UNL     1       0.530  10.303  21.664  0.00  0.00    +0.000 C 
ATOM     13  C   UNL     1      -1.009  10.417  21.736  0.00  0.00    +0.000 C 
ENDROOT
BRANCH   1  18
ATOM     14  F   UNL     1      -4.733  15.174  23.860  0.00  0.00    +0.000 F 
ATOM     15  C   UNL     1      -3.963  14.315  23.178  0.00  0.00    +0.000 A 
ATOM     16  C   UNL     1      -4.185  14.121  21.826  0.00  0.00    +0.000 A 
ATOM     17  C   UNL     1      -3.377  13.224  21.117  0.00  0.00    +0.000 A 
ATOM     18  C   UNL     1      -2.341  12.507  21.741  0.00  0.00    +0.000 A 
ATOM     19  C   UNL     1      -2.153  12.732  23.116  0.00  0.00    +0.000 A 
ATOM     20  C   UNL     1      -2.955  13.629  23.834  0.00  0.00    +0.000 A 
ENDBRANCH   1  18
BRANCH   9  21
ATOM     21  C   UNL     1       3.156   5.746  17.802  0.00  0.00    +0.000 C 
BRANCH  21  22
ATOM     22  N   UNL     1       4.597   5.718  17.966  0.00  0.00    +0.000 N 
ATOM     23  C   UNL     1       5.284   5.146  19.002  0.00  0.00    +0.000 A 
ATOM     24  C   UNL     1       6.589   5.541  18.823  0.00  0.00    +0.000 A 
ATOM     25  N   UNL     1       6.713   6.314  17.697  0.00  0.00    +0.000 NA
ATOM     26  C   UNL     1       5.499   6.399  17.199  0.00  0.00    +0.000 A 
ENDBRANCH  21  22
ENDBRANCH   9  21
TORSDOF 3
ENDMDL
MODEL 9
REMARK VINA RESULT:      -6.6      1.740      2.403
REMARK  Name = 
REMARK  3 active torsions:
REMARK  status: ('A' for Active; 'I' for Inactive)
REMARK    1  A    between atoms: C_5  and  N_6
REMARK    2  A    between atoms: C_14  and  C_15
REMARK    3  A    between atoms: C_15  and  N_16
REMARK                            x       y       z     vdW  Elec       q    Type
REMARK                         _______ _______ _______ _____ _____    ______ ____
ROOT
ATOM      1  N   UNL     1      -1.697  11.987  20.060  0.00  0.00    +0.000 N 
ATOM      2  C   UNL     1      -1.321  11.889  18.648  0.00  0.00    +0.000 C 
ATOM      3  C   UNL     1       0.059  12.490  18.404  0.00  0.00    +0.000 C 
ATOM      4  C   UNL     1       1.187  11.973  19.294  0.00  0.00    +0.000 C 
ATOM      5  N   UNL     1       0.919  10.665  19.879  0.00  0.00    +0.000 N 
ATOM      6  C   UNL     1       1.474   9.498  19.398  0.00  0.00    +0.000 A 
ATOM      7  C   UNL     1       1.903   9.381  18.078  0.00  0.00    +0.000 A 
ATOM      8  C   UNL     1       2.513   8.207  17.625  0.00  0.00    +0.000 A 
ATOM      9  C   UNL     1       2.701   7.148  18.507  0.00  0.00    +0.000 A 
ATOM     10  C   UNL     1       2.216   7.320  19.794  0.00  0.00    +0.000 A 
ATOM     11  N   UNL     1       1.608   8.448  20.237  0.00  0.00    +0.000 NA
ATOM     12  C   UNL     1       0.152  10.660  21.137  0.00  0.00    +0.000 C 
ATOM     13  C   UNL     1      -1.365  10.799  20.886  0.00  0.00    +0.000 C 
ENDROOT
BRANCH   1  18
ATOM     14  F   UNL     1      -5.454  15.601  21.954  0.00  0.00    +0.000 F 
ATOM     15  C   UNL     1      -4.542  14.733  21.494  0.00  0.00    +0.000 A 
ATOM     16  C   UNL     1      -3.206  14.918  21.801  0.00  0.00    +0.000 A 
ATOM     17  C   UNL     1      -2.256  14.009  21.321  0.00  0.00    +0.000 A 
ATOM     18  C   UNL     1      -2.620  12.906  20.528  0.00  0.00    +0.000 A 
ATOM     19  C   UNL     1      -3.988  12.758  20.237  0.00  0.00    +0.000 A 
ATOM     20  C   UNL     1      -4.946  13.662  20.715  0.00  0.00    +0.000 A 
ENDBRANCH   1  18
BRANCH   9  21
ATOM     21  C   UNL     1       3.408   5.894  18.093  0.00  0.00    +0.000 C 
BRANCH  21  22
ATOM     22  N   UNL     1       2.640   4.699  18.387  0.00  0.00    +0.000 N 
ATOM     23  C   UNL     1       3.004   3.691  19.238  0.00  0.00    +0.000 A 
ATOM     24  C   UNL     1       2.067   2.703  19.039  0.00  0.00    +0.000 A 
ATOM     25  N   UNL     1       1.137   3.096  18.112  0.00  0.00    +0.000 NA
ATOM     26  C   UNL     1       1.503   4.303  17.741  0.00  0.00    +0.000 A 
ENDBRANCH  21  22
ENDBRANCH   9  21
TORSDOF 3
ENDMDL
