MODEL 1
REMARK VINA RESULT:      -7.3      0.000      0.000
REMARK  Name = 
REMARK  13 active torsions:
REMARK  status: ('A' for Active; 'I' for Inactive)
REMARK    1  A    between atoms: C_1  and  O_2
REMARK    2  A    between atoms: O_2  and  C_3
REMARK    3  A    between atoms: C_7  and  C_8
REMARK    4  A    between atoms: N_10  and  CA_11
REMARK    5  A    between atoms: CA_11  and  CB_12
REMARK    6  A    between atoms: CA_11  and  C_19
REMARK    7  A    between atoms: CB_12  and  CG_13
REMARK    8  A    between atoms: C_19  and  OXT_21
REMARK    9  A    between atoms: N_22  and  C_23
REMARK   10  A    between atoms: C_25  and  O_26
REMARK   11  A    between atoms: O_26  and  C_27
REMARK   12  A    between atoms: C_28  and  O_29
REMARK   13  A    between atoms: O_29  and  C_30
REMARK                            x       y       z     vdW  Elec       q    Type
REMARK                         _______ _______ _______ _____ _____    ______ ____
ROOT
ATOM      1  C   UNK A   0      -0.328  11.099  22.285  0.00  0.00    +0.000 A 
ATOM      2  C   UNK A   0      -0.038   9.733  22.283  0.00  0.00    +0.000 A 
ATOM      3  C   UNK A   0       0.615   9.145  21.190  0.00  0.00    +0.000 A 
ATOM      4  C   UNK A   0       1.110   7.836  20.987  0.00  0.00    +0.000 A 
ATOM      5  C   UNK A   0       1.744   7.792  19.761  0.00  0.00    +0.000 A 
ATOM      6  N   UNK A   0       1.473   9.011  19.145  0.00  0.00    +0.000 N 
ATOM      7  C   UNK A   0       1.683   9.272  17.734  0.00  0.00    +0.000 C 
ATOM      8  C   UNK A   0       0.878   9.898  20.047  0.00  0.00    +0.000 A 
ATOM      9  C   UNK A   0       0.516  11.275  19.973  0.00  0.00    +0.000 A 
ATOM     10  C   UNK A   0      -0.036  11.885  21.149  0.00  0.00    +0.000 A 
ENDROOT
BRANCH   5  11
ATOM     11  C   UNK A   0       2.462   6.631  19.271  0.00  0.00    +0.000 C 
ATOM     12  O   UNK A   0       2.743   6.478  18.085  0.00  0.00    +0.000 OA
ATOM     13  N   PHE A   1       2.744   5.665  20.199  0.00  0.00    +0.000 N 
ATOM     14  H   PHE A   1       2.260   5.703  21.093  0.00  0.00    +0.000 HD
BRANCH  13  15
ATOM     15  CA  PHE A   1       3.346   4.373  19.852  0.00  0.00    +0.000 C 
BRANCH  15  16
ATOM     16  C   PHE A   1       2.809   3.346  20.863  0.00  0.00    +0.000 C 
ATOM     17  O   PHE A   1       3.491   2.429  21.311  0.00  0.00    +0.000 OA
BRANCH  16  18
ATOM     18  OXT PHE A   1       1.545   3.558  21.295  0.00  0.00    +0.000 OA
ATOM     19  HXT PHE A   1       0.965   2.774  21.321  0.00  0.00    +0.000 HD
ENDBRANCH  16  18
ENDBRANCH  15  16
BRANCH  15  20
ATOM     20  CB  PHE A   1       4.886   4.392  19.780  0.00  0.00    +0.000 C 
BRANCH  20  21
ATOM     21  CG  PHE A   1       5.465   4.457  18.387  0.00  0.00    +0.000 A 
ATOM     22  CD1 PHE A   1       4.812   3.848  17.308  0.00  0.00    +0.000 A 
ATOM     23  CE1 PHE A   1       5.350   3.931  16.025  0.00  0.00    +0.000 A 
ATOM     24  CZ  PHE A   1       6.538   4.622  15.806  0.00  0.00    +0.000 A 
ATOM     25  CE2 PHE A   1       7.198   5.226  16.872  0.00  0.00    +0.000 A 
ATOM     26  CD2 PHE A   1       6.664   5.145  18.157  0.00  0.00    +0.000 A 
ENDBRANCH  20  21
ENDBRANCH  15  20
ENDBRANCH  13  15
ENDBRANCH   5  11
BRANCH   1  28
ATOM     27  C   UNK A   0      -2.348  11.859  23.260  0.00  0.00    +0.000 C 
ATOM     28  O   UNK A   0      -0.945  11.658  23.375  0.00  0.00    +0.000 OA
ENDBRANCH   1  28
BRANCH   9  29
ATOM     29  O   UNK A   0       0.786  11.932  18.796  0.00  0.00    +0.000 OA
ATOM     30  C   UNK A   0       2.055  12.574  18.665  0.00  0.00    +0.000 C 
ENDBRANCH   9  29
BRANCH  10  31
ATOM     31  O   UNK A   0      -0.182  13.257  21.089  0.00  0.00    +0.000 OA
ATOM     32  C   UNK A   0       0.779  14.107  21.699  0.00  0.00    +0.000 C 
ENDBRANCH  10  31
TORSDOF 9
ENDMDL
MODEL 2
REMARK VINA RESULT:      -7.3      0.706      1.231
REMARK  Name = 
REMARK  13 active torsions:
REMARK  status: ('A' for Active; 'I' for Inactive)
REMARK    1  A    between atoms: C_1  and  O_2
REMARK    2  A    between atoms: O_2  and  C_3
REMARK    3  A    between atoms: C_7  and  C_8
REMARK    4  A    between atoms: N_10  and  CA_11
REMARK    5  A    between atoms: CA_11  and  CB_12
REMARK    6  A    between atoms: CA_11  and  C_19
REMARK    7  A    between atoms: CB_12  and  CG_13
REMARK    8  A    between atoms: C_19  and  OXT_21
REMARK    9  A    between atoms: N_22  and  C_23
REMARK   10  A    between atoms: C_25  and  O_26
REMARK   11  A    between atoms: O_26  and  C_27
REMARK   12  A    between atoms: C_28  and  O_29
REMARK   13  A    between atoms: O_29  and  C_30
REMARK                            x       y       z     vdW  Elec       q    Type
REMARK                         _______ _______ _______ _____ _____    ______ ____
ROOT
ATOM      1  C   UNK A   0      -0.575  11.215  22.451  0.00  0.00    +0.000 A 
ATOM      2  C   UNK A   0      -0.233   9.863  22.387  0.00  0.00    +0.000 A 
ATOM      3  C   UNK A   0       0.462   9.355  21.280  0.00  0.00    +0.000 A 
ATOM      4  C   UNK A   0       1.010   8.078  21.022  0.00  0.00    +0.000 A 
ATOM      5  C   UNK A   0       1.668   8.119  19.809  0.00  0.00    +0.000 A 
ATOM      6  N   UNK A   0       1.363   9.357  19.249  0.00  0.00    +0.000 N 
ATOM      7  C   UNK A   0       1.590   9.697  17.858  0.00  0.00    +0.000 C 
ATOM      8  C   UNK A   0       0.718  10.175  20.182  0.00  0.00    +0.000 A 
ATOM      9  C   UNK A   0       0.306  11.539  20.170  0.00  0.00    +0.000 A 
ATOM     10  C   UNK A   0      -0.291  12.068  21.363  0.00  0.00    +0.000 A 
ENDROOT
BRANCH   5  11
ATOM     11  C   UNK A   0       2.439   7.012  19.276  0.00  0.00    +0.000 C 
ATOM     12  O   UNK A   0       3.121   7.109  18.259  0.00  0.00    +0.000 OA
ATOM     13  N   PHE A   1       2.302   5.817  19.928  0.00  0.00    +0.000 N 
ATOM     14  H   PHE A   1       1.529   5.714  20.582  0.00  0.00    +0.000 HD
BRANCH  13  15
ATOM     15  CA  PHE A   1       2.904   4.569  19.448  0.00  0.00    +0.000 C 
BRANCH  15  16
ATOM     16  C   PHE A   1       2.159   3.418  20.146  0.00  0.00    +0.000 C 
ATOM     17  O   PHE A   1       1.062   3.010  19.778  0.00  0.00    +0.000 OA
BRANCH  16  18
ATOM     18  OXT PHE A   1       2.827   2.820  21.160  0.00  0.00    +0.000 OA
ATOM     19  HXT PHE A   1       3.799   2.827  21.093  0.00  0.00    +0.000 HD
ENDBRANCH  16  18
ENDBRANCH  15  16
BRANCH  15  20
ATOM     20  CB  PHE A   1       4.432   4.491  19.635  0.00  0.00    +0.000 C 
BRANCH  20  21
ATOM     21  CG  PHE A   1       5.236   4.463  18.358  0.00  0.00    +0.000 A 
ATOM     22  CD1 PHE A   1       6.593   4.811  18.355  0.00  0.00    +0.000 A 
ATOM     23  CE1 PHE A   1       7.327   4.764  17.171  0.00  0.00    +0.000 A 
ATOM     24  CZ  PHE A   1       6.718   4.368  15.984  0.00  0.00    +0.000 A 
ATOM     25  CE2 PHE A   1       5.370   4.024  15.974  0.00  0.00    +0.000 A 
ATOM     26  CD2 PHE A   1       4.631   4.070  17.156  0.00  0.00    +0.000 A 
ENDBRANCH  20  21
ENDBRANCH  15  20
ENDBRANCH  13  15
ENDBRANCH   5  11
BRANCH   1  28
ATOM     27  C   UNK A   0      -2.639  11.856  23.420  0.00  0.00    +0.000 C 
ATOM     28  O   UNK A   0      -1.233  11.695  23.555  0.00  0.00    +0.000 OA
ENDBRANCH   1  28
BRANCH   9  29
ATOM     29  O   UNK A   0       0.572  12.265  19.033  0.00  0.00    +0.000 OA
ATOM     30  C   UNK A   0      -0.537  12.713  18.251  0.00  0.00    +0.000 C 
ENDBRANCH   9  29
BRANCH  10  31
ATOM     31  O   UNK A   0      -0.488  13.435  21.370  0.00  0.00    +0.000 OA
ATOM     32  C   UNK A   0       0.493  14.298  21.928  0.00  0.00    +0.000 C 
ENDBRANCH  10  31
TORSDOF 9
ENDMDL
MODEL 3
REMARK VINA RESULT:      -7.2      1.332      1.705
REMARK  Name = 
REMARK  13 active torsions:
REMARK  status: ('A' for Active; 'I' for Inactive)
REMARK    1  A    between atoms: C_1  and  O_2
REMARK    2  A    between atoms: O_2  and  C_3
REMARK    3  A    between atoms: C_7  and  C_8
REMARK    4  A    between atoms: N_10  and  CA_11
REMARK    5  A    between atoms: CA_11  and  CB_12
REMARK    6  A    between atoms: CA_11  and  C_19
REMARK    7  A    between atoms: CB_12  and  CG_13
REMARK    8  A    between atoms: C_19  and  OXT_21
REMARK    9  A    between atoms: N_22  and  C_23
REMARK   10  A    between atoms: C_25  and  O_26
REMARK   11  A    between atoms: O_26  and  C_27
REMARK   12  A    between atoms: C_28  and  O_29
REMARK   13  A    between atoms: O_29  and  C_30
REMARK                            x       y       z     vdW  Elec       q    Type
REMARK                         _______ _______ _______ _____ _____    ______ ____
ROOT
ATOM      1  C   UNK A   0       0.011  10.884  22.076  0.00  0.00    +0.000 A 
ATOM      2  C   UNK A   0       0.288   9.519  22.183  0.00  0.00    +0.000 A 
ATOM      3  C   UNK A   0       0.922   8.836  21.136  0.00  0.00    +0.000 A 
ATOM      4  C   UNK A   0       1.402   7.510  21.036  0.00  0.00    +0.000 A 
ATOM      5  C   UNK A   0       2.021   7.358  19.811  0.00  0.00    +0.000 A 
ATOM      6  N   UNK A   0       1.756   8.525  19.100  0.00  0.00    +0.000 N 
ATOM      7  C   UNK A   0       1.953   8.667  17.671  0.00  0.00    +0.000 C 
ATOM      8  C   UNK A   0       1.180   9.490  19.932  0.00  0.00    +0.000 A 
ATOM      9  C   UNK A   0       0.831  10.860  19.749  0.00  0.00    +0.000 A 
ATOM     10  C   UNK A   0       0.298  11.571  20.877  0.00  0.00    +0.000 A 
ENDROOT
BRANCH   5  11
ATOM     11  C   UNK A   0       2.723   6.153  19.411  0.00  0.00    +0.000 C 
ATOM     12  O   UNK A   0       3.833   5.858  19.846  0.00  0.00    +0.000 OA
ATOM     13  N   PHE A   1       2.111   5.395  18.450  0.00  0.00    +0.000 N 
ATOM     14  H   PHE A   1       1.344   5.812  17.927  0.00  0.00    +0.000 HD
BRANCH  13  15
ATOM     15  CA  PHE A   1       2.739   4.220  17.837  0.00  0.00    +0.000 C 
BRANCH  15  16
ATOM     16  C   PHE A   1       1.876   3.004  18.217  0.00  0.00    +0.000 C 
ATOM     17  O   PHE A   1       1.021   3.039  19.097  0.00  0.00    +0.000 OA
BRANCH  16  18
ATOM     18  OXT PHE A   1       2.064   1.897  17.463  0.00  0.00    +0.000 OA
ATOM     19  HXT PHE A   1       2.794   1.937  16.819  0.00  0.00    +0.000 HD
ENDBRANCH  16  18
ENDBRANCH  15  16
BRANCH  15  20
ATOM     20  CB  PHE A   1       4.225   4.034  18.203  0.00  0.00    +0.000 C 
BRANCH  20  21
ATOM     21  CG  PHE A   1       5.200   4.270  17.075  0.00  0.00    +0.000 A 
ATOM     22  CD1 PHE A   1       6.538   4.592  17.337  0.00  0.00    +0.000 A 
ATOM     23  CE1 PHE A   1       7.431   4.790  16.284  0.00  0.00    +0.000 A 
ATOM     24  CZ  PHE A   1       7.000   4.668  14.967  0.00  0.00    +0.000 A 
ATOM     25  CE2 PHE A   1       5.672   4.354  14.695  0.00  0.00    +0.000 A 
ATOM     26  CD2 PHE A   1       4.775   4.155  15.744  0.00  0.00    +0.000 A 
ENDBRANCH  20  21
ENDBRANCH  15  20
ENDBRANCH  13  15
ENDBRANCH   5  11
BRANCH   1  28
ATOM     27  C   UNK A   0      -2.009  11.583  23.095  0.00  0.00    +0.000 C 
ATOM     28  O   UNK A   0      -0.588  11.537  23.123  0.00  0.00    +0.000 OA
ENDBRANCH   1  28
BRANCH   9  29
ATOM     29  O   UNK A   0       1.094  11.416  18.519  0.00  0.00    +0.000 OA
ATOM     30  C   UNK A   0       2.303  12.161  18.367  0.00  0.00    +0.000 C 
ENDBRANCH   9  29
BRANCH  10  31
ATOM     31  O   UNK A   0       0.165  12.934  20.706  0.00  0.00    +0.000 OA
ATOM     32  C   UNK A   0       1.056  13.829  21.359  0.00  0.00    +0.000 C 
ENDBRANCH  10  31
TORSDOF 9
ENDMDL
MODEL 4
REMARK VINA RESULT:      -7.2      1.695      3.281
REMARK  Name = 
REMARK  13 active torsions:
REMARK  status: ('A' for Active; 'I' for Inactive)
REMARK    1  A    between atoms: C_1  and  O_2
REMARK    2  A    between atoms: O_2  and  C_3
REMARK    3  A    between atoms: C_7  and  C_8
REMARK    4  A    between atoms: N_10  and  CA_11
REMARK    5  A    between atoms: CA_11  and  CB_12
REMARK    6  A    between atoms: CA_11  and  C_19
REMARK    7  A    between atoms: CB_12  and  CG_13
REMARK    8  A    between atoms: C_19  and  OXT_21
REMARK    9  A    between atoms: N_22  and  C_23
REMARK   10  A    between atoms: C_25  and  O_26
REMARK   11  A    between atoms: O_26  and  C_27
REMARK   12  A    between atoms: C_28  and  O_29
REMARK   13  A    between atoms: O_29  and  C_30
REMARK                            x       y       z     vdW  Elec       q    Type
REMARK                         _______ _______ _______ _____ _____    ______ ____
ROOT
ATOM      1  C   UNK A   0      -0.345  11.010  22.231  0.00  0.00    +0.000 A 
ATOM      2  C   UNK A   0       0.069   9.677  22.287  0.00  0.00    +0.000 A 
ATOM      3  C   UNK A   0       0.768   9.102  21.217  0.00  0.00    +0.000 A 
ATOM      4  C   UNK A   0       1.380   7.836  21.068  0.00  0.00    +0.000 A 
ATOM      5  C   UNK A   0       2.010   7.794  19.841  0.00  0.00    +0.000 A 
ATOM      6  N   UNK A   0       1.627   8.955  19.173  0.00  0.00    +0.000 N 
ATOM      7  C   UNK A   0       1.807   9.170  17.751  0.00  0.00    +0.000 C 
ATOM      8  C   UNK A   0       0.957   9.824  20.040  0.00  0.00    +0.000 A 
ATOM      9  C   UNK A   0       0.471  11.157  19.908  0.00  0.00    +0.000 A 
ATOM     10  C   UNK A   0      -0.130  11.767  21.060  0.00  0.00    +0.000 A 
ENDROOT
BRANCH   5  11
ATOM     11  C   UNK A   0       2.829   6.683  19.397  0.00  0.00    +0.000 C 
ATOM     12  O   UNK A   0       3.077   5.715  20.112  0.00  0.00    +0.000 OA
ATOM     13  N   PHE A   1       3.386   6.808  18.153  0.00  0.00    +0.000 N 
ATOM     14  H   PHE A   1       3.384   7.728  17.717  0.00  0.00    +0.000 HD
BRANCH  13  15
ATOM     15  CA  PHE A   1       4.343   5.842  17.603  0.00  0.00    +0.000 C 
BRANCH  15  16
ATOM     16  C   PHE A   1       5.351   6.644  16.761  0.00  0.00    +0.000 C 
ATOM     17  O   PHE A   1       5.193   6.870  15.565  0.00  0.00    +0.000 OA
BRANCH  16  18
ATOM     18  OXT PHE A   1       6.402   7.158  17.440  0.00  0.00    +0.000 OA
ATOM     19  HXT PHE A   1       6.182   7.689  18.228  0.00  0.00    +0.000 HD
ENDBRANCH  16  18
ENDBRANCH  15  16
BRANCH  15  20
ATOM     20  CB  PHE A   1       3.695   4.686  16.816  0.00  0.00    +0.000 C 
BRANCH  20  21
ATOM     21  CG  PHE A   1       2.973   3.661  17.657  0.00  0.00    +0.000 A 
ATOM     22  CD1 PHE A   1       3.679   2.656  18.329  0.00  0.00    +0.000 A 
ATOM     23  CE1 PHE A   1       3.000   1.726  19.115  0.00  0.00    +0.000 A 
ATOM     24  CZ  PHE A   1       1.616   1.792  19.241  0.00  0.00    +0.000 A 
ATOM     25  CE2 PHE A   1       0.903   2.784  18.574  0.00  0.00    +0.000 A 
ATOM     26  CD2 PHE A   1       1.578   3.715  17.786  0.00  0.00    +0.000 A 
ENDBRANCH  20  21
ENDBRANCH  15  20
ENDBRANCH  13  15
ENDBRANCH   5  11
BRANCH   1  28
ATOM     27  C   UNK A   0      -2.400  11.778  23.124  0.00  0.00    +0.000 C 
ATOM     28  O   UNK A   0      -1.006  11.558  23.300  0.00  0.00    +0.000 OA
ENDBRANCH   1  28
BRANCH   9  29
ATOM     29  O   UNK A   0       0.675  11.783  18.700  0.00  0.00    +0.000 OA
ATOM     30  C   UNK A   0       1.879  12.532  18.531  0.00  0.00    +0.000 C 
ENDBRANCH   9  29
BRANCH  10  31
ATOM     31  O   UNK A   0      -0.401  13.116  20.940  0.00  0.00    +0.000 OA
ATOM     32  C   UNK A   0       0.471  14.076  21.521  0.00  0.00    +0.000 C 
ENDBRANCH  10  31
TORSDOF 9
ENDMDL
MODEL 5
REMARK VINA RESULT:      -7.1      2.529      8.427
REMARK  Name = 
REMARK  13 active torsions:
REMARK  status: ('A' for Active; 'I' for Inactive)
REMARK    1  A    between atoms: C_1  and  O_2
REMARK    2  A    between atoms: O_2  and  C_3
REMARK    3  A    between atoms: C_7  and  C_8
REMARK    4  A    between atoms: N_10  and  CA_11
REMARK    5  A    between atoms: CA_11  and  CB_12
REMARK    6  A    between atoms: CA_11  and  C_19
REMARK    7  A    between atoms: CB_12  and  CG_13
REMARK    8  A    between atoms: C_19  and  OXT_21
REMARK    9  A    between atoms: N_22  and  C_23
REMARK   10  A    between atoms: C_25  and  O_26
REMARK   11  A    between atoms: O_26  and  C_27
REMARK   12  A    between atoms: C_28  and  O_29
REMARK   13  A    between atoms: O_29  and  C_30
REMARK                            x       y       z     vdW  Elec       q    Type
REMARK                         _______ _______ _______ _____ _____    ______ ____
ROOT
ATOM      1  C   UNK A   0       2.763   3.736  20.428  0.00  0.00    +0.000 A 
ATOM      2  C   UNK A   0       2.233   4.936  20.906  0.00  0.00    +0.000 A 
ATOM      3  C   UNK A   0       2.253   6.091  20.110  0.00  0.00    +0.000 A 
ATOM      4  C   UNK A   0       1.699   7.377  20.309  0.00  0.00    +0.000 A 
ATOM      5  C   UNK A   0       1.936   8.136  19.181  0.00  0.00    +0.000 A 
ATOM      6  N   UNK A   0       2.787   7.379  18.380  0.00  0.00    +0.000 N 
ATOM      7  C   UNK A   0       3.529   7.910  17.253  0.00  0.00    +0.000 C 
ATOM      8  C   UNK A   0       2.904   6.077  18.878  0.00  0.00    +0.000 A 
ATOM      9  C   UNK A   0       3.536   4.895  18.393  0.00  0.00    +0.000 A 
ATOM     10  C   UNK A   0       3.394   3.695  19.167  0.00  0.00    +0.000 A 
ENDROOT
BRANCH   5  11
ATOM     11  C   UNK A   0       1.416   9.477  18.992  0.00  0.00    +0.000 C 
ATOM     12  O   UNK A   0       1.903  10.269  18.190  0.00  0.00    +0.000 OA
ATOM     13  N   PHE A   1       0.392   9.845  19.823  0.00  0.00    +0.000 N 
ATOM     14  H   PHE A   1       0.210   9.270  20.642  0.00  0.00    +0.000 HD
BRANCH  13  15
ATOM     15  CA  PHE A   1      -0.162  11.202  19.857  0.00  0.00    +0.000 C 
BRANCH  15  16
ATOM     16  C   PHE A   1       0.467  11.909  21.071  0.00  0.00    +0.000 C 
ATOM     17  O   PHE A   1       0.014  11.817  22.208  0.00  0.00    +0.000 OA
BRANCH  16  18
ATOM     18  OXT PHE A   1       1.610  12.589  20.823  0.00  0.00    +0.000 OA
ATOM     19  HXT PHE A   1       1.881  12.643  19.887  0.00  0.00    +0.000 HD
ENDBRANCH  16  18
ENDBRANCH  15  16
BRANCH  15  20
ATOM     20  CB  PHE A   1      -1.702  11.257  19.868  0.00  0.00    +0.000 C 
BRANCH  20  21
ATOM     21  CG  PHE A   1      -2.361  11.095  18.519  0.00  0.00    +0.000 A 
ATOM     22  CD1 PHE A   1      -3.578  11.727  18.233  0.00  0.00    +0.000 A 
ATOM     23  CE1 PHE A   1      -4.165  11.582  16.977  0.00  0.00    +0.000 A 
ATOM     24  CZ  PHE A   1      -3.547  10.810  15.998  0.00  0.00    +0.000 A 
ATOM     25  CE2 PHE A   1      -2.340  10.173  16.273  0.00  0.00    +0.000 A 
ATOM     26  CD2 PHE A   1      -1.749  10.315  17.528  0.00  0.00    +0.000 A 
ENDBRANCH  20  21
ENDBRANCH  15  20
ENDBRANCH  13  15
ENDBRANCH   5  11
BRANCH   1  28
ATOM     27  C   UNK A   0       1.490   2.401  21.914  0.00  0.00    +0.000 C 
ATOM     28  O   UNK A   0       2.710   2.613  21.214  0.00  0.00    +0.000 OA
ENDBRANCH   1  28
BRANCH   9  29
ATOM     29  O   UNK A   0       4.182   4.982  17.181  0.00  0.00    +0.000 OA
ATOM     30  C   UNK A   0       5.611   4.980  17.185  0.00  0.00    +0.000 C 
ENDBRANCH   9  29
BRANCH  10  31
ATOM     31  O   UNK A   0       3.851   2.543  18.558  0.00  0.00    +0.000 OA
ATOM     32  C   UNK A   0       2.951   1.700  17.851  0.00  0.00    +0.000 C 
ENDBRANCH  10  31
TORSDOF 9
ENDMDL
MODEL 6
REMARK VINA RESULT:      -7.0      1.995      9.512
REMARK  Name = 
REMARK  13 active torsions:
REMARK  status: ('A' for Active; 'I' for Inactive)
REMARK    1  A    between atoms: C_1  and  O_2
REMARK    2  A    between atoms: O_2  and  C_3
REMARK    3  A    between atoms: C_7  and  C_8
REMARK    4  A    between atoms: N_10  and  CA_11
REMARK    5  A    between atoms: CA_11  and  CB_12
REMARK    6  A    between atoms: CA_11  and  C_19
REMARK    7  A    between atoms: CB_12  and  CG_13
REMARK    8  A    between atoms: C_19  and  OXT_21
REMARK    9  A    between atoms: N_22  and  C_23
REMARK   10  A    between atoms: C_25  and  O_26
REMARK   11  A    between atoms: O_26  and  C_27
REMARK   12  A    between atoms: C_28  and  O_29
REMARK   13  A    between atoms: O_29  and  C_30
REMARK                            x       y       z     vdW  Elec       q    Type
REMARK                         _______ _______ _______ _____ _____    ______ ____
ROOT
ATOM      1  C   UNK A   0       4.167   5.799  17.546  0.00  0.00    +0.000 A 
ATOM      2  C   UNK A   0       3.563   7.003  17.180  0.00  0.00    +0.000 A 
ATOM      3  C   UNK A   0       2.747   7.695  18.086  0.00  0.00    +0.000 A 
ATOM      4  C   UNK A   0       2.117   8.958  18.007  0.00  0.00    +0.000 A 
ATOM      5  C   UNK A   0       1.487   9.212  19.208  0.00  0.00    +0.000 A 
ATOM      6  N   UNK A   0       1.575   8.033  19.945  0.00  0.00    +0.000 N 
ATOM      7  C   UNK A   0       0.790   7.756  21.131  0.00  0.00    +0.000 C 
ATOM      8  C   UNK A   0       2.440   7.128  19.322  0.00  0.00    +0.000 A 
ATOM      9  C   UNK A   0       2.964   5.857  19.699  0.00  0.00    +0.000 A 
ATOM     10  C   UNK A   0       3.897   5.227  18.807  0.00  0.00    +0.000 A 
ENDROOT
BRANCH   5  11
ATOM     11  C   UNK A   0       0.828  10.466  19.520  0.00  0.00    +0.000 C 
ATOM     12  O   UNK A   0       1.409  11.403  20.063  0.00  0.00    +0.000 OA
ATOM     13  N   PHE A   1      -0.512  10.523  19.248  0.00  0.00    +0.000 N 
ATOM     14  H   PHE A   1      -1.000   9.650  19.063  0.00  0.00    +0.000 HD
BRANCH  13  15
ATOM     15  CA  PHE A   1      -1.357  11.663  19.620  0.00  0.00    +0.000 C 
BRANCH  15  16
ATOM     16  C   PHE A   1      -1.078  12.777  18.596  0.00  0.00    +0.000 C 
ATOM     17  O   PHE A   1      -0.518  13.829  18.887  0.00  0.00    +0.000 OA
BRANCH  16  18
ATOM     18  OXT PHE A   1      -1.424  12.495  17.319  0.00  0.00    +0.000 OA
ATOM     19  HXT PHE A   1      -1.816  13.229  16.810  0.00  0.00    +0.000 HD
ENDBRANCH  16  18
ENDBRANCH  15  16
BRANCH  15  20
ATOM     20  CB  PHE A   1      -1.178  12.134  21.077  0.00  0.00    +0.000 C 
BRANCH  20  21
ATOM     21  CG  PHE A   1      -2.459  12.427  21.820  0.00  0.00    +0.000 A 
ATOM     22  CD1 PHE A   1      -3.610  12.836  21.135  0.00  0.00    +0.000 A 
ATOM     23  CE1 PHE A   1      -4.791  13.086  21.833  0.00  0.00    +0.000 A 
ATOM     24  CZ  PHE A   1      -4.835  12.928  23.216  0.00  0.00    +0.000 A 
ATOM     25  CE2 PHE A   1      -3.696  12.527  23.907  0.00  0.00    +0.000 A 
ATOM     26  CD2 PHE A   1      -2.513  12.276  23.213  0.00  0.00    +0.000 A 
ENDBRANCH  20  21
ENDBRANCH  15  20
ENDBRANCH  13  15
ENDBRANCH   5  11
BRANCH   1  28
ATOM     27  C   UNK A   0       5.400   5.916  15.527  0.00  0.00    +0.000 C 
ATOM     28  O   UNK A   0       4.982   5.152  16.652  0.00  0.00    +0.000 OA
ENDBRANCH   1  28
BRANCH   9  29
ATOM     29  O   UNK A   0       2.584   5.359  20.923  0.00  0.00    +0.000 OA
ATOM     30  C   UNK A   0       1.597   4.327  20.948  0.00  0.00    +0.000 C 
ENDBRANCH   9  29
BRANCH  10  31
ATOM     31  O   UNK A   0       4.523   4.102  19.307  0.00  0.00    +0.000 OA
ATOM     32  C   UNK A   0       4.075   2.807  18.934  0.00  0.00    +0.000 C 
ENDBRANCH  10  31
TORSDOF 9
ENDMDL
MODEL 7
REMARK VINA RESULT:      -6.9      1.344      1.501
REMARK  Name = 
REMARK  13 active torsions:
REMARK  status: ('A' for Active; 'I' for Inactive)
REMARK    1  A    between atoms: C_1  and  O_2
REMARK    2  A    between atoms: O_2  and  C_3
REMARK    3  A    between atoms: C_7  and  C_8
REMARK    4  A    between atoms: N_10  and  CA_11
REMARK    5  A    between atoms: CA_11  and  CB_12
REMARK    6  A    between atoms: CA_11  and  C_19
REMARK    7  A    between atoms: CB_12  and  CG_13
REMARK    8  A    between atoms: C_19  and  OXT_21
REMARK    9  A    between atoms: N_22  and  C_23
REMARK   10  A    between atoms: C_25  and  O_26
REMARK   11  A    between atoms: O_26  and  C_27
REMARK   12  A    between atoms: C_28  and  O_29
REMARK   13  A    between atoms: O_29  and  C_30
REMARK                            x       y       z     vdW  Elec       q    Type
REMARK                         _______ _______ _______ _____ _____    ______ ____
ROOT
ATOM      1  C   UNK A   0      -0.080  11.224  21.999  0.00  0.00    +0.000 A 
ATOM      2  C   UNK A   0       0.106   9.852  22.184  0.00  0.00    +0.000 A 
ATOM      3  C   UNK A   0       0.746   9.081  21.205  0.00  0.00    +0.000 A 
ATOM      4  C   UNK A   0       1.147   7.725  21.192  0.00  0.00    +0.000 A 
ATOM      5  C   UNK A   0       1.814   7.476  20.009  0.00  0.00    +0.000 A 
ATOM      6  N   UNK A   0       1.657   8.619  19.231  0.00  0.00    +0.000 N 
ATOM      7  C   UNK A   0       1.932   8.678  17.809  0.00  0.00    +0.000 C 
ATOM      8  C   UNK A   0       1.103   9.657  19.986  0.00  0.00    +0.000 A 
ATOM      9  C   UNK A   0       0.849  11.035  19.722  0.00  0.00    +0.000 A 
ATOM     10  C   UNK A   0       0.308  11.832  20.786  0.00  0.00    +0.000 A 
ENDROOT
BRANCH   5  11
ATOM     11  C   UNK A   0       2.457   6.212  19.702  0.00  0.00    +0.000 C 
ATOM     12  O   UNK A   0       3.579   5.924  20.111  0.00  0.00    +0.000 OA
ATOM     13  N   PHE A   1       1.774   5.381  18.856  0.00  0.00    +0.000 N 
ATOM     14  H   PHE A   1       0.994   5.770  18.330  0.00  0.00    +0.000 HD
BRANCH  13  15
ATOM     15  CA  PHE A   1       2.335   4.129  18.339  0.00  0.00    +0.000 C 
BRANCH  15  16
ATOM     16  C   PHE A   1       1.669   2.985  19.125  0.00  0.00    +0.000 C 
ATOM     17  O   PHE A   1       2.083   1.830  19.104  0.00  0.00    +0.000 OA
BRANCH  16  18
ATOM     18  OXT PHE A   1       0.630   3.346  19.912  0.00  0.00    +0.000 OA
ATOM     19  HXT PHE A   1      -0.097   2.700  19.983  0.00  0.00    +0.000 HD
ENDBRANCH  16  18
ENDBRANCH  15  16
BRANCH  15  20
ATOM     20  CB  PHE A   1       3.874   4.061  18.376  0.00  0.00    +0.000 C 
BRANCH  20  21
ATOM     21  CG  PHE A   1       4.569   4.502  17.110  0.00  0.00    +0.000 A 
ATOM     22  CD1 PHE A   1       4.637   5.857  16.763  0.00  0.00    +0.000 A 
ATOM     23  CE1 PHE A   1       5.298   6.251  15.599  0.00  0.00    +0.000 A 
ATOM     24  CZ  PHE A   1       5.895   5.300  14.776  0.00  0.00    +0.000 A 
ATOM     25  CE2 PHE A   1       5.828   3.951  15.110  0.00  0.00    +0.000 A 
ATOM     26  CD2 PHE A   1       5.169   3.553  16.272  0.00  0.00    +0.000 A 
ENDBRANCH  20  21
ENDBRANCH  15  20
ENDBRANCH  13  15
ENDBRANCH   5  11
BRANCH   1  28
ATOM     27  C   UNK A   0      -2.064  11.689  23.206  0.00  0.00    +0.000 C 
ATOM     28  O   UNK A   0      -0.687  11.963  22.982  0.00  0.00    +0.000 OA
ENDBRANCH   1  28
BRANCH   9  29
ATOM     29  O   UNK A   0       1.206  11.511  18.482  0.00  0.00    +0.000 OA
ATOM     30  C   UNK A   0       2.393  12.300  18.385  0.00  0.00    +0.000 C 
ENDBRANCH   9  29
BRANCH  10  31
ATOM     31  O   UNK A   0       0.269  13.191  20.545  0.00  0.00    +0.000 OA
ATOM     32  C   UNK A   0      -0.894  13.786  19.985  0.00  0.00    +0.000 C 
ENDBRANCH  10  31
TORSDOF 9
ENDMDL
MODEL 8
REMARK VINA RESULT:      -6.9      2.165      3.745
REMARK  Name = 
REMARK  13 active torsions:
REMARK  status: ('A' for Active; 'I' for Inactive)
REMARK    1  A    between atoms: C_1  and  O_2
REMARK    2  A    between atoms: O_2  and  C_3
REMARK    3  A    between atoms: C_7  and  C_8
REMARK    4  A    between atoms: N_10  and  CA_11
REMARK    5  A    between atoms: CA_11  and  CB_12
REMARK    6  A    between atoms: CA_11  and  C_19
REMARK    7  A    between atoms: CB_12  and  CG_13
REMARK    8  A    between atoms: C_19  and  OXT_21
REMARK    9  A    between atoms: N_22  and  C_23
REMARK   10  A    between atoms: C_25  and  O_26
REMARK   11  A    between atoms: O_26  and  C_27
REMARK   12  A    between atoms: C_28  and  O_29
REMARK   13  A    between atoms: O_29  and  C_30
REMARK                            x       y       z     vdW  Elec       q    Type
REMARK                         _______ _______ _______ _____ _____    ______ ____
ROOT
ATOM      1  C   UNK A   0       0.564  11.372  18.891  0.00  0.00    +0.000 A 
ATOM      2  C   UNK A   0       1.414  10.713  18.001  0.00  0.00    +0.000 A 
ATOM      3  C   UNK A   0       1.875   9.419  18.281  0.00  0.00    +0.000 A 
ATOM      4  C   UNK A   0       2.640   8.509  17.515  0.00  0.00    +0.000 A 
ATOM      5  C   UNK A   0       2.756   7.329  18.222  0.00  0.00    +0.000 A 
ATOM      6  N   UNK A   0       2.227   7.584  19.485  0.00  0.00    +0.000 N 
ATOM      7  C   UNK A   0       2.422   6.725  20.636  0.00  0.00    +0.000 C 
ATOM      8  C   UNK A   0       1.579   8.823  19.506  0.00  0.00    +0.000 A 
ATOM      9  C   UNK A   0       0.789   9.499  20.481  0.00  0.00    +0.000 A 
ATOM     10  C   UNK A   0       0.225  10.769  20.121  0.00  0.00    +0.000 A 
ENDROOT
BRANCH   5  11
ATOM     11  C   UNK A   0       3.388   6.135  17.693  0.00  0.00    +0.000 C 
ATOM     12  O   UNK A   0       2.783   5.076  17.544  0.00  0.00    +0.000 OA
ATOM     13  N   PHE A   1       4.730   6.228  17.441  0.00  0.00    +0.000 N 
ATOM     14  H   PHE A   1       5.237   7.019  17.833  0.00  0.00    +0.000 HD
BRANCH  13  15
ATOM     15  CA  PHE A   1       5.549   5.083  17.030  0.00  0.00    +0.000 C 
BRANCH  15  16
ATOM     16  C   PHE A   1       6.059   4.415  18.318  0.00  0.00    +0.000 C 
ATOM     17  O   PHE A   1       5.314   3.892  19.141  0.00  0.00    +0.000 OA
BRANCH  16  18
ATOM     18  OXT PHE A   1       7.403   4.369  18.459  0.00  0.00    +0.000 OA
ATOM     19  HXT PHE A   1       7.737   4.362  19.375  0.00  0.00    +0.000 HD
ENDBRANCH  16  18
ENDBRANCH  15  16
BRANCH  15  20
ATOM     20  CB  PHE A   1       6.686   5.438  16.052  0.00  0.00    +0.000 C 
BRANCH  20  21
ATOM     21  CG  PHE A   1       6.575   4.812  14.682  0.00  0.00    +0.000 A 
ATOM     22  CD1 PHE A   1       5.481   4.004  14.347  0.00  0.00    +0.000 A 
ATOM     23  CE1 PHE A   1       5.385   3.448  13.072  0.00  0.00    +0.000 A 
ATOM     24  CZ  PHE A   1       6.373   3.692  12.123  0.00  0.00    +0.000 A 
ATOM     25  CE2 PHE A   1       7.467   4.489  12.447  0.00  0.00    +0.000 A 
ATOM     26  CD2 PHE A   1       7.568   5.048  13.720  0.00  0.00    +0.000 A 
ENDBRANCH  20  21
ENDBRANCH  15  20
ENDBRANCH  13  15
ENDBRANCH   5  11
BRANCH   1  28
ATOM     27  C   UNK A   0       1.026  13.692  18.785  0.00  0.00    +0.000 C 
ATOM     28  O   UNK A   0       0.105  12.627  18.584  0.00  0.00    +0.000 OA
ENDBRANCH   1  28
BRANCH   9  29
ATOM     29  O   UNK A   0       0.573   8.850  21.674  0.00  0.00    +0.000 OA
ATOM     30  C   UNK A   0      -0.680   8.189  21.858  0.00  0.00    +0.000 C 
ENDBRANCH   9  29
BRANCH  10  31
ATOM     31  O   UNK A   0      -0.689  11.285  21.019  0.00  0.00    +0.000 OA
ATOM     32  C   UNK A   0      -0.280  12.236  21.992  0.00  0.00    +0.000 C 
ENDBRANCH  10  31
TORSDOF 9
ENDMDL
MODEL 9
REMARK VINA RESULT:      -6.9      1.897      9.181
REMARK  Name = 
REMARK  13 active torsions:
REMARK  status: ('A' for Active; 'I' for Inactive)
REMARK    1  A    between atoms: C_1  and  O_2
REMARK    2  A    between atoms: O_2  and  C_3
REMARK    3  A    between atoms: C_7  and  C_8
REMARK    4  A    between atoms: N_10  and  CA_11
REMARK    5  A    between atoms: CA_11  and  CB_12
REMARK    6  A    between atoms: CA_11  and  C_19
REMARK    7  A    between atoms: CB_12  and  CG_13
REMARK    8  A    between atoms: C_19  and  OXT_21
REMARK    9  A    between atoms: N_22  and  C_23
REMARK   10  A    between atoms: C_25  and  O_26
REMARK   11  A    between atoms: O_26  and  C_27
REMARK   12  A    between atoms: C_28  and  O_29
REMARK   13  A    between atoms: O_29  and  C_30
REMARK                            x       y       z     vdW  Elec       q    Type
REMARK                         _______ _______ _______ _____ _____    ______ ____
ROOT
ATOM      1  C   UNK A   0       4.621   5.669  17.716  0.00  0.00    +0.000 A 
ATOM      2  C   UNK A   0       3.987   6.823  17.251  0.00  0.00    +0.000 A 
ATOM      3  C   UNK A   0       3.035   7.481  18.042  0.00  0.00    +0.000 A 
ATOM      4  C   UNK A   0       2.341   8.699  17.857  0.00  0.00    +0.000 A 
ATOM      5  C   UNK A   0       1.569   8.940  18.975  0.00  0.00    +0.000 A 
ATOM      6  N   UNK A   0       1.649   7.787  19.753  0.00  0.00    +0.000 N 
ATOM      7  C   UNK A   0       0.757   7.487  20.855  0.00  0.00    +0.000 C 
ATOM      8  C   UNK A   0       2.631   6.925  19.255  0.00  0.00    +0.000 A 
ATOM      9  C   UNK A   0       3.189   5.700  19.724  0.00  0.00    +0.000 A 
ATOM     10  C   UNK A   0       4.250   5.110  18.958  0.00  0.00    +0.000 A 
ENDROOT
BRANCH   5  11
ATOM     11  C   UNK A   0       0.804  10.156  19.176  0.00  0.00    +0.000 C 
ATOM     12  O   UNK A   0      -0.424  10.177  19.147  0.00  0.00    +0.000 OA
ATOM     13  N   PHE A   1       1.532  11.305  19.320  0.00  0.00    +0.000 N 
ATOM     14  H   PHE A   1       2.517  11.284  19.065  0.00  0.00    +0.000 HD
BRANCH  13  15
ATOM     15  CA  PHE A   1       0.920  12.636  19.400  0.00  0.00    +0.000 C 
BRANCH  15  16
ATOM     16  C   PHE A   1       1.698  13.542  18.430  0.00  0.00    +0.000 C 
ATOM     17  O   PHE A   1       1.768  14.760  18.563  0.00  0.00    +0.000 OA
BRANCH  16  18
ATOM     18  OXT PHE A   1       2.373  12.902  17.447  0.00  0.00    +0.000 OA
ATOM     19  HXT PHE A   1       2.254  13.257  16.547  0.00  0.00    +0.000 HD
ENDBRANCH  16  18
ENDBRANCH  15  16
BRANCH  15  20
ATOM     20  CB  PHE A   1       0.847  13.214  20.827  0.00  0.00    +0.000 C 
BRANCH  20  21
ATOM     21  CG  PHE A   1      -0.411  12.882  21.592  0.00  0.00    +0.000 A 
ATOM     22  CD1 PHE A   1      -0.516  11.692  22.322  0.00  0.00    +0.000 A 
ATOM     23  CE1 PHE A   1      -1.679  11.407  23.038  0.00  0.00    +0.000 A 
ATOM     24  CZ  PHE A   1      -2.742  12.306  23.035  0.00  0.00    +0.000 A 
ATOM     25  CE2 PHE A   1      -2.650  13.490  22.309  0.00  0.00    +0.000 A 
ATOM     26  CD2 PHE A   1      -1.490  13.778  21.592  0.00  0.00    +0.000 A 
ENDBRANCH  20  21
ENDBRANCH  15  20
ENDBRANCH  13  15
ENDBRANCH   5  11
BRANCH   1  28
ATOM     27  C   UNK A   0       5.071   4.292  15.842  0.00  0.00    +0.000 C 
ATOM     28  O   UNK A   0       5.567   5.056  16.935  0.00  0.00    +0.000 OA
ENDBRANCH   1  28
BRANCH   9  29
ATOM     29  O   UNK A   0       2.709   5.207  20.916  0.00  0.00    +0.000 OA
ATOM     30  C   UNK A   0       1.677   4.221  20.863  0.00  0.00    +0.000 C 
ENDBRANCH   9  29
BRANCH  10  31
ATOM     31  O   UNK A   0       4.887   4.041  19.556  0.00  0.00    +0.000 OA
ATOM     32  C   UNK A   0       4.453   2.713  19.297  0.00  0.00    +0.000 C 
ENDBRANCH  10  31
TORSDOF 9
ENDMDL
