MODEL 1
REMARK VINA RESULT:      -7.1      0.000      0.000
REMARK  Name = 
REMARK  6 active torsions:
REMARK  status: ('A' for Active; 'I' for Inactive)
REMARK    1  A    between atoms: C_2  and  C_3
REMARK    2  A    between atoms: C_2  and  C_4
REMARK    3  A    between atoms: C_21  and  C_22
REMARK    4  A    between atoms: C_22  and  C_23
REMARK    5  A    between atoms: C_22  and  O_24
REMARK    6  A    between atoms: O_24  and  C_25
REMARK                            x       y       z     vdW  Elec       q    Type
REMARK                         _______ _______ _______ _____ _____    ______ ____
ROOT
ATOM      1  C   UNL     1      -2.236  12.810  21.613  0.00  0.00    +0.000 A 
ATOM      2  C   UNL     1      -2.772  12.507  22.852  0.00  0.00    +0.000 A 
ATOM      3  C   UNL     1      -2.175  11.484  23.629  0.00  0.00    +0.000 A 
ATOM      4  C   UNL     1      -1.102  10.670  23.163  0.00  0.00    +0.000 A 
ATOM      5  C   UNL     1      -0.532  10.886  21.905  0.00  0.00    +0.000 A 
ATOM      6  C   UNL     1      -1.076  12.087  21.227  0.00  0.00    +0.000 A 
ATOM      7  C   UNL     1      -0.319  12.697  20.054  0.00  0.00    +0.000 C 
ATOM      8  C   UNL     1       1.055  12.169  20.075  0.00  0.00    +0.000 C 
ATOM      9  N   UNL     1       0.926  10.734  19.984  0.00  0.00    +0.000 N 
ATOM     10  C   UNL     1       0.390  10.284  18.779  0.00  0.00    +0.000 C 
ATOM     11  O   UNL     1      -0.737   9.811  18.606  0.00  0.00    +0.000 OA
ATOM     12  C   UNL     1       1.568   9.970  17.949  0.00  0.00    +0.000 C 
ATOM     13  N   UNL     1       2.079   8.720  18.446  0.00  0.00    +0.000 NA
ATOM     14  C   UNL     1       1.863   8.132  19.574  0.00  0.00    +0.000 C 
ATOM     15  N   UNL     1       2.266   6.737  19.405  0.00  0.00    +0.000 N 
ATOM     16  C   UNL     1       2.575   5.709  20.266  0.00  0.00    +0.000 A 
ATOM     17  N   UNL     1       2.867   4.570  19.649  0.00  0.00    +0.000 NA
ATOM     18  C   UNL     1       2.802   4.804  18.279  0.00  0.00    +0.000 A 
ATOM     19  C   UNL     1       2.480   6.137  18.123  0.00  0.00    +0.000 A 
ATOM     20  C   UNL     1       1.098   8.708  20.980  0.00  0.00    +0.000 C 
ATOM     21  C   UNL     1       0.525   9.991  21.060  0.00  0.00    +0.000 C 
ENDROOT
BRANCH   1  23
ATOM     22  C   UNL     1      -3.880  13.549  19.900  0.00  0.00    +0.000 C 
ATOM     23  C   UNL     1      -2.872  13.844  20.742  0.00  0.00    +0.000 C 
ATOM     24  C   UNL     1      -2.386  15.263  20.897  0.00  0.00    +0.000 C 
ENDBRANCH   1  23
BRANCH  18  25
ATOM     25  C   UNL     1       3.080   3.685  17.249  0.00  0.00    +0.000 C 
ATOM     26  C   UNL     1       4.559   3.453  16.896  0.00  0.00    +0.000 C 
BRANCH  25  27
ATOM     27  O   UNL     1       2.603   2.380  17.649  0.00  0.00    +0.000 OA
ATOM     28  C   UNL     1       3.623   1.541  18.176  0.00  0.00    +0.000 C 
ENDBRANCH  25  27
ENDBRANCH  18  25
TORSDOF 3
ENDMDL
MODEL 2
REMARK VINA RESULT:      -6.8      2.653      4.275
REMARK  Name = 
REMARK  6 active torsions:
REMARK  status: ('A' for Active; 'I' for Inactive)
REMARK    1  A    between atoms: C_2  and  C_3
REMARK    2  A    between atoms: C_2  and  C_4
REMARK    3  A    between atoms: C_21  and  C_22
REMARK    4  A    between atoms: C_22  and  C_23
REMARK    5  A    between atoms: C_22  and  O_24
REMARK    6  A    between atoms: O_24  and  C_25
REMARK                            x       y       z     vdW  Elec       q    Type
REMARK                         _______ _______ _______ _____ _____    ______ ____
ROOT
ATOM      1  C   UNL     1       1.566  16.292  19.768  0.00  0.00    +0.000 A 
ATOM      2  C   UNL     1       2.600  16.875  19.059  0.00  0.00    +0.000 A 
ATOM      3  C   UNL     1       3.252  16.123  18.049  0.00  0.00    +0.000 A 
ATOM      4  C   UNL     1       2.969  14.751  17.787  0.00  0.00    +0.000 A 
ATOM      5  C   UNL     1       1.965  14.079  18.491  0.00  0.00    +0.000 A 
ATOM      6  C   UNL     1       1.200  14.972  19.393  0.00  0.00    +0.000 A 
ATOM      7  C   UNL     1      -0.151  14.519  19.930  0.00  0.00    +0.000 C 
ATOM      8  C   UNL     1      -0.616  13.392  19.105  0.00  0.00    +0.000 C 
ATOM      9  N   UNL     1       0.406  12.379  19.211  0.00  0.00    +0.000 N 
ATOM     10  C   UNL     1       0.552  11.847  20.491  0.00  0.00    +0.000 C 
ATOM     11  O   UNL     1       1.489  12.046  21.270  0.00  0.00    +0.000 OA
ATOM     12  C   UNL     1      -0.285  10.632  20.480  0.00  0.00    +0.000 C 
ATOM     13  N   UNL     1       0.462   9.647  19.743  0.00  0.00    +0.000 NA
ATOM     14  C   UNL     1       1.451   9.802  18.930  0.00  0.00    +0.000 C 
ATOM     15  N   UNL     1       2.093   8.495  18.795  0.00  0.00    +0.000 N 
ATOM     16  C   UNL     1       2.957   7.931  17.883  0.00  0.00    +0.000 A 
ATOM     17  N   UNL     1       3.309   6.687  18.185  0.00  0.00    +0.000 NA
ATOM     18  C   UNL     1       2.634   6.328  19.348  0.00  0.00    +0.000 A 
ATOM     19  C   UNL     1       1.854   7.411  19.700  0.00  0.00    +0.000 A 
ATOM     20  C   UNL     1       2.091  11.219  18.241  0.00  0.00    +0.000 C 
ATOM     21  C   UNL     1       1.594  12.500  18.544  0.00  0.00    +0.000 C 
ENDROOT
BRANCH   1  23
ATOM     22  C   UNL     1      -0.082  17.935  20.647  0.00  0.00    +0.000 C 
ATOM     23  C   UNL     1       0.892  17.034  20.877  0.00  0.00    +0.000 C 
ATOM     24  C   UNL     1       1.296  16.677  22.285  0.00  0.00    +0.000 C 
ENDBRANCH   1  23
BRANCH  18  25
ATOM     25  C   UNL     1       2.813   4.936  19.995  0.00  0.00    +0.000 C 
ATOM     26  C   UNL     1       1.575   4.364  20.706  0.00  0.00    +0.000 C 
BRANCH  25  27
ATOM     27  O   UNL     1       3.200   3.897  19.067  0.00  0.00    +0.000 OA
ATOM     28  C   UNL     1       4.419   3.252  19.413  0.00  0.00    +0.000 C 
ENDBRANCH  25  27
ENDBRANCH  18  25
TORSDOF 3
ENDMDL
MODEL 3
REMARK VINA RESULT:      -6.5      2.699      4.242
REMARK  Name = 
REMARK  6 active torsions:
REMARK  status: ('A' for Active; 'I' for Inactive)
REMARK    1  A    between atoms: C_2  and  C_3
REMARK    2  A    between atoms: C_2  and  C_4
REMARK    3  A    between atoms: C_21  and  C_22
REMARK    4  A    between atoms: C_22  and  C_23
REMARK    5  A    between atoms: C_22  and  O_24
REMARK    6  A    between atoms: O_24  and  C_25
REMARK                            x       y       z     vdW  Elec       q    Type
REMARK                         _______ _______ _______ _____ _____    ______ ____
ROOT
ATOM      1  C   UNL     1       1.464  16.231  20.011  0.00  0.00    +0.000 A 
ATOM      2  C   UNL     1       2.492  16.896  19.369  0.00  0.00    +0.000 A 
ATOM      3  C   UNL     1       3.187  16.242  18.321  0.00  0.00    +0.000 A 
ATOM      4  C   UNL     1       2.952  14.886  17.952  0.00  0.00    +0.000 A 
ATOM      5  C   UNL     1       1.957  14.133  18.582  0.00  0.00    +0.000 A 
ATOM      6  C   UNL     1       1.147  14.933  19.531  0.00  0.00    +0.000 A 
ATOM      7  C   UNL     1      -0.200  14.401  20.004  0.00  0.00    +0.000 C 
ATOM      8  C   UNL     1      -0.613  13.325  19.088  0.00  0.00    +0.000 C 
ATOM      9  N   UNL     1       0.438  12.338  19.141  0.00  0.00    +0.000 N 
ATOM     10  C   UNL     1       0.575  11.716  20.381  0.00  0.00    +0.000 C 
ATOM     11  O   UNL     1       1.491  11.884  21.192  0.00  0.00    +0.000 OA
ATOM     12  C   UNL     1      -0.222  10.482  20.262  0.00  0.00    +0.000 C 
ATOM     13  N   UNL     1       0.569   9.577  19.470  0.00  0.00    +0.000 NA
ATOM     14  C   UNL     1       1.569   9.821  18.692  0.00  0.00    +0.000 C 
ATOM     15  N   UNL     1       2.253   8.548  18.475  0.00  0.00    +0.000 N 
ATOM     16  C   UNL     1       3.152   8.080  17.543  0.00  0.00    +0.000 A 
ATOM     17  N   UNL     1       3.537   6.828  17.760  0.00  0.00    +0.000 NA
ATOM     18  C   UNL     1       2.851   6.363  18.877  0.00  0.00    +0.000 A 
ATOM     19  C   UNL     1       2.031   7.393  19.292  0.00  0.00    +0.000 A 
ATOM     20  C   UNL     1       2.177  11.305  18.124  0.00  0.00    +0.000 C 
ATOM     21  C   UNL     1       1.634  12.544  18.510  0.00  0.00    +0.000 C 
ENDROOT
BRANCH   1  23
ATOM     22  C   UNL     1       1.073  16.615  22.437  0.00  0.00    +0.000 C 
ATOM     23  C   UNL     1       0.745  16.868  21.157  0.00  0.00    +0.000 C 
ATOM     24  C   UNL     1      -0.327  17.873  20.818  0.00  0.00    +0.000 C 
ENDBRANCH   1  23
BRANCH  18  25
ATOM     25  C   UNL     1       3.061   4.932  19.423  0.00  0.00    +0.000 C 
ATOM     26  C   UNL     1       4.505   4.405  19.382  0.00  0.00    +0.000 C 
BRANCH  25  27
ATOM     27  O   UNL     1       2.660   4.760  20.802  0.00  0.00    +0.000 OA
ATOM     28  C   UNL     1       1.533   3.908  20.962  0.00  0.00    +0.000 C 
ENDBRANCH  25  27
ENDBRANCH  18  25
TORSDOF 3
ENDMDL
MODEL 4
REMARK VINA RESULT:      -6.4      1.836      3.044
REMARK  Name = 
REMARK  6 active torsions:
REMARK  status: ('A' for Active; 'I' for Inactive)
REMARK    1  A    between atoms: C_2  and  C_3
REMARK    2  A    between atoms: C_2  and  C_4
REMARK    3  A    between atoms: C_21  and  C_22
REMARK    4  A    between atoms: C_22  and  C_23
REMARK    5  A    between atoms: C_22  and  O_24
REMARK    6  A    between atoms: O_24  and  C_25
REMARK                            x       y       z     vdW  Elec       q    Type
REMARK                         _______ _______ _______ _____ _____    ______ ____
ROOT
ATOM      1  C   UNL     1      -4.703  14.292  22.288  0.00  0.00    +0.000 A 
ATOM      2  C   UNL     1      -5.342  13.767  23.397  0.00  0.00    +0.000 A 
ATOM      3  C   UNL     1      -4.684  12.771  24.162  0.00  0.00    +0.000 A 
ATOM      4  C   UNL     1      -3.432  12.200  23.795  0.00  0.00    +0.000 A 
ATOM      5  C   UNL     1      -2.743  12.648  22.664  0.00  0.00    +0.000 A 
ATOM      6  C   UNL     1      -3.393  13.814  22.021  0.00  0.00    +0.000 A 
ATOM      7  C   UNL     1      -2.602  14.669  21.038  0.00  0.00    +0.000 C 
ATOM      8  C   UNL     1      -1.173  14.370  21.222  0.00  0.00    +0.000 C 
ATOM      9  N   UNL     1      -1.033  12.954  20.985  0.00  0.00    +0.000 N 
ATOM     10  C   UNL     1      -1.312  12.564  19.676  0.00  0.00    +0.000 C 
ATOM     11  O   UNL     1      -2.304  11.938  19.290  0.00  0.00    +0.000 OA
ATOM     12  C   UNL     1       0.004  12.541  19.012  0.00  0.00    +0.000 C 
ATOM     13  N   UNL     1       0.655  11.341  19.468  0.00  0.00    +0.000 NA
ATOM     14  C   UNL     1       0.395  10.601  20.492  0.00  0.00    +0.000 C 
ATOM     15  N   UNL     1       1.056   9.318  20.262  0.00  0.00    +0.000 N 
ATOM     16  C   UNL     1       1.422   8.261  21.065  0.00  0.00    +0.000 A 
ATOM     17  N   UNL     1       1.991   7.262  20.401  0.00  0.00    +0.000 NA
ATOM     18  C   UNL     1       2.073   7.638  19.064  0.00  0.00    +0.000 A 
ATOM     19  C   UNL     1       1.546   8.911  18.980  0.00  0.00    +0.000 A 
ATOM     20  C   UNL     1      -0.644  10.881  21.810  0.00  0.00    +0.000 C 
ATOM     21  C   UNL     1      -1.439  12.037  21.915  0.00  0.00    +0.000 C 
ENDROOT
BRANCH   1  23
ATOM     22  C   UNL     1      -6.029  14.961  20.293  0.00  0.00    +0.000 C 
ATOM     23  C   UNL     1      -5.387  15.303  21.425  0.00  0.00    +0.000 C 
ATOM     24  C   UNL     1      -5.395  16.729  21.916  0.00  0.00    +0.000 C 
ENDBRANCH   1  23
BRANCH  18  25
ATOM     25  C   UNL     1       2.682   6.704  17.993  0.00  0.00    +0.000 C 
ATOM     26  C   UNL     1       4.098   7.066  17.516  0.00  0.00    +0.000 C 
BRANCH  25  27
ATOM     27  O   UNL     1       2.789   5.322  18.404  0.00  0.00    +0.000 OA
ATOM     28  C   UNL     1       3.646   4.548  17.573  0.00  0.00    +0.000 C 
ENDBRANCH  25  27
ENDBRANCH  18  25
TORSDOF 3
ENDMDL
MODEL 5
REMARK VINA RESULT:      -6.2      2.131      3.566
REMARK  Name = 
REMARK  6 active torsions:
REMARK  status: ('A' for Active; 'I' for Inactive)
REMARK    1  A    between atoms: C_2  and  C_3
REMARK    2  A    between atoms: C_2  and  C_4
REMARK    3  A    between atoms: C_21  and  C_22
REMARK    4  A    between atoms: C_22  and  C_23
REMARK    5  A    between atoms: C_22  and  O_24
REMARK    6  A    between atoms: O_24  and  C_25
REMARK                            x       y       z     vdW  Elec       q    Type
REMARK                         _______ _______ _______ _____ _____    ______ ____
ROOT
ATOM      1  C   UNL     1       0.351  15.551  20.638  0.00  0.00    +0.000 A 
ATOM      2  C   UNL     1       1.172  16.386  19.902  0.00  0.00    +0.000 A 
ATOM      3  C   UNL     1       1.838  15.867  18.763  0.00  0.00    +0.000 A 
ATOM      4  C   UNL     1       1.791  14.494  18.385  0.00  0.00    +0.000 A 
ATOM      5  C   UNL     1       1.016  13.579  19.103  0.00  0.00    +0.000 A 
ATOM      6  C   UNL     1       0.201  14.222  20.160  0.00  0.00    +0.000 A 
ATOM      7  C   UNL     1      -0.974  13.466  20.769  0.00  0.00    +0.000 C 
ATOM      8  C   UNL     1      -1.306  12.344  19.875  0.00  0.00    +0.000 C 
ATOM      9  N   UNL     1      -0.106  11.549  19.780  0.00  0.00    +0.000 N 
ATOM     10  C   UNL     1       0.277  10.947  20.977  0.00  0.00    +0.000 C 
ATOM     11  O   UNL     1       1.241  11.260  21.683  0.00  0.00    +0.000 OA
ATOM     12  C   UNL     1      -0.312   9.597  20.915  0.00  0.00    +0.000 C 
ATOM     13  N   UNL     1       0.521   8.846  20.012  0.00  0.00    +0.000 NA
ATOM     14  C   UNL     1       1.367   9.263  19.133  0.00  0.00    +0.000 C 
ATOM     15  N   UNL     1       2.224   8.125  18.802  0.00  0.00    +0.000 N 
ATOM     16  C   UNL     1       3.073   7.824  17.761  0.00  0.00    +0.000 A 
ATOM     17  N   UNL     1       3.684   6.653  17.896  0.00  0.00    +0.000 NA
ATOM     18  C   UNL     1       3.221   6.069  19.071  0.00  0.00    +0.000 A 
ATOM     19  C   UNL     1       2.295   6.942  19.605  0.00  0.00    +0.000 A 
ATOM     20  C   UNL     1       1.649  10.833  18.541  0.00  0.00    +0.000 C 
ATOM     21  C   UNL     1       0.956  11.959  19.022  0.00  0.00    +0.000 C 
ENDROOT
BRANCH   1  23
ATOM     22  C   UNL     1       0.265  15.989  23.085  0.00  0.00    +0.000 C 
ATOM     23  C   UNL     1      -0.324  16.046  21.876  0.00  0.00    +0.000 C 
ATOM     24  C   UNL     1      -1.678  16.690  21.707  0.00  0.00    +0.000 C 
ENDBRANCH   1  23
BRANCH  18  25
ATOM     25  C   UNL     1       3.729   4.690  19.548  0.00  0.00    +0.000 C 
ATOM     26  C   UNL     1       2.725   3.848  20.354  0.00  0.00    +0.000 C 
BRANCH  25  27
ATOM     27  O   UNL     1       4.148   3.811  18.479  0.00  0.00    +0.000 OA
ATOM     28  C   UNL     1       3.597   2.503  18.570  0.00  0.00    +0.000 C 
ENDBRANCH  25  27
ENDBRANCH  18  25
TORSDOF 3
ENDMDL
MODEL 6
REMARK VINA RESULT:      -6.2      2.067      3.550
REMARK  Name = 
REMARK  6 active torsions:
REMARK  status: ('A' for Active; 'I' for Inactive)
REMARK    1  A    between atoms: C_2  and  C_3
REMARK    2  A    between atoms: C_2  and  C_4
REMARK    3  A    between atoms: C_21  and  C_22
REMARK    4  A    between atoms: C_22  and  C_23
REMARK    5  A    between atoms: C_22  and  O_24
REMARK    6  A    between atoms: O_24  and  C_25
REMARK                            x       y       z     vdW  Elec       q    Type
REMARK                         _______ _______ _______ _____ _____    ______ ____
ROOT
ATOM      1  C   UNL     1      -0.922  15.489  21.054  0.00  0.00    +0.000 A 
ATOM      2  C   UNL     1      -0.386  16.429  20.193  0.00  0.00    +0.000 A 
ATOM      3  C   UNL     1       0.164  15.999  18.959  0.00  0.00    +0.000 A 
ATOM      4  C   UNL     1       0.288  14.628  18.592  0.00  0.00    +0.000 A 
ATOM      5  C   UNL     1      -0.193  13.615  19.427  0.00  0.00    +0.000 A 
ATOM      6  C   UNL     1      -0.921  14.141  20.606  0.00  0.00    +0.000 A 
ATOM      7  C   UNL     1      -1.836  13.217  21.399  0.00  0.00    +0.000 C 
ATOM      8  C   UNL     1      -2.115  12.031  20.572  0.00  0.00    +0.000 C 
ATOM      9  N   UNL     1      -0.830  11.445  20.278  0.00  0.00    +0.000 N 
ATOM     10  C   UNL     1      -0.160  10.948  21.395  0.00  0.00    +0.000 C 
ATOM     11  O   UNL     1       0.838  11.437  21.932  0.00  0.00    +0.000 OA
ATOM     12  C   UNL     1      -0.515   9.517  21.429  0.00  0.00    +0.000 C 
ATOM     13  N   UNL     1       0.274   8.892  20.400  0.00  0.00    +0.000 NA
ATOM     14  C   UNL     1       0.883   9.421  19.393  0.00  0.00    +0.000 C 
ATOM     15  N   UNL     1       1.854   8.433  18.923  0.00  0.00    +0.000 N 
ATOM     16  C   UNL     1       2.559   8.251  17.756  0.00  0.00    +0.000 A 
ATOM     17  N   UNL     1       3.373   7.202  17.787  0.00  0.00    +0.000 NA
ATOM     18  C   UNL     1       3.214   6.581  19.021  0.00  0.00    +0.000 A 
ATOM     19  C   UNL     1       2.253   7.301  19.703  0.00  0.00    +0.000 A 
ATOM     20  C   UNL     1       0.794  10.999  18.765  0.00  0.00    +0.000 C 
ATOM     21  C   UNL     1       0.009  12.006  19.356  0.00  0.00    +0.000 C 
ENDROOT
BRANCH   1  23
ATOM     22  C   UNL     1      -0.729  15.802  23.513  0.00  0.00    +0.000 C 
ATOM     23  C   UNL     1      -1.460  15.898  22.387  0.00  0.00    +0.000 C 
ATOM     24  C   UNL     1      -2.843  16.499  22.412  0.00  0.00    +0.000 C 
ENDBRANCH   1  23
BRANCH  18  25
ATOM     25  C   UNL     1       4.019   5.318  19.406  0.00  0.00    +0.000 C 
ATOM     26  C   UNL     1       3.796   4.085  18.515  0.00  0.00    +0.000 C 
BRANCH  25  27
ATOM     27  O   UNL     1       5.452   5.505  19.399  0.00  0.00    +0.000 OA
ATOM     28  C   UNL     1       6.113   4.784  18.367  0.00  0.00    +0.000 C 
ENDBRANCH  25  27
ENDBRANCH  18  25
TORSDOF 3
ENDMDL
MODEL 7
REMARK VINA RESULT:      -6.2      5.349      8.546
REMARK  Name = 
REMARK  6 active torsions:
REMARK  status: ('A' for Active; 'I' for Inactive)
REMARK    1  A    between atoms: C_2  and  C_3
REMARK    2  A    between atoms: C_2  and  C_4
REMARK    3  A    between atoms: C_21  and  C_22
REMARK    4  A    between atoms: C_22  and  C_23
REMARK    5  A    between atoms: C_22  and  O_24
REMARK    6  A    between atoms: O_24  and  C_25
REMARK                            x       y       z     vdW  Elec       q    Type
REMARK                         _______ _______ _______ _____ _____    ______ ____
ROOT
ATOM      1  C   UNL     1       3.851  14.980  19.360  0.00  0.00    +0.000 A 
ATOM      2  C   UNL     1       4.376  15.637  20.458  0.00  0.00    +0.000 A 
ATOM      3  C   UNL     1       3.782  15.435  21.730  0.00  0.00    +0.000 A 
ATOM      4  C   UNL     1       2.601  14.664  21.930  0.00  0.00    +0.000 A 
ATOM      5  C   UNL     1       1.987  14.002  20.863  0.00  0.00    +0.000 A 
ATOM      6  C   UNL     1       2.763  14.101  19.604  0.00  0.00    +0.000 A 
ATOM      7  C   UNL     1       2.467  13.138  18.461  0.00  0.00    +0.000 C 
ATOM      8  C   UNL     1       1.692  12.010  19.003  0.00  0.00    +0.000 C 
ATOM      9  N   UNL     1       0.503  12.591  19.580  0.00  0.00    +0.000 N 
ATOM     10  C   UNL     1      -0.346  13.192  18.653  0.00  0.00    +0.000 C 
ATOM     11  O   UNL     1      -0.534  14.403  18.503  0.00  0.00    +0.000 OA
ATOM     12  C   UNL     1      -1.331  12.145  18.325  0.00  0.00    +0.000 C 
ATOM     13  N   UNL     1      -2.232  12.086  19.446  0.00  0.00    +0.000 NA
ATOM     14  C   UNL     1      -2.079  12.527  20.649  0.00  0.00    +0.000 C 
ATOM     15  N   UNL     1      -3.413  12.589  21.246  0.00  0.00    +0.000 N 
ATOM     16  C   UNL     1      -3.893  12.665  22.533  0.00  0.00    +0.000 A 
ATOM     17  N   UNL     1      -5.217  12.731  22.603  0.00  0.00    +0.000 NA
ATOM     18  C   UNL     1      -5.711  12.659  21.304  0.00  0.00    +0.000 A 
ATOM     19  C   UNL     1      -4.616  12.526  20.473  0.00  0.00    +0.000 A 
ATOM     20  C   UNL     1      -0.690  13.124  21.429  0.00  0.00    +0.000 C 
ATOM     21  C   UNL     1       0.548  13.255  20.774  0.00  0.00    +0.000 C 
ENDROOT
BRANCH   1  23
ATOM     22  C   UNL     1       3.756  15.920  17.060  0.00  0.00    +0.000 C 
ATOM     23  C   UNL     1       4.414  15.211  17.996  0.00  0.00    +0.000 C 
ATOM     24  C   UNL     1       5.799  14.676  17.727  0.00  0.00    +0.000 C 
ENDBRANCH   1  23
BRANCH  18  25
ATOM     25  C   UNL     1      -7.227  12.713  21.007  0.00  0.00    +0.000 C 
ATOM     26  C   UNL     1      -7.745  14.031  20.407  0.00  0.00    +0.000 C 
BRANCH  25  27
ATOM     27  O   UNL     1      -7.686  11.700  20.083  0.00  0.00    +0.000 OA
ATOM     28  C   UNL     1      -7.717  10.394  20.645  0.00  0.00    +0.000 C 
ENDBRANCH  25  27
ENDBRANCH  18  25
TORSDOF 3
ENDMDL
MODEL 8
REMARK VINA RESULT:      -6.2      1.177      1.389
REMARK  Name = 
REMARK  6 active torsions:
REMARK  status: ('A' for Active; 'I' for Inactive)
REMARK    1  A    between atoms: C_2  and  C_3
REMARK    2  A    between atoms: C_2  and  C_4
REMARK    3  A    between atoms: C_21  and  C_22
REMARK    4  A    between atoms: C_22  and  C_23
REMARK    5  A    between atoms: C_22  and  O_24
REMARK    6  A    between atoms: O_24  and  C_25
REMARK                            x       y       z     vdW  Elec       q    Type
REMARK                         _______ _______ _______ _____ _____    ______ ____
ROOT
ATOM      1  C   UNL     1      -3.244  13.181  21.642  0.00  0.00    +0.000 A 
ATOM      2  C   UNL     1      -3.757  12.922  22.899  0.00  0.00    +0.000 A 
ATOM      3  C   UNL     1      -3.060  12.034  23.757  0.00  0.00    +0.000 A 
ATOM      4  C   UNL     1      -1.901  11.306  23.358  0.00  0.00    +0.000 A 
ATOM      5  C   UNL     1      -1.346  11.483  22.087  0.00  0.00    +0.000 A 
ATOM      6  C   UNL     1      -2.010  12.560  21.316  0.00  0.00    +0.000 A 
ATOM      7  C   UNL     1      -1.311  13.154  20.099  0.00  0.00    +0.000 C 
ATOM      8  C   UNL     1       0.111  12.781  20.162  0.00  0.00    +0.000 C 
ATOM      9  N   UNL     1       0.139  11.339  20.187  0.00  0.00    +0.000 N 
ATOM     10  C   UNL     1      -0.333  10.739  19.021  0.00  0.00    +0.000 C 
ATOM     11  O   UNL     1      -1.401  10.134  18.884  0.00  0.00    +0.000 OA
ATOM     12  C   UNL     1       0.879  10.490  18.219  0.00  0.00    +0.000 C 
ATOM     13  N   UNL     1       1.518   9.346  18.815  0.00  0.00    +0.000 NA
ATOM     14  C   UNL     1       1.355   8.830  19.986  0.00  0.00    +0.000 C 
ATOM     15  N   UNL     1       1.908   7.477  19.929  0.00  0.00    +0.000 N 
ATOM     16  C   UNL     1       2.318   6.560  20.870  0.00  0.00    +0.000 A 
ATOM     17  N   UNL     1       2.737   5.414  20.346  0.00  0.00    +0.000 NA
ATOM     18  C   UNL     1       2.661   5.530  18.962  0.00  0.00    +0.000 A 
ATOM     19  C   UNL     1       2.199   6.804  18.699  0.00  0.00    +0.000 A 
ATOM     20  C   UNL     1       0.519   9.428  21.341  0.00  0.00    +0.000 C 
ATOM     21  C   UNL     1      -0.189  10.644  21.317  0.00  0.00    +0.000 C 
ENDROOT
BRANCH   1  23
ATOM     22  C   UNL     1      -4.917  13.594  19.848  0.00  0.00    +0.000 C 
ATOM     23  C   UNL     1      -3.980  14.068  20.690  0.00  0.00    +0.000 C 
ATOM     24  C   UNL     1      -3.682  15.545  20.760  0.00  0.00    +0.000 C 
ENDBRANCH   1  23
BRANCH  18  25
ATOM     25  C   UNL     1       3.068   4.371  18.025  0.00  0.00    +0.000 C 
ATOM     26  C   UNL     1       1.910   3.609  17.359  0.00  0.00    +0.000 C 
BRANCH  25  27
ATOM     27  O   UNL     1       3.910   4.770  16.919  0.00  0.00    +0.000 OA
ATOM     28  C   UNL     1       5.280   4.436  17.100  0.00  0.00    +0.000 C 
ENDBRANCH  25  27
ENDBRANCH  18  25
TORSDOF 3
ENDMDL
MODEL 9
REMARK VINA RESULT:      -6.1      2.115      3.362
REMARK  Name = 
REMARK  6 active torsions:
REMARK  status: ('A' for Active; 'I' for Inactive)
REMARK    1  A    between atoms: C_2  and  C_3
REMARK    2  A    between atoms: C_2  and  C_4
REMARK    3  A    between atoms: C_21  and  C_22
REMARK    4  A    between atoms: C_22  and  C_23
REMARK    5  A    between atoms: C_22  and  O_24
REMARK    6  A    between atoms: O_24  and  C_25
REMARK                            x       y       z     vdW  Elec       q    Type
REMARK                         _______ _______ _______ _____ _____    ______ ____
ROOT
ATOM      1  C   UNL     1      -0.489  14.687  20.691  0.00  0.00    +0.000 A 
ATOM      2  C   UNL     1       0.055  15.628  19.836  0.00  0.00    +0.000 A 
ATOM      3  C   UNL     1       0.658  15.195  18.628  0.00  0.00    +0.000 A 
ATOM      4  C   UNL     1       0.828  13.822  18.286  0.00  0.00    +0.000 A 
ATOM      5  C   UNL     1       0.342  12.810  19.119  0.00  0.00    +0.000 A 
ATOM      6  C   UNL     1      -0.439  13.334  20.263  0.00  0.00    +0.000 A 
ATOM      7  C   UNL     1      -1.359  12.398  21.038  0.00  0.00    +0.000 C 
ATOM      8  C   UNL     1      -1.580  11.195  20.219  0.00  0.00    +0.000 C 
ATOM      9  N   UNL     1      -0.272  10.636  19.979  0.00  0.00    +0.000 N 
ATOM     10  C   UNL     1       0.370  10.172  21.126  0.00  0.00    +0.000 C 
ATOM     11  O   UNL     1       1.337  10.693  21.690  0.00  0.00    +0.000 OA
ATOM     12  C   UNL     1       0.049   8.734  21.169  0.00  0.00    +0.000 C 
ATOM     13  N   UNL     1       0.889   8.113  20.178  0.00  0.00    +0.000 NA
ATOM     14  C   UNL     1       1.520   8.643  19.185  0.00  0.00    +0.000 C 
ATOM     15  N   UNL     1       2.531   7.673  18.765  0.00  0.00    +0.000 N 
ATOM     16  C   UNL     1       3.282   7.492  17.626  0.00  0.00    +0.000 A 
ATOM     17  N   UNL     1       4.119   6.464  17.701  0.00  0.00    +0.000 NA
ATOM     18  C   UNL     1       3.931   5.856  18.938  0.00  0.00    +0.000 A 
ATOM     19  C   UNL     1       2.930   6.562  19.575  0.00  0.00    +0.000 A 
ATOM     20  C   UNL     1       1.416  10.210  18.531  0.00  0.00    +0.000 C 
ATOM     21  C   UNL     1       0.586  11.205  19.079  0.00  0.00    +0.000 C 
ENDROOT
BRANCH   1  23
ATOM     22  C   UNL     1      -0.422  14.960  23.162  0.00  0.00    +0.000 C 
ATOM     23  C   UNL     1      -1.083  15.101  21.998  0.00  0.00    +0.000 C 
ATOM     24  C   UNL     1      -2.439  15.760  21.955  0.00  0.00    +0.000 C 
ENDBRANCH   1  23
BRANCH  18  25
ATOM     25  C   UNL     1       4.752   4.620  19.369  0.00  0.00    +0.000 C 
ATOM     26  C   UNL     1       4.136   3.253  19.025  0.00  0.00    +0.000 C 
BRANCH  25  27
ATOM     27  O   UNL     1       6.080   4.562  18.800  0.00  0.00    +0.000 OA
ATOM     28  C   UNL     1       6.998   5.459  19.411  0.00  0.00    +0.000 C 
ENDBRANCH  25  27
ENDBRANCH  18  25
TORSDOF 3
ENDMDL
