MODEL 1
REMARK VINA RESULT:      -7.4      0.000      0.000
REMARK  Name = 
REMARK  8 active torsions:
REMARK  status: ('A' for Active; 'I' for Inactive)
REMARK    1  A    between atoms: C_2  and  O_3
REMARK    2  A    between atoms: C_2  and  C_4
REMARK    3  A    between atoms: C_4  and  N_5
REMARK    4  A    between atoms: C_6  and  C_8
REMARK    5  A    between atoms: C_8  and  N_9
REMARK    6  A    between atoms: C_10  and  O_12
REMARK    7  A    between atoms: O_12  and  C_13
REMARK    8  A    between atoms: C_13  and  C_14
REMARK                            x       y       z     vdW  Elec       q    Type
REMARK                         _______ _______ _______ _____ _____    ______ ____
ROOT
ATOM      1  C   UNL     1       5.983   6.257  17.250  0.00  0.00    +0.000 C 
ATOM      2  C   UNL     1       6.506   4.989  17.967  0.00  0.00    +0.000 C 
ATOM      3  C   UNL     1       7.420   5.505  19.075  0.00  0.00    +0.000 C 
ATOM      4  C   UNL     1       7.971   6.835  18.577  0.00  0.00    +0.000 C 
ATOM      5  C   UNL     1       7.245   7.142  17.269  0.00  0.00    +0.000 C 
ENDROOT
BRANCH   1   7
ATOM      6  N   UNL     1       5.739   4.544  15.462  0.00  0.00    +0.000 N 
ATOM      7  C   UNL     1       5.624   5.870  15.787  0.00  0.00    +0.000 C 
ATOM      8  O   UNL     1       5.249   6.694  14.957  0.00  0.00    +0.000 OA
ATOM      9  H   UNL     1       5.834   3.862  16.209  0.00  0.00    +0.000 HD
BRANCH   6  10
ATOM     10  C   UNL     1       5.320   4.080  14.153  0.00  0.00    +0.000 C 
BRANCH  10  12
ATOM     11  O   UNL     1       7.409   4.751  13.101  0.00  0.00    +0.000 OA
ATOM     12  C   UNL     1       6.486   3.952  13.187  0.00  0.00    +0.000 C 
BRANCH  12  13
ATOM     13  O   UNL     1       6.421   2.832  12.427  0.00  0.00    +0.000 OA
ATOM     14  H   UNL     1       6.829   2.926  11.543  0.00  0.00    +0.000 HD
ENDBRANCH  12  13
ENDBRANCH  10  12
ENDBRANCH   6  10
ENDBRANCH   1   7
BRANCH   1  15
ATOM     15  N   UNL     1       4.869   6.803  18.047  0.00  0.00    +0.000 N 
ATOM     16  C   UNL     1       3.540   6.504  17.965  0.00  0.00    +0.000 C 
ATOM     17  O   UNL     1       2.695   7.287  18.363  0.00  0.00    +0.000 OA
ATOM     18  H   UNL     1       5.036   7.643  18.580  0.00  0.00    +0.000 HD
BRANCH  16  19
ATOM     19  O   UNL     1       3.309   5.271  17.476  0.00  0.00    +0.000 OA
BRANCH  19  20
ATOM     20  C   UNL     1       2.035   4.708  17.817  0.00  0.00    +0.000 C 
BRANCH  20  21
ATOM     21  C   UNL     1       2.221   3.990  19.125  0.00  0.00    +0.000 A 
ATOM     22  C   UNL     1       3.390   3.266  19.393  0.00  0.00    +0.000 A 
ATOM     23  C   UNL     1       3.514   2.553  20.586  0.00  0.00    +0.000 A 
ATOM     24  C   UNL     1       2.473   2.555  21.514  0.00  0.00    +0.000 A 
ATOM     25  C   UNL     1       1.307   3.272  21.255  0.00  0.00    +0.000 A 
ATOM     26  C   UNL     1       1.180   3.987  20.066  0.00  0.00    +0.000 A 
ENDBRANCH  20  21
ENDBRANCH  19  20
ENDBRANCH  16  19
ENDBRANCH   1  15
TORSDOF 8
ENDMDL
MODEL 2
REMARK VINA RESULT:      -7.4      0.166      1.022
REMARK  Name = 
REMARK  8 active torsions:
REMARK  status: ('A' for Active; 'I' for Inactive)
REMARK    1  A    between atoms: C_2  and  O_3
REMARK    2  A    between atoms: C_2  and  C_4
REMARK    3  A    between atoms: C_4  and  N_5
REMARK    4  A    between atoms: C_6  and  C_8
REMARK    5  A    between atoms: C_8  and  N_9
REMARK    6  A    between atoms: C_10  and  O_12
REMARK    7  A    between atoms: O_12  and  C_13
REMARK    8  A    between atoms: C_13  and  C_14
REMARK                            x       y       z     vdW  Elec       q    Type
REMARK                         _______ _______ _______ _____ _____    ______ ____
ROOT
ATOM      1  C   UNL     1       5.901   6.151  17.217  0.00  0.00    +0.000 C 
ATOM      2  C   UNL     1       6.403   4.845  17.879  0.00  0.00    +0.000 C 
ATOM      3  C   UNL     1       7.305   5.298  19.023  0.00  0.00    +0.000 C 
ATOM      4  C   UNL     1       7.874   6.645  18.599  0.00  0.00    +0.000 C 
ATOM      5  C   UNL     1       7.170   7.022  17.298  0.00  0.00    +0.000 C 
ENDROOT
BRANCH   1   7
ATOM      6  N   UNL     1       5.703   4.536  15.335  0.00  0.00    +0.000 N 
ATOM      7  C   UNL     1       5.560   5.840  15.733  0.00  0.00    +0.000 C 
ATOM      8  O   UNL     1       5.175   6.700  14.947  0.00  0.00    +0.000 OA
ATOM      9  H   UNL     1       5.806   3.815  16.044  0.00  0.00    +0.000 HD
BRANCH   6  10
ATOM     10  C   UNL     1       5.303   4.137  13.999  0.00  0.00    +0.000 C 
BRANCH  10  12
ATOM     11  O   UNL     1       7.365   4.760  12.868  0.00  0.00    +0.000 OA
ATOM     12  C   UNL     1       6.494   3.927  13.080  0.00  0.00    +0.000 C 
BRANCH  12  13
ATOM     13  O   UNL     1       6.517   2.693  12.521  0.00  0.00    +0.000 OA
ATOM     14  H   UNL     1       7.092   2.055  12.988  0.00  0.00    +0.000 HD
ENDBRANCH  12  13
ENDBRANCH  10  12
ENDBRANCH   6  10
ENDBRANCH   1   7
BRANCH   1  15
ATOM     15  N   UNL     1       4.780   6.668  18.024  0.00  0.00    +0.000 N 
ATOM     16  C   UNL     1       3.458   6.345  17.946  0.00  0.00    +0.000 C 
ATOM     17  O   UNL     1       2.599   7.108  18.355  0.00  0.00    +0.000 OA
ATOM     18  H   UNL     1       4.933   7.506  18.565  0.00  0.00    +0.000 HD
BRANCH  16  19
ATOM     19  O   UNL     1       3.248   5.112  17.446  0.00  0.00    +0.000 OA
BRANCH  19  20
ATOM     20  C   UNL     1       1.968   4.541  17.748  0.00  0.00    +0.000 C 
BRANCH  20  21
ATOM     21  C   UNL     1       2.124   3.806  19.051  0.00  0.00    +0.000 A 
ATOM     22  C   UNL     1       1.123   3.849  20.030  0.00  0.00    +0.000 A 
ATOM     23  C   UNL     1       1.318   3.214  21.257  0.00  0.00    +0.000 A 
ATOM     24  C   UNL     1       2.510   2.538  21.515  0.00  0.00    +0.000 A 
ATOM     25  C   UNL     1       3.510   2.490  20.546  0.00  0.00    +0.000 A 
ATOM     26  C   UNL     1       3.319   3.121  19.319  0.00  0.00    +0.000 A 
ENDBRANCH  20  21
ENDBRANCH  19  20
ENDBRANCH  16  19
ENDBRANCH   1  15
TORSDOF 8
ENDMDL
MODEL 3
REMARK VINA RESULT:      -7.3      2.000      2.961
REMARK  Name = 
REMARK  8 active torsions:
REMARK  status: ('A' for Active; 'I' for Inactive)
REMARK    1  A    between atoms: C_2  and  O_3
REMARK    2  A    between atoms: C_2  and  C_4
REMARK    3  A    between atoms: C_4  and  N_5
REMARK    4  A    between atoms: C_6  and  C_8
REMARK    5  A    between atoms: C_8  and  N_9
REMARK    6  A    between atoms: C_10  and  O_12
REMARK    7  A    between atoms: O_12  and  C_13
REMARK    8  A    between atoms: C_13  and  C_14
REMARK                            x       y       z     vdW  Elec       q    Type
REMARK                         _______ _______ _______ _____ _____    ______ ____
ROOT
ATOM      1  C   UNL     1       6.323   4.517  16.322  0.00  0.00    +0.000 C 
ATOM      2  C   UNL     1       7.608   4.606  17.181  0.00  0.00    +0.000 C 
ATOM      3  C   UNL     1       7.161   5.219  18.506  0.00  0.00    +0.000 C 
ATOM      4  C   UNL     1       5.953   6.087  18.179  0.00  0.00    +0.000 C 
ATOM      5  C   UNL     1       5.625   5.836  16.708  0.00  0.00    +0.000 C 
ENDROOT
BRANCH   1   7
ATOM      6  N   UNL     1       6.180   3.604  14.012  0.00  0.00    +0.000 N 
ATOM      7  C   UNL     1       6.741   4.553  14.825  0.00  0.00    +0.000 C 
ATOM      8  O   UNL     1       7.524   5.385  14.375  0.00  0.00    +0.000 OA
ATOM      9  H   UNL     1       5.380   3.077  14.353  0.00  0.00    +0.000 HD
BRANCH   6  10
ATOM     10  C   UNL     1       6.428   3.632  12.584  0.00  0.00    +0.000 C 
BRANCH  10  12
ATOM     11  O   UNL     1       5.694   1.614  11.438  0.00  0.00    +0.000 OA
ATOM     12  C   UNL     1       5.456   2.755  11.812  0.00  0.00    +0.000 C 
BRANCH  12  13
ATOM     13  O   UNL     1       4.263   3.358  11.593  0.00  0.00    +0.000 OA
ATOM     14  H   UNL     1       3.621   3.248  12.322  0.00  0.00    +0.000 HD
ENDBRANCH  12  13
ENDBRANCH  10  12
ENDBRANCH   6  10
ENDBRANCH   1   7
BRANCH   1  15
ATOM     15  N   UNL     1       5.580   3.314  16.739  0.00  0.00    +0.000 N 
ATOM     16  C   UNL     1       4.309   3.227  17.224  0.00  0.00    +0.000 C 
ATOM     17  O   UNL     1       3.959   2.276  17.903  0.00  0.00    +0.000 OA
ATOM     18  H   UNL     1       6.103   2.464  16.893  0.00  0.00    +0.000 HD
BRANCH  16  19
ATOM     19  O   UNL     1       3.522   4.242  16.818  0.00  0.00    +0.000 OA
BRANCH  19  20
ATOM     20  C   UNL     1       2.198   4.246  17.370  0.00  0.00    +0.000 C 
BRANCH  20  21
ATOM     21  C   UNL     1       2.171   5.332  18.409  0.00  0.00    +0.000 A 
ATOM     22  C   UNL     1       1.905   5.041  19.753  0.00  0.00    +0.000 A 
ATOM     23  C   UNL     1       1.819   6.073  20.689  0.00  0.00    +0.000 A 
ATOM     24  C   UNL     1       1.996   7.397  20.290  0.00  0.00    +0.000 A 
ATOM     25  C   UNL     1       2.261   7.695  18.954  0.00  0.00    +0.000 A 
ATOM     26  C   UNL     1       2.349   6.668  18.017  0.00  0.00    +0.000 A 
ENDBRANCH  20  21
ENDBRANCH  19  20
ENDBRANCH  16  19
ENDBRANCH   1  15
TORSDOF 8
ENDMDL
MODEL 4
REMARK VINA RESULT:      -7.3      2.529      3.987
REMARK  Name = 
REMARK  8 active torsions:
REMARK  status: ('A' for Active; 'I' for Inactive)
REMARK    1  A    between atoms: C_2  and  O_3
REMARK    2  A    between atoms: C_2  and  C_4
REMARK    3  A    between atoms: C_4  and  N_5
REMARK    4  A    between atoms: C_6  and  C_8
REMARK    5  A    between atoms: C_8  and  N_9
REMARK    6  A    between atoms: C_10  and  O_12
REMARK    7  A    between atoms: O_12  and  C_13
REMARK    8  A    between atoms: C_13  and  C_14
REMARK                            x       y       z     vdW  Elec       q    Type
REMARK                         _______ _______ _______ _____ _____    ______ ____
ROOT
ATOM      1  C   UNL     1       5.697   4.996  17.131  0.00  0.00    +0.000 C 
ATOM      2  C   UNL     1       7.151   4.842  16.624  0.00  0.00    +0.000 C 
ATOM      3  C   UNL     1       7.041   4.802  15.102  0.00  0.00    +0.000 C 
ATOM      4  C   UNL     1       5.667   4.221  14.797  0.00  0.00    +0.000 C 
ATOM      5  C   UNL     1       4.945   4.088  16.137  0.00  0.00    +0.000 C 
ENDROOT
BRANCH   1   7
ATOM      6  N   UNL     1       4.706   3.394  18.757  0.00  0.00    +0.000 N 
ATOM      7  C   UNL     1       5.620   4.397  18.564  0.00  0.00    +0.000 C 
ATOM      8  O   UNL     1       6.336   4.783  19.483  0.00  0.00    +0.000 OA
ATOM      9  H   UNL     1       4.290   2.946  17.945  0.00  0.00    +0.000 HD
BRANCH   6  10
ATOM     10  C   UNL     1       4.644   2.705  20.032  0.00  0.00    +0.000 C 
BRANCH  10  12
ATOM     11  O   UNL     1       5.570   0.558  20.706  0.00  0.00    +0.000 OA
ATOM     12  C   UNL     1       4.932   1.219  19.898  0.00  0.00    +0.000 C 
BRANCH  12  13
ATOM     13  O   UNL     1       4.381   0.673  18.787  0.00  0.00    +0.000 OA
ATOM     14  H   UNL     1       3.678   1.220  18.382  0.00  0.00    +0.000 HD
ENDBRANCH  12  13
ENDBRANCH  10  12
ENDBRANCH   6  10
ENDBRANCH   1   7
BRANCH   1  15
ATOM     15  N   UNL     1       5.326   6.419  17.024  0.00  0.00    +0.000 N 
ATOM     16  C   UNL     1       4.178   7.030  17.434  0.00  0.00    +0.000 C 
ATOM     17  O   UNL     1       3.816   8.084  16.938  0.00  0.00    +0.000 OA
ATOM     18  H   UNL     1       5.863   7.003  16.400  0.00  0.00    +0.000 HD
BRANCH  16  19
ATOM     19  O   UNL     1       3.572   6.383  18.447  0.00  0.00    +0.000 OA
BRANCH  19  20
ATOM     20  C   UNL     1       2.143   6.300  18.351  0.00  0.00    +0.000 C 
BRANCH  20  21
ATOM     21  C   UNL     1       1.754   4.957  18.904  0.00  0.00    +0.000 A 
ATOM     22  C   UNL     1       1.464   3.882  18.055  0.00  0.00    +0.000 A 
ATOM     23  C   UNL     1       1.041   2.663  18.588  0.00  0.00    +0.000 A 
ATOM     24  C   UNL     1       0.903   2.513  19.967  0.00  0.00    +0.000 A 
ATOM     25  C   UNL     1       1.189   3.578  20.819  0.00  0.00    +0.000 A 
ATOM     26  C   UNL     1       1.613   4.795  20.291  0.00  0.00    +0.000 A 
ENDBRANCH  20  21
ENDBRANCH  19  20
ENDBRANCH  16  19
ENDBRANCH   1  15
TORSDOF 8
ENDMDL
MODEL 5
REMARK VINA RESULT:      -7.3      1.884      2.829
REMARK  Name = 
REMARK  8 active torsions:
REMARK  status: ('A' for Active; 'I' for Inactive)
REMARK    1  A    between atoms: C_2  and  O_3
REMARK    2  A    between atoms: C_2  and  C_4
REMARK    3  A    between atoms: C_4  and  N_5
REMARK    4  A    between atoms: C_6  and  C_8
REMARK    5  A    between atoms: C_8  and  N_9
REMARK    6  A    between atoms: C_10  and  O_12
REMARK    7  A    between atoms: O_12  and  C_13
REMARK    8  A    between atoms: C_13  and  C_14
REMARK                            x       y       z     vdW  Elec       q    Type
REMARK                         _______ _______ _______ _____ _____    ______ ____
ROOT
ATOM      1  C   UNL     1       5.710   5.391  16.562  0.00  0.00    +0.000 C 
ATOM      2  C   UNL     1       5.197   6.837  16.358  0.00  0.00    +0.000 C 
ATOM      3  C   UNL     1       3.959   6.951  17.243  0.00  0.00    +0.000 C 
ATOM      4  C   UNL     1       3.380   5.546  17.336  0.00  0.00    +0.000 C 
ATOM      5  C   UNL     1       4.377   4.620  16.642  0.00  0.00    +0.000 C 
ENDROOT
BRANCH   1   7
ATOM      6  N   UNL     1       5.801   4.239  14.359  0.00  0.00    +0.000 N 
ATOM      7  C   UNL     1       6.494   4.972  15.287  0.00  0.00    +0.000 C 
ATOM      8  O   UNL     1       7.668   5.279  15.100  0.00  0.00    +0.000 OA
ATOM      9  H   UNL     1       4.789   4.189  14.430  0.00  0.00    +0.000 HD
BRANCH   6  10
ATOM     10  C   UNL     1       6.421   3.900  13.092  0.00  0.00    +0.000 C 
BRANCH  10  12
ATOM     11  O   UNL     1       4.401   3.439  11.818  0.00  0.00    +0.000 OA
ATOM     12  C   UNL     1       5.504   3.077  12.204  0.00  0.00    +0.000 C 
BRANCH  12  13
ATOM     13  O   UNL     1       6.044   1.886  11.849  0.00  0.00    +0.000 OA
ATOM     14  H   UNL     1       5.552   1.421  11.143  0.00  0.00    +0.000 HD
ENDBRANCH  12  13
ENDBRANCH  10  12
ENDBRANCH   6  10
ENDBRANCH   1   7
BRANCH   1  15
ATOM     15  N   UNL     1       6.485   5.357  17.816  0.00  0.00    +0.000 N 
ATOM     16  C   UNL     1       6.202   4.690  18.972  0.00  0.00    +0.000 C 
ATOM     17  O   UNL     1       6.669   5.053  20.038  0.00  0.00    +0.000 OA
ATOM     18  H   UNL     1       7.202   6.055  17.949  0.00  0.00    +0.000 HD
BRANCH  16  19
ATOM     19  O   UNL     1       5.436   3.600  18.773  0.00  0.00    +0.000 OA
BRANCH  19  20
ATOM     20  C   UNL     1       4.930   2.985  19.966  0.00  0.00    +0.000 C 
BRANCH  20  21
ATOM     21  C   UNL     1       3.432   2.968  19.836  0.00  0.00    +0.000 A 
ATOM     22  C   UNL     1       2.796   2.142  18.901  0.00  0.00    +0.000 A 
ATOM     23  C   UNL     1       1.409   2.192  18.753  0.00  0.00    +0.000 A 
ATOM     24  C   UNL     1       0.652   3.066  19.531  0.00  0.00    +0.000 A 
ATOM     25  C   UNL     1       1.277   3.892  20.464  0.00  0.00    +0.000 A 
ATOM     26  C   UNL     1       2.661   3.844  20.616  0.00  0.00    +0.000 A 
ENDBRANCH  20  21
ENDBRANCH  19  20
ENDBRANCH  16  19
ENDBRANCH   1  15
TORSDOF 8
ENDMDL
MODEL 6
REMARK VINA RESULT:      -7.2      2.526      4.008
REMARK  Name = 
REMARK  8 active torsions:
REMARK  status: ('A' for Active; 'I' for Inactive)
REMARK    1  A    between atoms: C_2  and  O_3
REMARK    2  A    between atoms: C_2  and  C_4
REMARK    3  A    between atoms: C_4  and  N_5
REMARK    4  A    between atoms: C_6  and  C_8
REMARK    5  A    between atoms: C_8  and  N_9
REMARK    6  A    between atoms: C_10  and  O_12
REMARK    7  A    between atoms: O_12  and  C_13
REMARK    8  A    between atoms: C_13  and  C_14
REMARK                            x       y       z     vdW  Elec       q    Type
REMARK                         _______ _______ _______ _____ _____    ______ ____
ROOT
ATOM      1  C   UNL     1       5.723   4.975  17.242  0.00  0.00    +0.000 C 
ATOM      2  C   UNL     1       7.192   4.834  16.776  0.00  0.00    +0.000 C 
ATOM      3  C   UNL     1       7.125   4.790  15.252  0.00  0.00    +0.000 C 
ATOM      4  C   UNL     1       5.766   4.195  14.910  0.00  0.00    +0.000 C 
ATOM      5  C   UNL     1       5.009   4.057  16.229  0.00  0.00    +0.000 C 
ENDROOT
BRANCH   1   7
ATOM      6  N   UNL     1       4.783   3.297  18.820  0.00  0.00    +0.000 N 
ATOM      7  C   UNL     1       5.611   4.378  18.673  0.00  0.00    +0.000 C 
ATOM      8  O   UNL     1       6.231   4.833  19.631  0.00  0.00    +0.000 OA
ATOM      9  H   UNL     1       4.460   2.809  17.989  0.00  0.00    +0.000 HD
BRANCH   6  10
ATOM     10  C   UNL     1       4.704   2.611  20.096  0.00  0.00    +0.000 C 
BRANCH  10  12
ATOM     11  O   UNL     1       5.600   0.456  20.785  0.00  0.00    +0.000 OA
ATOM     12  C   UNL     1       4.979   1.122  19.968  0.00  0.00    +0.000 C 
BRANCH  12  13
ATOM     13  O   UNL     1       4.439   0.581  18.849  0.00  0.00    +0.000 OA
ATOM     14  H   UNL     1       4.371   1.204  18.099  0.00  0.00    +0.000 HD
ENDBRANCH  12  13
ENDBRANCH  10  12
ENDBRANCH   6  10
ENDBRANCH   1   7
BRANCH   1  15
ATOM     15  N   UNL     1       5.341   6.394  17.120  0.00  0.00    +0.000 N 
ATOM     16  C   UNL     1       4.143   6.978  17.411  0.00  0.00    +0.000 C 
ATOM     17  O   UNL     1       3.819   8.036  16.898  0.00  0.00    +0.000 OA
ATOM     18  H   UNL     1       5.933   6.998  16.571  0.00  0.00    +0.000 HD
BRANCH  16  19
ATOM     19  O   UNL     1       3.440   6.300  18.339  0.00  0.00    +0.000 OA
BRANCH  19  20
ATOM     20  C   UNL     1       2.123   5.903  17.936  0.00  0.00    +0.000 C 
BRANCH  20  21
ATOM     21  C   UNL     1       1.719   4.776  18.846  0.00  0.00    +0.000 A 
ATOM     22  C   UNL     1       1.770   4.917  20.238  0.00  0.00    +0.000 A 
ATOM     23  C   UNL     1       1.454   3.836  21.063  0.00  0.00    +0.000 A 
ATOM     24  C   UNL     1       1.089   2.612  20.504  0.00  0.00    +0.000 A 
ATOM     25  C   UNL     1       1.035   2.463  19.120  0.00  0.00    +0.000 A 
ATOM     26  C   UNL     1       1.349   3.540  18.293  0.00  0.00    +0.000 A 
ENDBRANCH  20  21
ENDBRANCH  19  20
ENDBRANCH  16  19
ENDBRANCH   1  15
TORSDOF 8
ENDMDL
MODEL 7
REMARK VINA RESULT:      -7.2      0.899      1.460
REMARK  Name = 
REMARK  8 active torsions:
REMARK  status: ('A' for Active; 'I' for Inactive)
REMARK    1  A    between atoms: C_2  and  O_3
REMARK    2  A    between atoms: C_2  and  C_4
REMARK    3  A    between atoms: C_4  and  N_5
REMARK    4  A    between atoms: C_6  and  C_8
REMARK    5  A    between atoms: C_8  and  N_9
REMARK    6  A    between atoms: C_10  and  O_12
REMARK    7  A    between atoms: O_12  and  C_13
REMARK    8  A    between atoms: C_13  and  C_14
REMARK                            x       y       z     vdW  Elec       q    Type
REMARK                         _______ _______ _______ _____ _____    ______ ____
ROOT
ATOM      1  C   UNL     1       6.308   6.089  17.322  0.00  0.00    +0.000 C 
ATOM      2  C   UNL     1       7.193   4.963  17.909  0.00  0.00    +0.000 C 
ATOM      3  C   UNL     1       7.977   5.620  19.041  0.00  0.00    +0.000 C 
ATOM      4  C   UNL     1       8.116   7.087  18.658  0.00  0.00    +0.000 C 
ATOM      5  C   UNL     1       7.276   7.287  17.398  0.00  0.00    +0.000 C 
ENDROOT
BRANCH   1   7
ATOM      6  N   UNL     1       6.462   4.528  15.390  0.00  0.00    +0.000 N 
ATOM      7  C   UNL     1       6.006   5.740  15.837  0.00  0.00    +0.000 C 
ATOM      8  O   UNL     1       5.386   6.494  15.092  0.00  0.00    +0.000 OA
ATOM      9  H   UNL     1       6.771   3.839  16.071  0.00  0.00    +0.000 HD
BRANCH   6  10
ATOM     10  C   UNL     1       6.130   4.076  14.053  0.00  0.00    +0.000 C 
BRANCH  10  12
ATOM     11  O   UNL     1       7.212   4.115  11.874  0.00  0.00    +0.000 OA
ATOM     12  C   UNL     1       7.146   4.536  13.020  0.00  0.00    +0.000 C 
BRANCH  12  13
ATOM     13  O   UNL     1       7.976   5.498  13.491  0.00  0.00    +0.000 OA
ATOM     14  H   UNL     1       7.619   6.405  13.412  0.00  0.00    +0.000 HD
ENDBRANCH  12  13
ENDBRANCH  10  12
ENDBRANCH   6  10
ENDBRANCH   1   7
BRANCH   1  15
ATOM     15  N   UNL     1       5.123   6.234  18.187  0.00  0.00    +0.000 N 
ATOM     16  C   UNL     1       3.880   5.697  18.022  0.00  0.00    +0.000 C 
ATOM     17  O   UNL     1       2.903   6.202  18.548  0.00  0.00    +0.000 OA
ATOM     18  H   UNL     1       5.129   6.970  18.878  0.00  0.00    +0.000 HD
BRANCH  16  19
ATOM     19  O   UNL     1       3.892   4.563  17.296  0.00  0.00    +0.000 OA
BRANCH  19  20
ATOM     20  C   UNL     1       4.229   3.375  18.027  0.00  0.00    +0.000 C 
BRANCH  20  21
ATOM     21  C   UNL     1       3.105   3.138  18.998  0.00  0.00    +0.000 A 
ATOM     22  C   UNL     1       1.787   2.976  18.554  0.00  0.00    +0.000 A 
ATOM     23  C   UNL     1       0.752   2.824  19.477  0.00  0.00    +0.000 A 
ATOM     24  C   UNL     1       1.025   2.835  20.844  0.00  0.00    +0.000 A 
ATOM     25  C   UNL     1       2.334   2.995  21.295  0.00  0.00    +0.000 A 
ATOM     26  C   UNL     1       3.370   3.146  20.376  0.00  0.00    +0.000 A 
ENDBRANCH  20  21
ENDBRANCH  19  20
ENDBRANCH  16  19
ENDBRANCH   1  15
TORSDOF 8
ENDMDL
MODEL 8
REMARK VINA RESULT:      -7.2      2.435      6.198
REMARK  Name = 
REMARK  8 active torsions:
REMARK  status: ('A' for Active; 'I' for Inactive)
REMARK    1  A    between atoms: C_2  and  O_3
REMARK    2  A    between atoms: C_2  and  C_4
REMARK    3  A    between atoms: C_4  and  N_5
REMARK    4  A    between atoms: C_6  and  C_8
REMARK    5  A    between atoms: C_8  and  N_9
REMARK    6  A    between atoms: C_10  and  O_12
REMARK    7  A    between atoms: O_12  and  C_13
REMARK    8  A    between atoms: C_13  and  C_14
REMARK                            x       y       z     vdW  Elec       q    Type
REMARK                         _______ _______ _______ _____ _____    ______ ____
ROOT
ATOM      1  C   UNL     1       2.670   4.183  19.503  0.00  0.00    +0.000 C 
ATOM      2  C   UNL     1       2.465   4.122  21.036  0.00  0.00    +0.000 C 
ATOM      3  C   UNL     1       1.335   3.119  21.249  0.00  0.00    +0.000 C 
ATOM      4  C   UNL     1       0.477   3.183  19.992  0.00  0.00    +0.000 C 
ATOM      5  C   UNL     1       1.211   4.096  19.012  0.00  0.00    +0.000 C 
ENDROOT
BRANCH   1   7
ATOM      6  N   UNL     1       2.572   6.326  18.243  0.00  0.00    +0.000 N 
ATOM      7  C   UNL     1       3.270   5.574  19.151  0.00  0.00    +0.000 C 
ATOM      8  O   UNL     1       4.306   5.995  19.656  0.00  0.00    +0.000 OA
ATOM      9  H   UNL     1       1.620   6.057  18.011  0.00  0.00    +0.000 HD
BRANCH   6  10
ATOM     10  C   UNL     1       3.000   7.678  17.939  0.00  0.00    +0.000 C 
BRANCH  10  12
ATOM     11  O   UNL     1       1.435   8.752  19.461  0.00  0.00    +0.000 OA
ATOM     12  C   UNL     1       1.975   8.716  18.364  0.00  0.00    +0.000 C 
BRANCH  12  13
ATOM     13  O   UNL     1       1.725   9.634  17.399  0.00  0.00    +0.000 OA
ATOM     14  H   UNL     1       1.035   9.364  16.761  0.00  0.00    +0.000 HD
ENDBRANCH  12  13
ENDBRANCH  10  12
ENDBRANCH   6  10
ENDBRANCH   1   7
BRANCH   1  15
ATOM     15  N   UNL     1       3.494   3.025  19.109  0.00  0.00    +0.000 N 
ATOM     16  C   UNL     1       3.882   2.647  17.857  0.00  0.00    +0.000 C 
ATOM     17  O   UNL     1       4.193   1.492  17.618  0.00  0.00    +0.000 OA
ATOM     18  H   UNL     1       3.633   2.290  19.786  0.00  0.00    +0.000 HD
BRANCH  16  19
ATOM     19  O   UNL     1       3.938   3.678  16.992  0.00  0.00    +0.000 OA
BRANCH  19  20
ATOM     20  C   UNL     1       5.156   3.780  16.242  0.00  0.00    +0.000 C 
BRANCH  20  21
ATOM     21  C   UNL     1       5.972   4.859  16.898  0.00  0.00    +0.000 A 
ATOM     22  C   UNL     1       5.858   6.196  16.497  0.00  0.00    +0.000 A 
ATOM     23  C   UNL     1       6.673   7.172  17.073  0.00  0.00    +0.000 A 
ATOM     24  C   UNL     1       7.605   6.819  18.048  0.00  0.00    +0.000 A 
ATOM     25  C   UNL     1       7.725   5.491  18.453  0.00  0.00    +0.000 A 
ATOM     26  C   UNL     1       6.912   4.514  17.881  0.00  0.00    +0.000 A 
ENDBRANCH  20  21
ENDBRANCH  19  20
ENDBRANCH  16  19
ENDBRANCH   1  15
TORSDOF 8
ENDMDL
MODEL 9
REMARK VINA RESULT:      -7.2      1.874      2.892
REMARK  Name = 
REMARK  8 active torsions:
REMARK  status: ('A' for Active; 'I' for Inactive)
REMARK    1  A    between atoms: C_2  and  O_3
REMARK    2  A    between atoms: C_2  and  C_4
REMARK    3  A    between atoms: C_4  and  N_5
REMARK    4  A    between atoms: C_6  and  C_8
REMARK    5  A    between atoms: C_8  and  N_9
REMARK    6  A    between atoms: C_10  and  O_12
REMARK    7  A    between atoms: O_12  and  C_13
REMARK    8  A    between atoms: C_13  and  C_14
REMARK                            x       y       z     vdW  Elec       q    Type
REMARK                         _______ _______ _______ _____ _____    ______ ____
ROOT
ATOM      1  C   UNL     1       5.741   5.420  16.544  0.00  0.00    +0.000 C 
ATOM      2  C   UNL     1       5.257   6.880  16.372  0.00  0.00    +0.000 C 
ATOM      3  C   UNL     1       4.026   7.000  17.265  0.00  0.00    +0.000 C 
ATOM      4  C   UNL     1       3.419   5.606  17.332  0.00  0.00    +0.000 C 
ATOM      5  C   UNL     1       4.394   4.674  16.614  0.00  0.00    +0.000 C 
ENDROOT
BRANCH   1   7
ATOM      6  N   UNL     1       5.856   4.172  14.395  0.00  0.00    +0.000 N 
ATOM      7  C   UNL     1       6.511   5.012  15.256  0.00  0.00    +0.000 C 
ATOM      8  O   UNL     1       7.642   5.417  15.004  0.00  0.00    +0.000 OA
ATOM      9  H   UNL     1       4.856   4.031  14.512  0.00  0.00    +0.000 HD
BRANCH   6  10
ATOM     10  C   UNL     1       6.455   3.828  13.119  0.00  0.00    +0.000 C 
BRANCH  10  12
ATOM     11  O   UNL     1       4.395   3.469  11.875  0.00  0.00    +0.000 OA
ATOM     12  C   UNL     1       5.498   3.065  12.219  0.00  0.00    +0.000 C 
BRANCH  12  13
ATOM     13  O   UNL     1       6.000   1.877  11.803  0.00  0.00    +0.000 OA
ATOM     14  H   UNL     1       6.189   1.249  12.527  0.00  0.00    +0.000 HD
ENDBRANCH  12  13
ENDBRANCH  10  12
ENDBRANCH   6  10
ENDBRANCH   1   7
BRANCH   1  15
ATOM     15  N   UNL     1       6.521   5.344  17.793  0.00  0.00    +0.000 N 
ATOM     16  C   UNL     1       6.225   4.665  18.939  0.00  0.00    +0.000 C 
ATOM     17  O   UNL     1       6.707   4.997  20.008  0.00  0.00    +0.000 OA
ATOM     18  H   UNL     1       7.258   6.019  17.933  0.00  0.00    +0.000 HD
BRANCH  16  19
ATOM     19  O   UNL     1       5.428   3.600  18.726  0.00  0.00    +0.000 OA
BRANCH  19  20
ATOM     20  C   UNL     1       4.889   2.995  19.910  0.00  0.00    +0.000 C 
BRANCH  20  21
ATOM     21  C   UNL     1       3.392   3.055  19.778  0.00  0.00    +0.000 A 
ATOM     22  C   UNL     1       2.624   3.868  20.620  0.00  0.00    +0.000 A 
ATOM     23  C   UNL     1       1.232   3.857  20.523  0.00  0.00    +0.000 A 
ATOM     24  C   UNL     1       0.601   3.035  19.590  0.00  0.00    +0.000 A 
ATOM     25  C   UNL     1       1.358   2.223  18.748  0.00  0.00    +0.000 A 
ATOM     26  C   UNL     1       2.748   2.232  18.841  0.00  0.00    +0.000 A 
ENDBRANCH  20  21
ENDBRANCH  19  20
ENDBRANCH  16  19
ENDBRANCH   1  15
TORSDOF 8
ENDMDL
