MODEL 1
REMARK VINA RESULT:      -6.8      0.000      0.000
REMARK  Name = 
REMARK  5 active torsions:
REMARK  status: ('A' for Active; 'I' for Inactive)
REMARK    1  A    between atoms: C_1  and  C_2
REMARK    2  A    between atoms: C_7  and  N_8
REMARK    3  A    between atoms: C_9  and  S_10
REMARK    4  A    between atoms: N_11  and  C_12
REMARK    5  A    between atoms: C_17  and  C_18
REMARK                            x       y       z     vdW  Elec       q    Type
REMARK                         _______ _______ _______ _____ _____    ______ ____
ROOT
ATOM      1  N   UNL     1       4.480   4.081  19.382  0.00  0.00    +0.000 NA
ATOM      2  C   UNL     1       4.773   3.734  18.170  0.00  0.00    +0.000 C 
ATOM      3  N   UNL     1       5.954   4.052  17.550  0.00  0.00    +0.000 N 
ATOM      4  H   UNL     1       6.001   3.775  16.582  0.00  0.00    +0.000 HD
ENDROOT
BRANCH   1  11
ATOM      5  C   UNL     1       2.148   5.701  19.031  0.00  0.00    +0.000 C 
ATOM      6  C   UNL     1       2.173   4.501  19.933  0.00  0.00    +0.000 A 
ATOM      7  C   UNL     1       1.022   4.111  20.622  0.00  0.00    +0.000 A 
ATOM      8  C   UNL     1       1.059   2.983  21.430  0.00  0.00    +0.000 A 
ATOM      9  C   UNL     1       2.236   2.262  21.492  0.00  0.00    +0.000 A 
ATOM     10  N   UNL     1       3.364   2.594  20.820  0.00  0.00    +0.000 NA
ATOM     11  C   UNL     1       3.328   3.722  20.078  0.00  0.00    +0.000 A 
ENDBRANCH   1  11
BRANCH   3  12
ATOM     12  C   UNL     1       6.645   5.248  17.788  0.00  0.00    +0.000 A 
ATOM     13  N   UNL     1       7.563   5.291  18.779  0.00  0.00    +0.000 NA
ATOM     14  C   UNL     1       8.249   6.432  18.975  0.00  0.00    +0.000 A 
ATOM     15  C   UNL     1       8.062   7.574  18.224  0.00  0.00    +0.000 A 
ATOM     16  C   UNL     1       7.093   7.545  17.230  0.00  0.00    +0.000 A 
ATOM     17  C   UNL     1       6.348   6.379  17.013  0.00  0.00    +0.000 A 
ATOM     18  C   UNL     1       5.315   6.344  15.923  0.00  0.00    +0.000 C 
ENDBRANCH   3  12
BRANCH   2  19
ATOM     19  S   UNL     1       3.801   2.711  17.115  0.00  0.00    +0.000 S 
ATOM     20  H   UNL     1       3.500   3.709  16.269  0.00  0.00    +0.000 HD
ENDBRANCH   2  19
TORSDOF 3
ENDMDL
MODEL 2
REMARK VINA RESULT:      -6.4      2.805      4.082
REMARK  Name = 
REMARK  5 active torsions:
REMARK  status: ('A' for Active; 'I' for Inactive)
REMARK    1  A    between atoms: C_1  and  C_2
REMARK    2  A    between atoms: C_7  and  N_8
REMARK    3  A    between atoms: C_9  and  S_10
REMARK    4  A    between atoms: N_11  and  C_12
REMARK    5  A    between atoms: C_17  and  C_18
REMARK                            x       y       z     vdW  Elec       q    Type
REMARK                         _______ _______ _______ _____ _____    ______ ____
ROOT
ATOM      1  N   UNL     1       3.016   6.514  19.687  0.00  0.00    +0.000 NA
ATOM      2  C   UNL     1       2.802   5.250  19.863  0.00  0.00    +0.000 C 
ATOM      3  N   UNL     1       3.756   4.283  19.684  0.00  0.00    +0.000 N 
ATOM      4  H   UNL     1       3.414   3.339  19.787  0.00  0.00    +0.000 HD
ENDROOT
BRANCH   1  11
ATOM      5  C   UNL     1       2.507   8.368  17.568  0.00  0.00    +0.000 C 
ATOM      6  C   UNL     1       1.839   8.467  18.910  0.00  0.00    +0.000 A 
ATOM      7  C   UNL     1       0.904   9.473  19.161  0.00  0.00    +0.000 A 
ATOM      8  C   UNL     1       0.278   9.532  20.399  0.00  0.00    +0.000 A 
ATOM      9  C   UNL     1       0.583   8.558  21.331  0.00  0.00    +0.000 A 
ATOM     10  N   UNL     1       1.465   7.553  21.116  0.00  0.00    +0.000 NA
ATOM     11  C   UNL     1       2.104   7.539  19.926  0.00  0.00    +0.000 A 
ENDBRANCH   1  11
BRANCH   3  12
ATOM     12  C   UNL     1       4.764   4.372  18.714  0.00  0.00    +0.000 A 
ATOM     13  N   UNL     1       5.987   4.818  19.077  0.00  0.00    +0.000 NA
ATOM     14  C   UNL     1       6.960   4.865  18.147  0.00  0.00    +0.000 A 
ATOM     15  C   UNL     1       6.777   4.490  16.832  0.00  0.00    +0.000 A 
ATOM     16  C   UNL     1       5.511   4.068  16.448  0.00  0.00    +0.000 A 
ATOM     17  C   UNL     1       4.473   4.026  17.386  0.00  0.00    +0.000 A 
ATOM     18  C   UNL     1       3.110   3.549  16.972  0.00  0.00    +0.000 C 
ENDBRANCH   3  12
BRANCH   2  19
ATOM     19  S   UNL     1       1.315   4.520  20.464  0.00  0.00    +0.000 S 
ATOM     20  H   UNL     1       1.008   3.953  19.286  0.00  0.00    +0.000 HD
ENDBRANCH   2  19
TORSDOF 3
ENDMDL
MODEL 3
REMARK VINA RESULT:      -6.3      0.888      1.643
REMARK  Name = 
REMARK  5 active torsions:
REMARK  status: ('A' for Active; 'I' for Inactive)
REMARK    1  A    between atoms: C_1  and  C_2
REMARK    2  A    between atoms: C_7  and  N_8
REMARK    3  A    between atoms: C_9  and  S_10
REMARK    4  A    between atoms: N_11  and  C_12
REMARK    5  A    between atoms: C_17  and  C_18
REMARK                            x       y       z     vdW  Elec       q    Type
REMARK                         _______ _______ _______ _____ _____    ______ ____
ROOT
ATOM      1  N   UNL     1       4.375   4.067  19.252  0.00  0.00    +0.000 NA
ATOM      2  C   UNL     1       4.584   3.840  17.995  0.00  0.00    +0.000 C 
ATOM      3  N   UNL     1       5.748   4.161  17.346  0.00  0.00    +0.000 N 
ATOM      4  H   UNL     1       5.729   3.990  16.352  0.00  0.00    +0.000 HD
ENDROOT
BRANCH   1  11
ATOM      5  C   UNL     1       4.550   1.739  20.906  0.00  0.00    +0.000 C 
ATOM      6  C   UNL     1       3.295   2.555  20.785  0.00  0.00    +0.000 A 
ATOM      7  C   UNL     1       2.156   2.212  21.517  0.00  0.00    +0.000 A 
ATOM      8  C   UNL     1       1.014   2.994  21.410  0.00  0.00    +0.000 A 
ATOM      9  C   UNL     1       1.063   4.115  20.603  0.00  0.00    +0.000 A 
ATOM     10  N   UNL     1       2.156   4.493  19.899  0.00  0.00    +0.000 NA
ATOM     11  C   UNL     1       3.242   3.695  19.972  0.00  0.00    +0.000 A 
ENDBRANCH   1  11
BRANCH   3  12
ATOM     12  C   UNL     1       6.520   5.286  17.669  0.00  0.00    +0.000 A 
ATOM     13  N   UNL     1       7.428   5.194  18.666  0.00  0.00    +0.000 NA
ATOM     14  C   UNL     1       8.191   6.268  18.945  0.00  0.00    +0.000 A 
ATOM     15  C   UNL     1       8.093   7.469  18.273  0.00  0.00    +0.000 A 
ATOM     16  C   UNL     1       7.135   7.578  17.274  0.00  0.00    +0.000 A 
ATOM     17  C   UNL     1       6.312   6.486  16.973  0.00  0.00    +0.000 A 
ATOM     18  C   UNL     1       5.290   6.599  15.878  0.00  0.00    +0.000 C 
ENDBRANCH   3  12
BRANCH   2  19
ATOM     19  S   UNL     1       3.500   2.992  16.895  0.00  0.00    +0.000 S 
ATOM     20  H   UNL     1       4.499   2.418  16.205  0.00  0.00    +0.000 HD
ENDBRANCH   2  19
TORSDOF 3
ENDMDL
MODEL 4
REMARK VINA RESULT:      -6.3      2.036      6.133
REMARK  Name = 
REMARK  5 active torsions:
REMARK  status: ('A' for Active; 'I' for Inactive)
REMARK    1  A    between atoms: C_1  and  C_2
REMARK    2  A    between atoms: C_7  and  N_8
REMARK    3  A    between atoms: C_9  and  S_10
REMARK    4  A    between atoms: N_11  and  C_12
REMARK    5  A    between atoms: C_17  and  C_18
REMARK                            x       y       z     vdW  Elec       q    Type
REMARK                         _______ _______ _______ _____ _____    ______ ____
ROOT
ATOM      1  N   UNL     1       4.552   4.844  17.912  0.00  0.00    +0.000 NA
ATOM      2  C   UNL     1       3.822   5.857  18.250  0.00  0.00    +0.000 C 
ATOM      3  N   UNL     1       3.069   5.908  19.394  0.00  0.00    +0.000 N 
ATOM      4  H   UNL     1       2.496   6.734  19.477  0.00  0.00    +0.000 HD
ENDROOT
BRANCH   1  11
ATOM      5  C   UNL     1       7.331   5.404  18.297  0.00  0.00    +0.000 C 
ATOM      6  C   UNL     1       6.754   5.050  16.957  0.00  0.00    +0.000 A 
ATOM      7  C   UNL     1       7.581   4.951  15.835  0.00  0.00    +0.000 A 
ATOM      8  C   UNL     1       7.031   4.597  14.610  0.00  0.00    +0.000 A 
ATOM      9  C   UNL     1       5.679   4.317  14.558  0.00  0.00    +0.000 A 
ATOM     10  N   UNL     1       4.851   4.378  15.628  0.00  0.00    +0.000 NA
ATOM     11  C   UNL     1       5.389   4.773  16.801  0.00  0.00    +0.000 A 
ENDBRANCH   1  11
BRANCH   3  12
ATOM     12  C   UNL     1       2.448   4.781  19.952  0.00  0.00    +0.000 A 
ATOM     13  N   UNL     1       2.739   4.435  21.225  0.00  0.00    +0.000 NA
ATOM     14  C   UNL     1       2.110   3.374  21.765  0.00  0.00    +0.000 A 
ATOM     15  C   UNL     1       1.185   2.608  21.087  0.00  0.00    +0.000 A 
ATOM     16  C   UNL     1       0.912   2.939  19.766  0.00  0.00    +0.000 A 
ATOM     17  C   UNL     1       1.564   4.025  19.168  0.00  0.00    +0.000 A 
ATOM     18  C   UNL     1       1.252   4.394  17.746  0.00  0.00    +0.000 C 
ENDBRANCH   3  12
BRANCH   2  19
ATOM     19  S   UNL     1       3.721   7.398  17.399  0.00  0.00    +0.000 S 
ATOM     20  H   UNL     1       3.958   8.127  18.501  0.00  0.00    +0.000 HD
ENDBRANCH   2  19
TORSDOF 3
ENDMDL
MODEL 5
REMARK VINA RESULT:      -6.0      3.271      4.808
REMARK  Name = 
REMARK  5 active torsions:
REMARK  status: ('A' for Active; 'I' for Inactive)
REMARK    1  A    between atoms: C_1  and  C_2
REMARK    2  A    between atoms: C_7  and  N_8
REMARK    3  A    between atoms: C_9  and  S_10
REMARK    4  A    between atoms: N_11  and  C_12
REMARK    5  A    between atoms: C_17  and  C_18
REMARK                            x       y       z     vdW  Elec       q    Type
REMARK                         _______ _______ _______ _____ _____    ______ ____
ROOT
ATOM      1  N   UNL     1       5.055   5.733  16.146  0.00  0.00    +0.000 NA
ATOM      2  C   UNL     1       6.341   5.695  16.284  0.00  0.00    +0.000 C 
ATOM      3  N   UNL     1       7.217   5.558  15.239  0.00  0.00    +0.000 N 
ATOM      4  H   UNL     1       8.182   5.470  15.516  0.00  0.00    +0.000 HD
ENDROOT
BRANCH   1  11
ATOM      5  C   UNL     1       3.928   3.433  17.420  0.00  0.00    +0.000 C 
ATOM      6  C   UNL     1       3.554   4.835  17.802  0.00  0.00    +0.000 A 
ATOM      7  C   UNL     1       2.645   5.067  18.838  0.00  0.00    +0.000 A 
ATOM      8  C   UNL     1       2.332   6.373  19.193  0.00  0.00    +0.000 A 
ATOM      9  C   UNL     1       2.969   7.401  18.525  0.00  0.00    +0.000 A 
ATOM     10  N   UNL     1       3.873   7.216  17.534  0.00  0.00    +0.000 NA
ATOM     11  C   UNL     1       4.128   5.943  17.165  0.00  0.00    +0.000 A 
ENDBRANCH   1  11
BRANCH   3  12
ATOM     12  C   UNL     1       6.929   4.803  14.093  0.00  0.00    +0.000 A 
ATOM     13  N   UNL     1       5.959   3.864  14.152  0.00  0.00    +0.000 NA
ATOM     14  C   UNL     1       5.664   3.169  13.037  0.00  0.00    +0.000 A 
ATOM     15  C   UNL     1       6.306   3.354  11.830  0.00  0.00    +0.000 A 
ATOM     16  C   UNL     1       7.330   4.291  11.777  0.00  0.00    +0.000 A 
ATOM     17  C   UNL     1       7.674   5.017  12.924  0.00  0.00    +0.000 A 
ATOM     18  C   UNL     1       8.768   6.044  12.858  0.00  0.00    +0.000 C 
ENDBRANCH   3  12
BRANCH   2  19
ATOM     19  S   UNL     1       7.233   5.919  17.787  0.00  0.00    +0.000 S 
ATOM     20  H   UNL     1       7.419   7.234  17.589  0.00  0.00    +0.000 HD
ENDBRANCH   2  19
TORSDOF 3
ENDMDL
MODEL 6
REMARK VINA RESULT:      -6.0      1.226      5.811
REMARK  Name = 
REMARK  5 active torsions:
REMARK  status: ('A' for Active; 'I' for Inactive)
REMARK    1  A    between atoms: C_1  and  C_2
REMARK    2  A    between atoms: C_7  and  N_8
REMARK    3  A    between atoms: C_9  and  S_10
REMARK    4  A    between atoms: N_11  and  C_12
REMARK    5  A    between atoms: C_17  and  C_18
REMARK                            x       y       z     vdW  Elec       q    Type
REMARK                         _______ _______ _______ _____ _____    ______ ____
ROOT
ATOM      1  N   UNL     1       4.955   5.038  18.433  0.00  0.00    +0.000 NA
ATOM      2  C   UNL     1       4.727   3.982  17.721  0.00  0.00    +0.000 C 
ATOM      3  N   UNL     1       3.611   3.197  17.856  0.00  0.00    +0.000 N 
ATOM      4  H   UNL     1       3.615   2.369  17.281  0.00  0.00    +0.000 HD
ENDROOT
BRANCH   1  11
ATOM      5  C   UNL     1       4.721   7.138  16.505  0.00  0.00    +0.000 C 
ATOM      6  C   UNL     1       5.952   6.941  17.342  0.00  0.00    +0.000 A 
ATOM      7  C   UNL     1       7.035   7.815  17.224  0.00  0.00    +0.000 A 
ATOM      8  C   UNL     1       8.153   7.630  18.026  0.00  0.00    +0.000 A 
ATOM      9  C   UNL     1       8.133   6.599  18.946  0.00  0.00    +0.000 A 
ATOM     10  N   UNL     1       7.093   5.747  19.106  0.00  0.00    +0.000 NA
ATOM     11  C   UNL     1       6.034   5.907  18.284  0.00  0.00    +0.000 A 
ENDBRANCH   1  11
BRANCH   3  12
ATOM     12  C   UNL     1       2.974   2.979  19.086  0.00  0.00    +0.000 A 
ATOM     13  N   UNL     1       3.689   2.473  20.115  0.00  0.00    +0.000 NA
ATOM     14  C   UNL     1       3.078   2.302  21.302  0.00  0.00    +0.000 A 
ATOM     15  C   UNL     1       1.752   2.607  21.530  0.00  0.00    +0.000 A 
ATOM     16  C   UNL     1       1.005   3.091  20.464  0.00  0.00    +0.000 A 
ATOM     17  C   UNL     1       1.605   3.262  19.210  0.00  0.00    +0.000 A 
ATOM     18  C   UNL     1       0.801   3.806  18.064  0.00  0.00    +0.000 C 
ENDBRANCH   3  12
BRANCH   2  19
ATOM     19  S   UNL     1       5.710   3.397  16.380  0.00  0.00    +0.000 S 
ATOM     20  H   UNL     1       6.746   3.061  17.165  0.00  0.00    +0.000 HD
ENDBRANCH   2  19
TORSDOF 3
ENDMDL
MODEL 7
REMARK VINA RESULT:      -5.9      1.171      1.874
REMARK  Name = 
REMARK  5 active torsions:
REMARK  status: ('A' for Active; 'I' for Inactive)
REMARK    1  A    between atoms: C_1  and  C_2
REMARK    2  A    between atoms: C_7  and  N_8
REMARK    3  A    between atoms: C_9  and  S_10
REMARK    4  A    between atoms: N_11  and  C_12
REMARK    5  A    between atoms: C_17  and  C_18
REMARK                            x       y       z     vdW  Elec       q    Type
REMARK                         _______ _______ _______ _____ _____    ______ ____
ROOT
ATOM      1  N   UNL     1       4.778   4.968  19.121  0.00  0.00    +0.000 NA
ATOM      2  C   UNL     1       5.147   4.634  17.927  0.00  0.00    +0.000 C 
ATOM      3  N   UNL     1       6.334   5.018  17.359  0.00  0.00    +0.000 N 
ATOM      4  H   UNL     1       6.442   4.740  16.396  0.00  0.00    +0.000 HD
ENDROOT
BRANCH   1  11
ATOM      5  C   UNL     1       2.580   6.794  19.255  0.00  0.00    +0.000 C 
ATOM      6  C   UNL     1       2.529   5.419  19.856  0.00  0.00    +0.000 A 
ATOM      7  C   UNL     1       1.368   4.966  20.488  0.00  0.00    +0.000 A 
ATOM      8  C   UNL     1       1.333   3.682  21.015  0.00  0.00    +0.000 A 
ATOM      9  C   UNL     1       2.448   2.881  20.857  0.00  0.00    +0.000 A 
ATOM     10  N   UNL     1       3.582   3.275  20.229  0.00  0.00    +0.000 NA
ATOM     11  C   UNL     1       3.620   4.544  19.768  0.00  0.00    +0.000 A 
ENDBRANCH   1  11
BRANCH   3  12
ATOM     12  C   UNL     1       6.941   6.255  17.618  0.00  0.00    +0.000 A 
ATOM     13  N   UNL     1       6.594   7.326  16.871  0.00  0.00    +0.000 NA
ATOM     14  C   UNL     1       7.153   8.518  17.152  0.00  0.00    +0.000 A 
ATOM     15  C   UNL     1       8.075   8.710  18.160  0.00  0.00    +0.000 A 
ATOM     16  C   UNL     1       8.462   7.603  18.905  0.00  0.00    +0.000 A 
ATOM     17  C   UNL     1       7.913   6.346  18.625  0.00  0.00    +0.000 A 
ATOM     18  C   UNL     1       8.318   5.155  19.445  0.00  0.00    +0.000 C 
ENDBRANCH   3  12
BRANCH   2  19
ATOM     19  S   UNL     1       4.287   3.548  16.837  0.00  0.00    +0.000 S 
ATOM     20  H   UNL     1       3.103   3.724  17.447  0.00  0.00    +0.000 HD
ENDBRANCH   2  19
TORSDOF 3
ENDMDL
MODEL 8
REMARK VINA RESULT:      -5.9      3.053      4.290
REMARK  Name = 
REMARK  5 active torsions:
REMARK  status: ('A' for Active; 'I' for Inactive)
REMARK    1  A    between atoms: C_1  and  C_2
REMARK    2  A    between atoms: C_7  and  N_8
REMARK    3  A    between atoms: C_9  and  S_10
REMARK    4  A    between atoms: N_11  and  C_12
REMARK    5  A    between atoms: C_17  and  C_18
REMARK                            x       y       z     vdW  Elec       q    Type
REMARK                         _______ _______ _______ _____ _____    ______ ____
ROOT
ATOM      1  N   UNL     1       5.168   5.119  16.671  0.00  0.00    +0.000 NA
ATOM      2  C   UNL     1       6.433   5.381  16.604  0.00  0.00    +0.000 C 
ATOM      3  N   UNL     1       7.120   5.530  15.427  0.00  0.00    +0.000 N 
ATOM      4  H   UNL     1       8.114   5.657  15.540  0.00  0.00    +0.000 HD
ENDROOT
BRANCH   1  11
ATOM      5  C   UNL     1       3.689   7.431  17.481  0.00  0.00    +0.000 C 
ATOM      6  C   UNL     1       3.683   6.150  18.264  0.00  0.00    +0.000 A 
ATOM      7  C   UNL     1       2.913   6.034  19.424  0.00  0.00    +0.000 A 
ATOM      8  C   UNL     1       2.902   4.832  20.119  0.00  0.00    +0.000 A 
ATOM      9  C   UNL     1       3.631   3.776  19.609  0.00  0.00    +0.000 A 
ATOM     10  N   UNL     1       4.369   3.842  18.475  0.00  0.00    +0.000 NA
ATOM     11  C   UNL     1       4.412   5.031  17.838  0.00  0.00    +0.000 A 
ENDBRANCH   1  11
BRANCH   3  12
ATOM     12  C   UNL     1       6.813   4.808  14.265  0.00  0.00    +0.000 A 
ATOM     13  N   UNL     1       5.783   3.933  14.289  0.00  0.00    +0.000 NA
ATOM     14  C   UNL     1       5.472   3.271  13.159  0.00  0.00    +0.000 A 
ATOM     15  C   UNL     1       6.153   3.429  11.969  0.00  0.00    +0.000 A 
ATOM     16  C   UNL     1       7.235   4.299  11.952  0.00  0.00    +0.000 A 
ATOM     17  C   UNL     1       7.597   4.988  13.116  0.00  0.00    +0.000 A 
ATOM     18  C   UNL     1       8.755   5.944  13.090  0.00  0.00    +0.000 C 
ENDBRANCH   3  12
BRANCH   2  19
ATOM     19  S   UNL     1       7.502   5.709  17.966  0.00  0.00    +0.000 S 
ATOM     20  H   UNL     1       7.966   4.450  18.025  0.00  0.00    +0.000 HD
ENDBRANCH   2  19
TORSDOF 3
ENDMDL
MODEL 9
REMARK VINA RESULT:      -5.9      2.771      3.632
REMARK  Name = 
REMARK  5 active torsions:
REMARK  status: ('A' for Active; 'I' for Inactive)
REMARK    1  A    between atoms: C_1  and  C_2
REMARK    2  A    between atoms: C_7  and  N_8
REMARK    3  A    between atoms: C_9  and  S_10
REMARK    4  A    between atoms: N_11  and  C_12
REMARK    5  A    between atoms: C_17  and  C_18
REMARK                            x       y       z     vdW  Elec       q    Type
REMARK                         _______ _______ _______ _____ _____    ______ ____
ROOT
ATOM      1  N   UNL     1       3.074   6.918  19.640  0.00  0.00    +0.000 NA
ATOM      2  C   UNL     1       3.028   5.852  18.907  0.00  0.00    +0.000 C 
ATOM      3  N   UNL     1       4.102   5.028  18.692  0.00  0.00    +0.000 N 
ATOM      4  H   UNL     1       3.927   4.280  18.038  0.00  0.00    +0.000 HD
ENDROOT
BRANCH   1  11
ATOM      5  C   UNL     1       2.371   8.952  17.755  0.00  0.00    +0.000 C 
ATOM      6  C   UNL     1       1.632   8.755  19.048  0.00  0.00    +0.000 A 
ATOM      7  C   UNL     1       0.534   9.558  19.364  0.00  0.00    +0.000 A 
ATOM      8  C   UNL     1      -0.150   9.342  20.553  0.00  0.00    +0.000 A 
ATOM      9  C   UNL     1       0.265   8.305  21.366  0.00  0.00    +0.000 A 
ATOM     10  N   UNL     1       1.308   7.490  21.081  0.00  0.00    +0.000 NA
ATOM     11  C   UNL     1       1.996   7.744  19.948  0.00  0.00    +0.000 A 
ENDBRANCH   1  11
BRANCH   3  12
ATOM     12  C   UNL     1       5.421   5.496  18.611  0.00  0.00    +0.000 A 
ATOM     13  N   UNL     1       6.263   5.268  19.643  0.00  0.00    +0.000 NA
ATOM     14  C   UNL     1       7.538   5.687  19.541  0.00  0.00    +0.000 A 
ATOM     15  C   UNL     1       8.038   6.350  18.439  0.00  0.00    +0.000 A 
ATOM     16  C   UNL     1       7.165   6.620  17.393  0.00  0.00    +0.000 A 
ATOM     17  C   UNL     1       5.828   6.214  17.476  0.00  0.00    +0.000 A 
ATOM     18  C   UNL     1       4.891   6.488  16.335  0.00  0.00    +0.000 C 
ENDBRANCH   3  12
BRANCH   2  19
ATOM     19  S   UNL     1       1.593   5.176  18.140  0.00  0.00    +0.000 S 
ATOM     20  H   UNL     1       1.301   6.308  17.478  0.00  0.00    +0.000 HD
ENDBRANCH   2  19
TORSDOF 3
ENDMDL
