MODEL 1
REMARK VINA RESULT:      -8.5      0.000      0.000
REMARK  Name = 
REMARK  5 active torsions:
REMARK  status: ('A' for Active; 'I' for Inactive)
REMARK    1  A    between atoms: C_1  and  C_2
REMARK    2  A    between atoms: C_2  and  C_3
REMARK    3  A    between atoms: C_9  and  C_10
REMARK    4  A    between atoms: N_12  and  C_13
REMARK    5  A    between atoms: N_21  and  C_22
REMARK                            x       y       z     vdW  Elec       q    Type
REMARK                         _______ _______ _______ _____ _____    ______ ____
ROOT
ATOM      1  C   UNL     1       3.815   0.674  18.841  0.00  0.00    +0.000 C 
ATOM      2  C   UNL     1       3.445   2.133  19.154  0.00  0.00    +0.000 C 
ATOM      3  C   UNL     1       4.152   2.536  20.467  0.00  0.00    +0.000 C 
ATOM      4  C   UNL     1       1.924   2.268  19.282  0.00  0.00    +0.000 C 
ATOM      5  C   UNL     1       1.556   3.706  19.562  0.00  0.00    +0.000 C 
ATOM      6  O   UNL     1       0.677   3.992  20.372  0.00  0.00    +0.000 OA
ATOM      7  C   UNL     1       2.281   4.776  18.797  0.00  0.00    +0.000 A 
ATOM      8  C   UNL     1       1.855   6.156  18.914  0.00  0.00    +0.000 A 
ATOM      9  C   UNL     1       2.482   7.153  18.270  0.00  0.00    +0.000 A 
ATOM     10  C   UNL     1       3.646   6.815  17.400  0.00  0.00    +0.000 A 
ATOM     11  O   UNL     1       4.203   7.728  16.772  0.00  0.00    +0.000 OA
ATOM     12  N   UNL     1       4.034   5.460  17.326  0.00  0.00    +0.000 N 
ATOM     13  C   UNL     1       3.348   4.453  18.032  0.00  0.00    +0.000 A 
ATOM     14  C   UNL     1       3.901   3.035  17.986  0.00  0.00    +0.000 C 
ENDROOT
BRANCH  12  15
ATOM     15  C   UNL     1       5.146   5.188  16.466  0.00  0.00    +0.000 A 
ATOM     16  C   UNL     1       4.924   4.790  15.139  0.00  0.00    +0.000 A 
ATOM     17  C   UNL     1       5.998   4.473  14.303  0.00  0.00    +0.000 A 
ATOM     18  C   UNL     1       7.302   4.551  14.788  0.00  0.00    +0.000 A 
ATOM     19  C   UNL     1       7.534   4.951  16.103  0.00  0.00    +0.000 A 
ATOM     20  C   UNL     1       6.460   5.265  16.941  0.00  0.00    +0.000 A 
ENDBRANCH  12  15
BRANCH   9  21
ATOM     21  C   UNL     1       2.002   8.565  18.463  0.00  0.00    +0.000 C 
ATOM     22  O   UNL     1       2.200   9.435  17.621  0.00  0.00    +0.000 OA
ATOM     23  N   UNL     1       1.320   8.833  19.625  0.00  0.00    +0.000 N 
ATOM     24  H   UNL     1       1.285   8.112  20.355  0.00  0.00    +0.000 HD
BRANCH  23  25
ATOM     25  C   UNL     1       0.809  10.157  19.948  0.00  0.00    +0.000 C 
ATOM     26  C   UNL     1      -0.596  10.391  19.391  0.00  0.00    +0.000 C 
ATOM     27  C   UNL     1      -1.167  11.611  20.094  0.00  0.00    +0.000 C 
ATOM     28  S   UNL     1      -0.695  11.405  21.831  0.00  0.00    +0.000 S 
ATOM     29  C   UNL     1       0.670  10.353  21.450  0.00  0.00    +0.000 C 
ATOM     30  O   UNL     1       1.396   9.877  22.309  0.00  0.00    +0.000 OA
ENDBRANCH  23  25
ENDBRANCH   9  21
TORSDOF 3
ENDMDL
MODEL 2
REMARK VINA RESULT:      -8.0      1.452      1.749
REMARK  Name = 
REMARK  5 active torsions:
REMARK  status: ('A' for Active; 'I' for Inactive)
REMARK    1  A    between atoms: C_1  and  C_2
REMARK    2  A    between atoms: C_2  and  C_3
REMARK    3  A    between atoms: C_9  and  C_10
REMARK    4  A    between atoms: N_12  and  C_13
REMARK    5  A    between atoms: N_21  and  C_22
REMARK                            x       y       z     vdW  Elec       q    Type
REMARK                         _______ _______ _______ _____ _____    ______ ____
ROOT
ATOM      1  C   UNL     1       4.015   0.704  18.593  0.00  0.00    +0.000 C 
ATOM      2  C   UNL     1       3.570   2.041  19.208  0.00  0.00    +0.000 C 
ATOM      3  C   UNL     1       4.317   2.227  20.547  0.00  0.00    +0.000 C 
ATOM      4  C   UNL     1       2.052   2.037  19.420  0.00  0.00    +0.000 C 
ATOM      5  C   UNL     1       1.608   3.360  19.997  0.00  0.00    +0.000 C 
ATOM      6  O   UNL     1       0.756   3.415  20.881  0.00  0.00    +0.000 OA
ATOM      7  C   UNL     1       2.221   4.610  19.436  0.00  0.00    +0.000 A 
ATOM      8  C   UNL     1       1.715   5.905  19.844  0.00  0.00    +0.000 A 
ATOM      9  C   UNL     1       2.242   7.052  19.390  0.00  0.00    +0.000 A 
ATOM     10  C   UNL     1       3.379   6.980  18.426  0.00  0.00    +0.000 A 
ATOM     11  O   UNL     1       3.842   8.037  17.973  0.00  0.00    +0.000 OA
ATOM     12  N   UNL     1       3.848   5.698  18.065  0.00  0.00    +0.000 N 
ATOM     13  C   UNL     1       3.266   4.524  18.580  0.00  0.00    +0.000 A 
ATOM     14  C   UNL     1       3.905   3.187  18.229  0.00  0.00    +0.000 C 
ENDROOT
BRANCH  12  15
ATOM     15  C   UNL     1       4.928   5.684  17.125  0.00  0.00    +0.000 A 
ATOM     16  C   UNL     1       4.692   5.316  15.792  0.00  0.00    +0.000 A 
ATOM     17  C   UNL     1       5.745   5.250  14.876  0.00  0.00    +0.000 A 
ATOM     18  C   UNL     1       7.042   5.549  15.286  0.00  0.00    +0.000 A 
ATOM     19  C   UNL     1       7.287   5.922  16.607  0.00  0.00    +0.000 A 
ATOM     20  C   UNL     1       6.235   5.986  17.526  0.00  0.00    +0.000 A 
ENDBRANCH  12  15
BRANCH   9  21
ATOM     21  C   UNL     1       1.684   8.359  19.882  0.00  0.00    +0.000 C 
ATOM     22  O   UNL     1       1.454   8.556  21.072  0.00  0.00    +0.000 OA
ATOM     23  N   UNL     1       1.452   9.328  18.937  0.00  0.00    +0.000 N 
ATOM     24  H   UNL     1       1.539   9.082  17.945  0.00  0.00    +0.000 HD
BRANCH  23  25
ATOM     25  C   UNL     1       0.904  10.635  19.271  0.00  0.00    +0.000 C 
ATOM     26  C   UNL     1       1.665  11.776  18.594  0.00  0.00    +0.000 C 
ATOM     27  C   UNL     1       0.800  13.022  18.693  0.00  0.00    +0.000 C 
ATOM     28  S   UNL     1      -0.878  12.448  18.321  0.00  0.00    +0.000 S 
ATOM     29  C   UNL     1      -0.530  10.781  18.785  0.00  0.00    +0.000 C 
ATOM     30  O   UNL     1      -1.365   9.893  18.725  0.00  0.00    +0.000 OA
ENDBRANCH  23  25
ENDBRANCH   9  21
TORSDOF 3
ENDMDL
MODEL 3
REMARK VINA RESULT:      -7.4      1.094      1.471
REMARK  Name = 
REMARK  5 active torsions:
REMARK  status: ('A' for Active; 'I' for Inactive)
REMARK    1  A    between atoms: C_1  and  C_2
REMARK    2  A    between atoms: C_2  and  C_3
REMARK    3  A    between atoms: C_9  and  C_10
REMARK    4  A    between atoms: N_12  and  C_13
REMARK    5  A    between atoms: N_21  and  C_22
REMARK                            x       y       z     vdW  Elec       q    Type
REMARK                         _______ _______ _______ _____ _____    ______ ____
ROOT
ATOM      1  C   UNL     1       4.059   0.669  18.657  0.00  0.00    +0.000 C 
ATOM      2  C   UNL     1       3.589   2.048  19.149  0.00  0.00    +0.000 C 
ATOM      3  C   UNL     1       4.280   2.336  20.501  0.00  0.00    +0.000 C 
ATOM      4  C   UNL     1       2.064   2.056  19.298  0.00  0.00    +0.000 C 
ATOM      5  C   UNL     1       1.597   3.417  19.754  0.00  0.00    +0.000 C 
ATOM      6  O   UNL     1       0.709   3.537  20.595  0.00  0.00    +0.000 OA
ATOM      7  C   UNL     1       2.234   4.623  19.126  0.00  0.00    +0.000 A 
ATOM      8  C   UNL     1       1.712   5.944  19.414  0.00  0.00    +0.000 A 
ATOM      9  C   UNL     1       2.259   7.055  18.897  0.00  0.00    +0.000 A 
ATOM     10  C   UNL     1       3.434   6.913  17.989  0.00  0.00    +0.000 A 
ATOM     11  O   UNL     1       3.917   7.934  17.478  0.00  0.00    +0.000 OA
ATOM     12  N   UNL     1       3.917   5.608  17.746  0.00  0.00    +0.000 N 
ATOM     13  C   UNL     1       3.313   4.475  18.323  0.00  0.00    +0.000 A 
ATOM     14  C   UNL     1       3.966   3.117  18.101  0.00  0.00    +0.000 C 
ENDROOT
BRANCH  12  15
ATOM     15  C   UNL     1       5.035   5.526  16.856  0.00  0.00    +0.000 A 
ATOM     16  C   UNL     1       4.843   5.129  15.524  0.00  0.00    +0.000 A 
ATOM     17  C   UNL     1       5.931   4.996  14.658  0.00  0.00    +0.000 A 
ATOM     18  C   UNL     1       7.221   5.258  15.117  0.00  0.00    +0.000 A 
ATOM     19  C   UNL     1       7.423   5.658  16.437  0.00  0.00    +0.000 A 
ATOM     20  C   UNL     1       6.335   5.789  17.306  0.00  0.00    +0.000 A 
ENDBRANCH  12  15
BRANCH   9  21
ATOM     21  C   UNL     1       1.681   8.394  19.265  0.00  0.00    +0.000 C 
ATOM     22  O   UNL     1       1.712   8.815  20.418  0.00  0.00    +0.000 OA
ATOM     23  N   UNL     1       1.126   9.130  18.248  0.00  0.00    +0.000 N 
ATOM     24  H   UNL     1       1.010   8.691  17.327  0.00  0.00    +0.000 HD
BRANCH  23  25
ATOM     25  C   UNL     1       0.522  10.437  18.463  0.00  0.00    +0.000 C 
ATOM     26  C   UNL     1      -0.270  10.505  19.769  0.00  0.00    +0.000 C 
ATOM     27  C   UNL     1      -0.521  11.972  20.074  0.00  0.00    +0.000 C 
ATOM     28  S   UNL     1       1.049  12.795  19.697  0.00  0.00    +0.000 S 
ATOM     29  C   UNL     1       1.576  11.526  18.589  0.00  0.00    +0.000 C 
ATOM     30  O   UNL     1       2.647  11.564  18.005  0.00  0.00    +0.000 OA
ENDBRANCH  23  25
ENDBRANCH   9  21
TORSDOF 3
ENDMDL
MODEL 4
REMARK VINA RESULT:      -7.2      3.452      9.847
REMARK  Name = 
REMARK  5 active torsions:
REMARK  status: ('A' for Active; 'I' for Inactive)
REMARK    1  A    between atoms: C_1  and  C_2
REMARK    2  A    between atoms: C_2  and  C_3
REMARK    3  A    between atoms: C_9  and  C_10
REMARK    4  A    between atoms: N_12  and  C_13
REMARK    5  A    between atoms: N_21  and  C_22
REMARK                            x       y       z     vdW  Elec       q    Type
REMARK                         _______ _______ _______ _____ _____    ______ ____
ROOT
ATOM      1  C   UNL     1       1.329  16.936  21.161  0.00  0.00    +0.000 C 
ATOM      2  C   UNL     1       1.780  15.542  20.695  0.00  0.00    +0.000 C 
ATOM      3  C   UNL     1       2.846  15.025  21.686  0.00  0.00    +0.000 C 
ATOM      4  C   UNL     1       2.346  15.627  19.273  0.00  0.00    +0.000 C 
ATOM      5  C   UNL     1       2.763  14.254  18.802  0.00  0.00    +0.000 C 
ATOM      6  O   UNL     1       3.800  14.089  18.163  0.00  0.00    +0.000 OA
ATOM      7  C   UNL     1       1.855  13.100  19.114  0.00  0.00    +0.000 A 
ATOM      8  C   UNL     1       2.131  11.795  18.549  0.00  0.00    +0.000 A 
ATOM      9  C   UNL     1       1.365  10.726  18.814  0.00  0.00    +0.000 A 
ATOM     10  C   UNL     1       0.186  10.902  19.713  0.00  0.00    +0.000 A 
ATOM     11  O   UNL     1      -0.547   9.926  19.928  0.00  0.00    +0.000 OA
ATOM     12  N   UNL     1      -0.038  12.188  20.251  0.00  0.00    +0.000 N 
ATOM     13  C   UNL     1       0.805  13.275  19.949  0.00  0.00    +0.000 A 
ATOM     14  C   UNL     1       0.559  14.598  20.660  0.00  0.00    +0.000 C 
ENDROOT
BRANCH  12  15
ATOM     15  C   UNL     1      -1.190  12.307  21.092  0.00  0.00    +0.000 A 
ATOM     16  C   UNL     1      -1.102  11.975  22.452  0.00  0.00    +0.000 A 
ATOM     17  C   UNL     1      -2.229  12.039  23.274  0.00  0.00    +0.000 A 
ATOM     18  C   UNL     1      -3.455  12.434  22.743  0.00  0.00    +0.000 A 
ATOM     19  C   UNL     1      -3.553  12.772  21.394  0.00  0.00    +0.000 A 
ATOM     20  C   UNL     1      -2.426  12.705  20.569  0.00  0.00    +0.000 A 
ENDBRANCH  12  15
BRANCH   9  21
ATOM     21  C   UNL     1       1.731   9.396  18.216  0.00  0.00    +0.000 C 
ATOM     22  O   UNL     1       1.838   9.241  17.003  0.00  0.00    +0.000 OA
ATOM     23  N   UNL     1       1.952   8.362  19.093  0.00  0.00    +0.000 N 
ATOM     24  H   UNL     1       1.732   8.501  20.085  0.00  0.00    +0.000 HD
BRANCH  23  25
ATOM     25  C   UNL     1       2.303   7.020  18.652  0.00  0.00    +0.000 C 
ATOM     26  C   UNL     1       3.696   6.959  18.023  0.00  0.00    +0.000 C 
ATOM     27  C   UNL     1       4.102   5.496  17.958  0.00  0.00    +0.000 C 
ATOM     28  S   UNL     1       3.586   4.804  19.551  0.00  0.00    +0.000 S 
ATOM     29  C   UNL     1       2.360   6.045  19.818  0.00  0.00    +0.000 C 
ATOM     30  O   UNL     1       1.657   6.073  20.816  0.00  0.00    +0.000 OA
ENDBRANCH  23  25
ENDBRANCH   9  21
TORSDOF 3
ENDMDL
MODEL 5
REMARK VINA RESULT:      -7.2      1.162      1.634
REMARK  Name = 
REMARK  5 active torsions:
REMARK  status: ('A' for Active; 'I' for Inactive)
REMARK    1  A    between atoms: C_1  and  C_2
REMARK    2  A    between atoms: C_2  and  C_3
REMARK    3  A    between atoms: C_9  and  C_10
REMARK    4  A    between atoms: N_12  and  C_13
REMARK    5  A    between atoms: N_21  and  C_22
REMARK                            x       y       z     vdW  Elec       q    Type
REMARK                         _______ _______ _______ _____ _____    ______ ____
ROOT
ATOM      1  C   UNL     1       3.761   0.868  18.911  0.00  0.00    +0.000 C 
ATOM      2  C   UNL     1       3.394   2.339  19.169  0.00  0.00    +0.000 C 
ATOM      3  C   UNL     1       4.100   2.790  20.467  0.00  0.00    +0.000 C 
ATOM      4  C   UNL     1       1.873   2.482  19.291  0.00  0.00    +0.000 C 
ATOM      5  C   UNL     1       1.508   3.930  19.517  0.00  0.00    +0.000 C 
ATOM      6  O   UNL     1       0.628   4.248  20.314  0.00  0.00    +0.000 OA
ATOM      7  C   UNL     1       2.235   4.968  18.713  0.00  0.00    +0.000 A 
ATOM      8  C   UNL     1       1.811   6.353  18.777  0.00  0.00    +0.000 A 
ATOM      9  C   UNL     1       2.441   7.324  18.097  0.00  0.00    +0.000 A 
ATOM     10  C   UNL     1       3.605   6.952  17.241  0.00  0.00    +0.000 A 
ATOM     11  O   UNL     1       4.164   7.839  16.580  0.00  0.00    +0.000 OA
ATOM     12  N   UNL     1       3.991   5.593  17.218  0.00  0.00    +0.000 N 
ATOM     13  C   UNL     1       3.302   4.615  17.961  0.00  0.00    +0.000 A 
ATOM     14  C   UNL     1       3.852   3.195  17.969  0.00  0.00    +0.000 C 
ENDROOT
BRANCH  12  15
ATOM     15  C   UNL     1       5.102   5.287  16.369  0.00  0.00    +0.000 A 
ATOM     16  C   UNL     1       6.411   5.515  16.819  0.00  0.00    +0.000 A 
ATOM     17  C   UNL     1       7.503   5.267  15.984  0.00  0.00    +0.000 A 
ATOM     18  C   UNL     1       7.295   4.790  14.691  0.00  0.00    +0.000 A 
ATOM     19  C   UNL     1       5.998   4.554  14.236  0.00  0.00    +0.000 A 
ATOM     20  C   UNL     1       4.904   4.805  15.070  0.00  0.00    +0.000 A 
ENDBRANCH  12  15
BRANCH   9  21
ATOM     21  C   UNL     1       1.964   8.743  18.237  0.00  0.00    +0.000 C 
ATOM     22  O   UNL     1       2.136   9.573  17.349  0.00  0.00    +0.000 OA
ATOM     23  N   UNL     1       1.315   9.065  19.403  0.00  0.00    +0.000 N 
ATOM     24  H   UNL     1       1.301   8.380  20.167  0.00  0.00    +0.000 HD
BRANCH  23  25
ATOM     25  C   UNL     1       0.810  10.403  19.677  0.00  0.00    +0.000 C 
ATOM     26  C   UNL     1       1.726  11.496  19.126  0.00  0.00    +0.000 C 
ATOM     27  C   UNL     1       0.937  12.794  19.124  0.00  0.00    +0.000 C 
ATOM     28  S   UNL     1      -0.707  12.332  18.519  0.00  0.00    +0.000 S 
ATOM     29  C   UNL     1      -0.532  10.644  19.003  0.00  0.00    +0.000 C 
ATOM     30  O   UNL     1      -1.405   9.811  18.818  0.00  0.00    +0.000 OA
ENDBRANCH  23  25
ENDBRANCH   9  21
TORSDOF 3
ENDMDL
MODEL 6
REMARK VINA RESULT:      -7.0      3.262      8.721
REMARK  Name = 
REMARK  5 active torsions:
REMARK  status: ('A' for Active; 'I' for Inactive)
REMARK    1  A    between atoms: C_1  and  C_2
REMARK    2  A    between atoms: C_2  and  C_3
REMARK    3  A    between atoms: C_9  and  C_10
REMARK    4  A    between atoms: N_12  and  C_13
REMARK    5  A    between atoms: N_21  and  C_22
REMARK                            x       y       z     vdW  Elec       q    Type
REMARK                         _______ _______ _______ _____ _____    ______ ____
ROOT
ATOM      1  C   UNL     1      -1.743  13.611  23.543  0.00  0.00    +0.000 C 
ATOM      2  C   UNL     1      -1.382  12.507  22.536  0.00  0.00    +0.000 C 
ATOM      3  C   UNL     1      -2.610  12.262  21.631  0.00  0.00    +0.000 C 
ATOM      4  C   UNL     1      -0.985  11.230  23.283  0.00  0.00    +0.000 C 
ATOM      5  C   UNL     1      -0.603  10.152  22.296  0.00  0.00    +0.000 C 
ATOM      6  O   UNL     1      -0.948   8.984  22.464  0.00  0.00    +0.000 OA
ATOM      7  C   UNL     1       0.236  10.549  21.117  0.00  0.00    +0.000 A 
ATOM      8  C   UNL     1       0.759   9.528  20.231  0.00  0.00    +0.000 A 
ATOM      9  C   UNL     1       1.496   9.829  19.151  0.00  0.00    +0.000 A 
ATOM     10  C   UNL     1       1.788  11.265  18.868  0.00  0.00    +0.000 A 
ATOM     11  O   UNL     1       2.502  11.545  17.894  0.00  0.00    +0.000 OA
ATOM     12  N   UNL     1       1.249  12.227  19.750  0.00  0.00    +0.000 N 
ATOM     13  C   UNL     1       0.472  11.857  20.865  0.00  0.00    +0.000 A 
ATOM     14  C   UNL     1      -0.166  12.960  21.699  0.00  0.00    +0.000 C 
ENDROOT
BRANCH  12  15
ATOM     15  C   UNL     1       1.572  13.587  19.445  0.00  0.00    +0.000 A 
ATOM     16  C   UNL     1       2.823  14.108  19.806  0.00  0.00    +0.000 A 
ATOM     17  C   UNL     1       3.134  15.448  19.559  0.00  0.00    +0.000 A 
ATOM     18  C   UNL     1       2.196  16.277  18.949  0.00  0.00    +0.000 A 
ATOM     19  C   UNL     1       0.952  15.768  18.580  0.00  0.00    +0.000 A 
ATOM     20  C   UNL     1       0.638  14.429  18.829  0.00  0.00    +0.000 A 
ENDBRANCH  12  15
BRANCH   9  21
ATOM     21  C   UNL     1       1.978   8.718  18.260  0.00  0.00    +0.000 C 
ATOM     22  O   UNL     1       1.957   8.815  17.037  0.00  0.00    +0.000 OA
ATOM     23  N   UNL     1       2.455   7.589  18.882  0.00  0.00    +0.000 N 
ATOM     24  H   UNL     1       2.340   7.499  19.897  0.00  0.00    +0.000 HD
BRANCH  23  25
ATOM     25  C   UNL     1       2.943   6.433  18.144  0.00  0.00    +0.000 C 
ATOM     26  C   UNL     1       4.376   6.624  17.644  0.00  0.00    +0.000 C 
ATOM     27  C   UNL     1       4.903   5.256  17.242  0.00  0.00    +0.000 C 
ATOM     28  S   UNL     1       4.337   4.141  18.553  0.00  0.00    +0.000 S 
ATOM     29  C   UNL     1       2.999   5.192  19.022  0.00  0.00    +0.000 C 
ATOM     30  O   UNL     1       2.228   4.915  19.928  0.00  0.00    +0.000 OA
ENDBRANCH  23  25
ENDBRANCH   9  21
TORSDOF 3
ENDMDL
MODEL 7
REMARK VINA RESULT:      -6.9      3.505      9.513
REMARK  Name = 
REMARK  5 active torsions:
REMARK  status: ('A' for Active; 'I' for Inactive)
REMARK    1  A    between atoms: C_1  and  C_2
REMARK    2  A    between atoms: C_2  and  C_3
REMARK    3  A    between atoms: C_9  and  C_10
REMARK    4  A    between atoms: N_12  and  C_13
REMARK    5  A    between atoms: N_21  and  C_22
REMARK                            x       y       z     vdW  Elec       q    Type
REMARK                         _______ _______ _______ _____ _____    ______ ____
ROOT
ATOM      1  C   UNL     1      -0.453  16.528  18.552  0.00  0.00    +0.000 C 
ATOM      2  C   UNL     1      -0.009  15.251  19.285  0.00  0.00    +0.000 C 
ATOM      3  C   UNL     1      -0.422  15.381  20.768  0.00  0.00    +0.000 C 
ATOM      4  C   UNL     1       1.506  15.073  19.148  0.00  0.00    +0.000 C 
ATOM      5  C   UNL     1       1.941  13.805  19.843  0.00  0.00    +0.000 C 
ATOM      6  O   UNL     1       2.974  13.766  20.509  0.00  0.00    +0.000 OA
ATOM      7  C   UNL     1       1.086  12.583  19.670  0.00  0.00    +0.000 A 
ATOM      8  C   UNL     1       1.543  11.308  20.185  0.00  0.00    +0.000 A 
ATOM      9  C   UNL     1       0.807  10.190  20.077  0.00  0.00    +0.000 A 
ATOM     10  C   UNL     1      -0.517  10.274  19.394  0.00  0.00    +0.000 A 
ATOM     11  O   UNL     1      -1.182   9.237  19.257  0.00  0.00    +0.000 OA
ATOM     12  N   UNL     1      -0.928  11.539  18.920  0.00  0.00    +0.000 N 
ATOM     13  C   UNL     1      -0.122  12.684  19.068  0.00  0.00    +0.000 A 
ATOM     14  C   UNL     1      -0.688  14.028  18.631  0.00  0.00    +0.000 C 
ENDROOT
BRANCH  12  15
ATOM     15  C   UNL     1      -2.197  11.562  18.258  0.00  0.00    +0.000 A 
ATOM     16  C   UNL     1      -3.359  11.870  18.982  0.00  0.00    +0.000 A 
ATOM     17  C   UNL     1      -4.610  11.848  18.361  0.00  0.00    +0.000 A 
ATOM     18  C   UNL     1      -4.710  11.517  17.011  0.00  0.00    +0.000 A 
ATOM     19  C   UNL     1      -3.561  11.215  16.281  0.00  0.00    +0.000 A 
ATOM     20  C   UNL     1      -2.309  11.234  16.902  0.00  0.00    +0.000 A 
ENDBRANCH  12  15
BRANCH   9  21
ATOM     21  C   UNL     1       1.333   8.909  20.662  0.00  0.00    +0.000 C 
ATOM     22  O   UNL     1       1.346   8.709  21.873  0.00  0.00    +0.000 OA
ATOM     23  N   UNL     1       1.789   7.965  19.775  0.00  0.00    +0.000 N 
ATOM     24  H   UNL     1       1.876   8.219  18.784  0.00  0.00    +0.000 HD
BRANCH  23  25
ATOM     25  C   UNL     1       2.335   6.684  20.202  0.00  0.00    +0.000 C 
ATOM     26  C   UNL     1       1.243   5.682  20.579  0.00  0.00    +0.000 C 
ATOM     27  C   UNL     1       1.886   4.307  20.632  0.00  0.00    +0.000 C 
ATOM     28  S   UNL     1       2.974   4.251  19.184  0.00  0.00    +0.000 S 
ATOM     29  C   UNL     1       3.115   6.008  19.085  0.00  0.00    +0.000 C 
ATOM     30  O   UNL     1       3.777   6.569  18.226  0.00  0.00    +0.000 OA
ENDBRANCH  23  25
ENDBRANCH   9  21
TORSDOF 3
ENDMDL
MODEL 8
REMARK VINA RESULT:      -6.8      9.179     10.907
REMARK  Name = 
REMARK  5 active torsions:
REMARK  status: ('A' for Active; 'I' for Inactive)
REMARK    1  A    between atoms: C_1  and  C_2
REMARK    2  A    between atoms: C_2  and  C_3
REMARK    3  A    between atoms: C_9  and  C_10
REMARK    4  A    between atoms: N_12  and  C_13
REMARK    5  A    between atoms: N_21  and  C_22
REMARK                            x       y       z     vdW  Elec       q    Type
REMARK                         _______ _______ _______ _____ _____    ______ ____
ROOT
ATOM      1  C   UNL     1      12.021  11.913  20.039  0.00  0.00    +0.000 C 
ATOM      2  C   UNL     1      10.768  12.710  19.641  0.00  0.00    +0.000 C 
ATOM      3  C   UNL     1       9.881  11.802  18.760  0.00  0.00    +0.000 C 
ATOM      4  C   UNL     1      11.176  13.980  18.886  0.00  0.00    +0.000 C 
ATOM      5  C   UNL     1       9.949  14.779  18.518  0.00  0.00    +0.000 C 
ATOM      6  O   UNL     1       9.851  15.325  17.421  0.00  0.00    +0.000 OA
ATOM      7  C   UNL     1       8.864  14.909  19.547  0.00  0.00    +0.000 A 
ATOM      8  C   UNL     1       7.743  15.793  19.301  0.00  0.00    +0.000 A 
ATOM      9  C   UNL     1       6.735  15.928  20.178  0.00  0.00    +0.000 A 
ATOM     10  C   UNL     1       6.788  15.147  21.447  0.00  0.00    +0.000 A 
ATOM     11  O   UNL     1       5.880  15.300  22.277  0.00  0.00    +0.000 OA
ATOM     12  N   UNL     1       7.893  14.289  21.640  0.00  0.00    +0.000 N 
ATOM     13  C   UNL     1       8.919  14.175  20.682  0.00  0.00    +0.000 A 
ATOM     14  C   UNL     1      10.014  13.143  20.916  0.00  0.00    +0.000 C 
ENDROOT
BRANCH  12  15
ATOM     15  C   UNL     1       7.904  13.575  22.881  0.00  0.00    +0.000 A 
ATOM     16  C   UNL     1       8.497  14.150  24.015  0.00  0.00    +0.000 A 
ATOM     17  C   UNL     1       8.559  13.444  25.219  0.00  0.00    +0.000 A 
ATOM     18  C   UNL     1       8.030  12.158  25.299  0.00  0.00    +0.000 A 
ATOM     19  C   UNL     1       7.433  11.579  24.180  0.00  0.00    +0.000 A 
ATOM     20  C   UNL     1       7.373  12.283  22.973  0.00  0.00    +0.000 A 
ENDBRANCH  12  15
BRANCH   9  21
ATOM     21  C   UNL     1       5.589  16.842  19.840  0.00  0.00    +0.000 C 
ATOM     22  O   UNL     1       5.757  18.041  19.641  0.00  0.00    +0.000 OA
ATOM     23  N   UNL     1       4.345  16.268  19.754  0.00  0.00    +0.000 N 
ATOM     24  H   UNL     1       4.230  15.291  20.048  0.00  0.00    +0.000 HD
BRANCH  23  25
ATOM     25  C   UNL     1       3.146  17.034  19.445  0.00  0.00    +0.000 C 
ATOM     26  C   UNL     1       2.512  16.614  18.119  0.00  0.00    +0.000 C 
ATOM     27  C   UNL     1       1.103  17.185  18.087  0.00  0.00    +0.000 C 
ATOM     28  S   UNL     1       0.453  16.898  19.753  0.00  0.00    +0.000 S 
ATOM     29  C   UNL     1       2.057  16.812  20.484  0.00  0.00    +0.000 C 
ATOM     30  O   UNL     1       2.229  16.616  21.677  0.00  0.00    +0.000 OA
ENDBRANCH  23  25
ENDBRANCH   9  21
TORSDOF 3
ENDMDL
MODEL 9
REMARK VINA RESULT:      -6.8      3.902      9.363
REMARK  Name = 
REMARK  5 active torsions:
REMARK  status: ('A' for Active; 'I' for Inactive)
REMARK    1  A    between atoms: C_1  and  C_2
REMARK    2  A    between atoms: C_2  and  C_3
REMARK    3  A    between atoms: C_9  and  C_10
REMARK    4  A    between atoms: N_12  and  C_13
REMARK    5  A    between atoms: N_21  and  C_22
REMARK                            x       y       z     vdW  Elec       q    Type
REMARK                         _______ _______ _______ _____ _____    ______ ____
ROOT
ATOM      1  C   UNL     1      -1.009  16.034  23.280  0.00  0.00    +0.000 C 
ATOM      2  C   UNL     1      -0.994  14.768  22.407  0.00  0.00    +0.000 C 
ATOM      3  C   UNL     1      -2.201  14.835  21.445  0.00  0.00    +0.000 C 
ATOM      4  C   UNL     1      -1.067  13.522  23.295  0.00  0.00    +0.000 C 
ATOM      5  C   UNL     1      -1.025  12.277  22.442  0.00  0.00    +0.000 C 
ATOM      6  O   UNL     1      -1.740  11.309  22.693  0.00  0.00    +0.000 OA
ATOM      7  C   UNL     1      -0.059  12.248  21.293  0.00  0.00    +0.000 A 
ATOM      8  C   UNL     1       0.130  11.021  20.545  0.00  0.00    +0.000 A 
ATOM      9  C   UNL     1       0.964  10.948  19.495  0.00  0.00    +0.000 A 
ATOM     10  C   UNL     1       1.722  12.171  19.102  0.00  0.00    +0.000 A 
ATOM     11  O   UNL     1       2.522  12.097  18.159  0.00  0.00    +0.000 OA
ATOM     12  N   UNL     1       1.497  13.347  19.851  0.00  0.00    +0.000 N 
ATOM     13  C   UNL     1       0.602  13.373  20.938  0.00  0.00    +0.000 A 
ATOM     14  C   UNL     1       0.332  14.708  21.619  0.00  0.00    +0.000 C 
ENDROOT
BRANCH  12  15
ATOM     15  C   UNL     1       2.260  14.488  19.444  0.00  0.00    +0.000 A 
ATOM     16  C   UNL     1       3.525  14.720  20.004  0.00  0.00    +0.000 A 
ATOM     17  C   UNL     1       4.260  15.855  19.654  0.00  0.00    +0.000 A 
ATOM     18  C   UNL     1       3.735  16.768  18.740  0.00  0.00    +0.000 A 
ATOM     19  C   UNL     1       2.482  16.543  18.173  0.00  0.00    +0.000 A 
ATOM     20  C   UNL     1       1.744  15.409  18.526  0.00  0.00    +0.000 A 
ENDBRANCH  12  15
BRANCH   9  21
ATOM     21  C   UNL     1       1.086   9.649  18.748  0.00  0.00    +0.000 C 
ATOM     22  O   UNL     1       0.434   9.424  17.732  0.00  0.00    +0.000 OA
ATOM     23  N   UNL     1       1.971   8.726  19.250  0.00  0.00    +0.000 N 
ATOM     24  H   UNL     1       2.401   8.902  20.165  0.00  0.00    +0.000 HD
BRANCH  23  25
ATOM     25  C   UNL     1       2.182   7.424  18.635  0.00  0.00    +0.000 C 
ATOM     26  C   UNL     1       3.492   7.356  17.850  0.00  0.00    +0.000 C 
ATOM     27  C   UNL     1       3.790   5.889  17.587  0.00  0.00    +0.000 C 
ATOM     28  S   UNL     1       3.400   5.054  19.147  0.00  0.00    +0.000 S 
ATOM     29  C   UNL     1       2.296   6.324  19.679  0.00  0.00    +0.000 C 
ATOM     30  O   UNL     1       1.706   6.279  20.747  0.00  0.00    +0.000 OA
ENDBRANCH  23  25
ENDBRANCH   9  21
TORSDOF 3
ENDMDL
