MODEL 1
REMARK VINA RESULT:      -5.5      0.000      0.000
REMARK  Name = 
REMARK  3 active torsions:
REMARK  status: ('A' for Active; 'I' for Inactive)
REMARK    1  A    between atoms: C_1  and  C_2
REMARK    2  A    between atoms: C_4  and  C_5
REMARK    3  A    between atoms: C_6  and  C_7
REMARK                            x       y       z     vdW  Elec       q    Type
REMARK                         _______ _______ _______ _____ _____    ______ ____
ROOT
ATOM      1  C   UNL     1       0.578   2.561  18.816  0.00  0.00    +0.000 C 
ATOM      2  C   UNL     1       1.912   3.231  18.884  0.00  0.00    +0.000 A 
ATOM      3  C   UNL     1       2.139   4.480  18.467  0.00  0.00    +0.000 A 
ATOM      4  C   UNL     1       3.462   5.039  18.575  0.00  0.00    +0.000 A 
ATOM      5  C   UNL     1       3.647   6.455  18.090  0.00  0.00    +0.000 C 
ATOM      6  C   UNL     1       4.459   4.295  19.095  0.00  0.00    +0.000 A 
ATOM      7  C   UNL     1       4.223   2.910  19.559  0.00  0.00    +0.000 A 
ATOM      8  N   UNL     1       5.097   2.112  20.068  0.00  0.00    +0.000 NA
ATOM      9  O   UNL     1       2.948   2.434  19.431  0.00  0.00    +0.000 OA
ATOM     10  H   UNL     1       6.028   2.532  20.132  0.00  0.00    +0.000 HD
ENDROOT
BRANCH   6  11
ATOM     11  C   UNL     1       5.842   4.917  19.199  0.00  0.00    +0.000 C 
ATOM     12  N   UNL     1       6.989   5.433  19.287  0.00  0.00    +0.000 NA
ENDBRANCH   6  11
TORSDOF 1
ENDMDL
MODEL 2
REMARK VINA RESULT:      -5.5      2.290      3.104
REMARK  Name = 
REMARK  3 active torsions:
REMARK  status: ('A' for Active; 'I' for Inactive)
REMARK    1  A    between atoms: C_1  and  C_2
REMARK    2  A    between atoms: C_4  and  C_5
REMARK    3  A    between atoms: C_6  and  C_7
REMARK                            x       y       z     vdW  Elec       q    Type
REMARK                         _______ _______ _______ _____ _____    ______ ____
ROOT
ATOM      1  C   UNL     1       3.785   2.565  18.501  0.00  0.00    +0.000 C 
ATOM      2  C   UNL     1       4.616   3.765  18.183  0.00  0.00    +0.000 A 
ATOM      3  C   UNL     1       4.469   4.496  17.073  0.00  0.00    +0.000 A 
ATOM      4  C   UNL     1       5.319   5.638  16.856  0.00  0.00    +0.000 A 
ATOM      5  C   UNL     1       5.100   6.422  15.586  0.00  0.00    +0.000 C 
ATOM      6  C   UNL     1       6.255   5.957  17.774  0.00  0.00    +0.000 A 
ATOM      7  C   UNL     1       6.429   5.156  19.004  0.00  0.00    +0.000 A 
ATOM      8  N   UNL     1       7.287   5.366  19.942  0.00  0.00    +0.000 NA
ATOM      9  O   UNL     1       5.594   4.084  19.156  0.00  0.00    +0.000 OA
ATOM     10  H   UNL     1       7.878   6.181  19.762  0.00  0.00    +0.000 HD
ENDROOT
BRANCH   6  11
ATOM     11  C   UNL     1       7.132   7.172  17.514  0.00  0.00    +0.000 C 
ATOM     12  N   UNL     1       7.858   8.180  17.301  0.00  0.00    +0.000 NA
ENDBRANCH   6  11
TORSDOF 1
ENDMDL
MODEL 3
REMARK VINA RESULT:      -5.3      2.051      3.542
REMARK  Name = 
REMARK  3 active torsions:
REMARK  status: ('A' for Active; 'I' for Inactive)
REMARK    1  A    between atoms: C_1  and  C_2
REMARK    2  A    between atoms: C_4  and  C_5
REMARK    3  A    between atoms: C_6  and  C_7
REMARK                            x       y       z     vdW  Elec       q    Type
REMARK                         _______ _______ _______ _____ _____    ______ ____
ROOT
ATOM      1  C   UNL     1       5.095   6.330  17.007  0.00  0.00    +0.000 C 
ATOM      2  C   UNL     1       4.384   5.595  18.096  0.00  0.00    +0.000 A 
ATOM      3  C   UNL     1       3.358   6.101  18.787  0.00  0.00    +0.000 A 
ATOM      4  C   UNL     1       2.736   5.313  19.819  0.00  0.00    +0.000 A 
ATOM      5  C   UNL     1       1.581   5.942  20.558  0.00  0.00    +0.000 C 
ATOM      6  C   UNL     1       3.196   4.072  20.079  0.00  0.00    +0.000 A 
ATOM      7  C   UNL     1       4.332   3.500  19.323  0.00  0.00    +0.000 A 
ATOM      8  N   UNL     1       4.852   2.332  19.487  0.00  0.00    +0.000 NA
ATOM      9  O   UNL     1       4.882   4.294  18.356  0.00  0.00    +0.000 OA
ATOM     10  H   UNL     1       4.393   1.795  20.226  0.00  0.00    +0.000 HD
ENDROOT
BRANCH   6  11
ATOM     11  C   UNL     1       2.513   3.265  21.171  0.00  0.00    +0.000 C 
ATOM     12  N   UNL     1       1.945   2.598  22.078  0.00  0.00    +0.000 NA
ENDBRANCH   6  11
TORSDOF 1
ENDMDL
MODEL 4
REMARK VINA RESULT:      -5.3      1.775      2.085
REMARK  Name = 
REMARK  3 active torsions:
REMARK  status: ('A' for Active; 'I' for Inactive)
REMARK    1  A    between atoms: C_1  and  C_2
REMARK    2  A    between atoms: C_4  and  C_5
REMARK    3  A    between atoms: C_6  and  C_7
REMARK                            x       y       z     vdW  Elec       q    Type
REMARK                         _______ _______ _______ _____ _____    ______ ____
ROOT
ATOM      1  C   UNL     1       1.509   4.086  20.796  0.00  0.00    +0.000 C 
ATOM      2  C   UNL     1       2.502   4.750  19.899  0.00  0.00    +0.000 A 
ATOM      3  C   UNL     1       2.288   5.922  19.292  0.00  0.00    +0.000 A 
ATOM      4  C   UNL     1       3.309   6.483  18.445  0.00  0.00    +0.000 A 
ATOM      5  C   UNL     1       3.005   7.809  17.794  0.00  0.00    +0.000 C 
ATOM      6  C   UNL     1       4.471   5.819  18.272  0.00  0.00    +0.000 A 
ATOM      7  C   UNL     1       4.720   4.520  18.935  0.00  0.00    +0.000 A 
ATOM      8  N   UNL     1       5.785   3.802  18.840  0.00  0.00    +0.000 NA
ATOM      9  O   UNL     1       3.714   4.038  19.727  0.00  0.00    +0.000 OA
ATOM     10  H   UNL     1       6.493   4.222  18.233  0.00  0.00    +0.000 HD
ENDROOT
BRANCH   6  11
ATOM     11  C   UNL     1       5.528   6.442  17.376  0.00  0.00    +0.000 C 
ATOM     12  N   UNL     1       6.405   6.958  16.631  0.00  0.00    +0.000 NA
ENDBRANCH   6  11
TORSDOF 1
ENDMDL
MODEL 5
REMARK VINA RESULT:      -5.3      1.670      1.811
REMARK  Name = 
REMARK  3 active torsions:
REMARK  status: ('A' for Active; 'I' for Inactive)
REMARK    1  A    between atoms: C_1  and  C_2
REMARK    2  A    between atoms: C_4  and  C_5
REMARK    3  A    between atoms: C_6  and  C_7
REMARK                            x       y       z     vdW  Elec       q    Type
REMARK                         _______ _______ _______ _____ _____    ______ ____
ROOT
ATOM      1  C   UNL     1       1.387   5.123  20.453  0.00  0.00    +0.000 C 
ATOM      2  C   UNL     1       2.663   5.051  19.679  0.00  0.00    +0.000 A 
ATOM      3  C   UNL     1       3.078   6.004  18.839  0.00  0.00    +0.000 A 
ATOM      4  C   UNL     1       4.325   5.844  18.138  0.00  0.00    +0.000 A 
ATOM      5  C   UNL     1       4.735   6.958  17.208  0.00  0.00    +0.000 C 
ATOM      6  C   UNL     1       5.063   4.732  18.336  0.00  0.00    +0.000 A 
ATOM      7  C   UNL     1       4.616   3.668  19.261  0.00  0.00    +0.000 A 
ATOM      8  N   UNL     1       5.235   2.569  19.524  0.00  0.00    +0.000 NA
ATOM      9  O   UNL     1       3.423   3.876  19.898  0.00  0.00    +0.000 OA
ATOM     10  H   UNL     1       6.117   2.480  19.012  0.00  0.00    +0.000 HD
ENDROOT
BRANCH   6  11
ATOM     11  C   UNL     1       6.377   4.597  17.584  0.00  0.00    +0.000 C 
ATOM     12  N   UNL     1       7.466   4.486  16.958  0.00  0.00    +0.000 NA
ENDBRANCH   6  11
TORSDOF 1
ENDMDL
MODEL 6
REMARK VINA RESULT:      -5.2      2.074      2.098
REMARK  Name = 
REMARK  3 active torsions:
REMARK  status: ('A' for Active; 'I' for Inactive)
REMARK    1  A    between atoms: C_1  and  C_2
REMARK    2  A    between atoms: C_4  and  C_5
REMARK    3  A    between atoms: C_6  and  C_7
REMARK                            x       y       z     vdW  Elec       q    Type
REMARK                         _______ _______ _______ _____ _____    ______ ____
ROOT
ATOM      1  C   UNL     1       1.103   2.472  18.591  0.00  0.00    +0.000 C 
ATOM      2  C   UNL     1       2.116   3.494  18.188  0.00  0.00    +0.000 A 
ATOM      3  C   UNL     1       1.954   4.810  18.361  0.00  0.00    +0.000 A 
ATOM      4  C   UNL     1       2.990   5.717  17.940  0.00  0.00    +0.000 A 
ATOM      5  C   UNL     1       2.745   7.187  18.167  0.00  0.00    +0.000 C 
ATOM      6  C   UNL     1       4.114   5.229  17.375  0.00  0.00    +0.000 A 
ATOM      7  C   UNL     1       4.306   3.776  17.176  0.00  0.00    +0.000 A 
ATOM      8  N   UNL     1       5.332   3.203  16.649  0.00  0.00    +0.000 NA
ATOM      9  O   UNL     1       3.289   2.964  17.596  0.00  0.00    +0.000 OA
ATOM     10  H   UNL     1       6.052   3.869  16.358  0.00  0.00    +0.000 HD
ENDROOT
BRANCH   6  11
ATOM     11  C   UNL     1       5.190   6.214  16.947  0.00  0.00    +0.000 C 
ATOM     12  N   UNL     1       6.081   7.033  16.593  0.00  0.00    +0.000 NA
ENDBRANCH   6  11
TORSDOF 1
ENDMDL
MODEL 7
REMARK VINA RESULT:      -5.2      1.927      3.838
REMARK  Name = 
REMARK  3 active torsions:
REMARK  status: ('A' for Active; 'I' for Inactive)
REMARK    1  A    between atoms: C_1  and  C_2
REMARK    2  A    between atoms: C_4  and  C_5
REMARK    3  A    between atoms: C_6  and  C_7
REMARK                            x       y       z     vdW  Elec       q    Type
REMARK                         _______ _______ _______ _____ _____    ______ ____
ROOT
ATOM      1  C   UNL     1       7.460   5.894  18.301  0.00  0.00    +0.000 C 
ATOM      2  C   UNL     1       6.073   5.380  18.507  0.00  0.00    +0.000 A 
ATOM      3  C   UNL     1       4.971   6.077  18.212  0.00  0.00    +0.000 A 
ATOM      4  C   UNL     1       3.675   5.494  18.446  0.00  0.00    +0.000 A 
ATOM      5  C   UNL     1       2.473   6.333  18.089  0.00  0.00    +0.000 C 
ATOM      6  C   UNL     1       3.587   4.251  18.962  0.00  0.00    +0.000 A 
ATOM      7  C   UNL     1       4.798   3.469  19.294  0.00  0.00    +0.000 A 
ATOM      8  N   UNL     1       4.831   2.280  19.790  0.00  0.00    +0.000 NA
ATOM      9  O   UNL     1       5.999   4.074  19.050  0.00  0.00    +0.000 OA
ATOM     10  H   UNL     1       3.899   1.890  19.947  0.00  0.00    +0.000 HD
ENDROOT
BRANCH   6  11
ATOM     11  C   UNL     1       2.203   3.664  19.191  0.00  0.00    +0.000 C 
ATOM     12  N   UNL     1       1.055   3.179  19.382  0.00  0.00    +0.000 NA
ENDBRANCH   6  11
TORSDOF 1
ENDMDL
MODEL 8
REMARK VINA RESULT:      -5.2      1.780      1.891
REMARK  Name = 
REMARK  3 active torsions:
REMARK  status: ('A' for Active; 'I' for Inactive)
REMARK    1  A    between atoms: C_1  and  C_2
REMARK    2  A    between atoms: C_4  and  C_5
REMARK    3  A    between atoms: C_6  and  C_7
REMARK                            x       y       z     vdW  Elec       q    Type
REMARK                         _______ _______ _______ _____ _____    ______ ____
ROOT
ATOM      1  C   UNL     1       1.505   2.856  21.615  0.00  0.00    +0.000 C 
ATOM      2  C   UNL     1       2.304   3.737  20.712  0.00  0.00    +0.000 A 
ATOM      3  C   UNL     1       1.967   4.996  20.412  0.00  0.00    +0.000 A 
ATOM      4  C   UNL     1       2.805   5.767  19.531  0.00  0.00    +0.000 A 
ATOM      5  C   UNL     1       2.368   7.181  19.237  0.00  0.00    +0.000 C 
ATOM      6  C   UNL     1       3.921   5.212  19.017  0.00  0.00    +0.000 A 
ATOM      7  C   UNL     1       4.306   3.820  19.338  0.00  0.00    +0.000 A 
ATOM      8  N   UNL     1       5.343   3.191  18.905  0.00  0.00    +0.000 NA
ATOM      9  O   UNL     1       3.472   3.137  20.180  0.00  0.00    +0.000 OA
ATOM     10  H   UNL     1       5.919   3.761  18.281  0.00  0.00    +0.000 HD
ENDROOT
BRANCH   6  11
ATOM     11  C   UNL     1       4.785   6.056  18.094  0.00  0.00    +0.000 C 
ATOM     12  N   UNL     1       5.503   6.758  17.330  0.00  0.00    +0.000 NA
ENDBRANCH   6  11
TORSDOF 1
ENDMDL
MODEL 9
REMARK VINA RESULT:      -5.2      1.997      2.047
REMARK  Name = 
REMARK  3 active torsions:
REMARK  status: ('A' for Active; 'I' for Inactive)
REMARK    1  A    between atoms: C_1  and  C_2
REMARK    2  A    between atoms: C_4  and  C_5
REMARK    3  A    between atoms: C_6  and  C_7
REMARK                            x       y       z     vdW  Elec       q    Type
REMARK                         _______ _______ _______ _____ _____    ______ ____
ROOT
ATOM      1  C   UNL     1       1.055   4.148  20.461  0.00  0.00    +0.000 C 
ATOM      2  C   UNL     1       2.130   4.166  19.425  0.00  0.00    +0.000 A 
ATOM      3  C   UNL     1       2.592   5.282  18.852  0.00  0.00    +0.000 A 
ATOM      4  C   UNL     1       3.634   5.197  17.862  0.00  0.00    +0.000 A 
ATOM      5  C   UNL     1       4.111   6.493  17.257  0.00  0.00    +0.000 C 
ATOM      6  C   UNL     1       4.133   3.990  17.522  0.00  0.00    +0.000 A 
ATOM      7  C   UNL     1       3.632   2.747  18.147  0.00  0.00    +0.000 A 
ATOM      8  N   UNL     1       4.032   1.548  17.899  0.00  0.00    +0.000 NA
ATOM      9  O   UNL     1       2.642   2.891  19.080  0.00  0.00    +0.000 OA
ATOM     10  H   UNL     1       4.771   1.516  17.192  0.00  0.00    +0.000 HD
ENDROOT
BRANCH   6  11
ATOM     11  C   UNL     1       5.236   3.937  16.478  0.00  0.00    +0.000 C 
ATOM     12  N   UNL     1       6.150   3.892  15.610  0.00  0.00    +0.000 NA
ENDBRANCH   6  11
TORSDOF 1
ENDMDL
