MODEL 1
REMARK VINA RESULT:      -8.7      0.000      0.000
REMARK  Name = 
REMARK  6 active torsions:
REMARK  status: ('A' for Active; 'I' for Inactive)
REMARK    1  A    between atoms: C_1  and  C_2
REMARK    2  A    between atoms: C_12  and  C_13
REMARK    3  A    between atoms: C_18  and  C_19
REMARK    4  A    between atoms: C_19  and  C_20
REMARK    5  A    between atoms: C_20  and  N_21
REMARK    6  A    between atoms: C_25  and  C_26
REMARK                            x       y       z     vdW  Elec       q    Type
REMARK                         _______ _______ _______ _____ _____    ______ ____
ROOT
ATOM      1  C   UNL     1       0.928   9.633  19.220  0.00  0.00    +0.000 A 
ATOM      2  C   UNL     1       1.648   9.711  18.033  0.00  0.00    +0.000 A 
ATOM      3  C   UNL     1       2.486   8.652  17.698  0.00  0.00    +0.000 A 
ATOM      4  C   UNL     1       2.579   7.543  18.545  0.00  0.00    +0.000 A 
ATOM      5  C   UNL     1       3.360   6.419  18.220  0.00  0.00    +0.000 A 
ATOM      6  C   UNL     1       3.404   5.309  19.071  0.00  0.00    +0.000 A 
ATOM      7  C   UNL     1       2.708   5.364  20.282  0.00  0.00    +0.000 A 
ATOM      8  C   UNL     1       1.937   6.485  20.601  0.00  0.00    +0.000 A 
ATOM      9  C   UNL     1       1.837   7.565  19.741  0.00  0.00    +0.000 A 
ATOM     10  N   UNL     1       1.031   8.586  20.067  0.00  0.00    +0.000 NA
ENDROOT
BRANCH   1  22
ATOM     11  C   UNL     1      -1.988  10.348  18.040  0.00  0.00    +0.000 C 
ATOM     12  C   UNL     1      -1.285  10.966  19.199  0.00  0.00    +0.000 A 
ATOM     13  N   UNL     1      -1.954  11.945  19.918  0.00  0.00    +0.000 NA
ATOM     14  C   UNL     1      -1.216  12.401  20.907  0.00  0.00    +0.000 A 
ATOM     15  N   UNL     1      -1.669  13.275  21.844  0.00  0.00    +0.000 N 
ATOM     16  C   UNL     1      -0.801  14.244  22.517  0.00  0.00    +0.000 C 
ATOM     17  C   UNL     1      -1.316  14.461  23.949  0.00  0.00    +0.000 C 
ATOM     18  O   UNL     1      -2.699  14.858  23.963  0.00  0.00    +0.000 OA
ATOM     19  C   UNL     1      -3.514  13.864  23.317  0.00  0.00    +0.000 C 
ATOM     20  C   UNL     1      -3.086  13.647  21.856  0.00  0.00    +0.000 C 
ATOM     21  S   UNL     1       0.357  11.697  20.976  0.00  0.00    +0.000 S 
ATOM     22  C   UNL     1      -0.014  10.662  19.665  0.00  0.00    +0.000 A 
ENDBRANCH   1  22
BRANCH   6  23
ATOM     23  C   UNL     1       4.169   4.067  18.673  0.00  0.00    +0.000 C 
BRANCH  23  24
ATOM     24  C   UNL     1       5.681   4.334  18.526  0.00  0.00    +0.000 C 
BRANCH  24  25
ATOM     25  N   UNL     1       6.152   4.110  17.161  0.00  0.00    +0.000 NA
ATOM     26  C   UNL     1       5.087   3.975  16.163  0.00  0.00    +0.000 C 
ATOM     27  C   UNL     1       5.535   4.776  14.952  0.00  0.00    +0.000 C 
ATOM     28  C   UNL     1       7.030   4.924  15.145  0.00  0.00    +0.000 C 
ATOM     29  C   UNL     1       7.183   5.032  16.660  0.00  0.00    +0.000 C 
ATOM     30  C   UNL     1       7.098   6.490  17.119  0.00  0.00    +0.000 C 
ENDBRANCH  24  25
ENDBRANCH  23  24
ENDBRANCH   6  23
TORSDOF 4
ENDMDL
MODEL 2
REMARK VINA RESULT:      -8.5      1.602      2.941
REMARK  Name = 
REMARK  6 active torsions:
REMARK  status: ('A' for Active; 'I' for Inactive)
REMARK    1  A    between atoms: C_1  and  C_2
REMARK    2  A    between atoms: C_12  and  C_13
REMARK    3  A    between atoms: C_18  and  C_19
REMARK    4  A    between atoms: C_19  and  C_20
REMARK    5  A    between atoms: C_20  and  N_21
REMARK    6  A    between atoms: C_25  and  C_26
REMARK                            x       y       z     vdW  Elec       q    Type
REMARK                         _______ _______ _______ _____ _____    ______ ____
ROOT
ATOM      1  C   UNL     1       0.224   9.654  20.458  0.00  0.00    +0.000 A 
ATOM      2  C   UNL     1       0.358   8.635  21.394  0.00  0.00    +0.000 A 
ATOM      3  C   UNL     1       1.227   7.586  21.108  0.00  0.00    +0.000 A 
ATOM      4  C   UNL     1       1.944   7.584  19.907  0.00  0.00    +0.000 A 
ATOM      5  C   UNL     1       2.882   6.582  19.600  0.00  0.00    +0.000 A 
ATOM      6  C   UNL     1       3.610   6.627  18.406  0.00  0.00    +0.000 A 
ATOM      7  C   UNL     1       3.340   7.650  17.493  0.00  0.00    +0.000 A 
ATOM      8  C   UNL     1       2.403   8.640  17.802  0.00  0.00    +0.000 A 
ATOM      9  C   UNL     1       1.719   8.641  19.006  0.00  0.00    +0.000 A 
ATOM     10  N   UNL     1       0.881   9.651  19.278  0.00  0.00    +0.000 NA
ENDROOT
BRANCH   1  22
ATOM     11  C   UNL     1      -1.664  11.165  18.323  0.00  0.00    +0.000 C 
ATOM     12  C   UNL     1      -1.474  11.475  19.768  0.00  0.00    +0.000 A 
ATOM     13  N   UNL     1      -2.222  12.508  20.315  0.00  0.00    +0.000 NA
ATOM     14  C   UNL     1      -1.950  12.670  21.592  0.00  0.00    +0.000 A 
ATOM     15  N   UNL     1      -2.626  13.527  22.402  0.00  0.00    +0.000 N 
ATOM     16  C   UNL     1      -2.011  14.185  23.556  0.00  0.00    +0.000 C 
ATOM     17  C   UNL     1      -3.078  14.373  24.647  0.00  0.00    +0.000 C 
ATOM     18  O   UNL     1      -4.225  15.087  24.153  0.00  0.00    +0.000 OA
ATOM     19  C   UNL     1      -4.811  14.389  23.039  0.00  0.00    +0.000 C 
ATOM     20  C   UNL     1      -3.807  14.225  21.886  0.00  0.00    +0.000 C 
ATOM     21  S   UNL     1      -0.727  11.606  22.179  0.00  0.00    +0.000 S 
ATOM     22  C   UNL     1      -0.628  10.829  20.657  0.00  0.00    +0.000 A 
ENDBRANCH   1  22
BRANCH   6  23
ATOM     23  C   UNL     1       4.685   5.601  18.124  0.00  0.00    +0.000 C 
BRANCH  23  24
ATOM     24  C   UNL     1       4.216   4.524  17.125  0.00  0.00    +0.000 C 
BRANCH  24  25
ATOM     25  N   UNL     1       3.843   3.277  17.791  0.00  0.00    +0.000 NA
ATOM     26  C   UNL     1       4.286   3.173  19.184  0.00  0.00    +0.000 C 
ATOM     27  C   UNL     1       3.119   2.586  19.959  0.00  0.00    +0.000 C 
ATOM     28  C   UNL     1       2.255   1.947  18.891  0.00  0.00    +0.000 C 
ATOM     29  C   UNL     1       2.431   2.875  17.691  0.00  0.00    +0.000 C 
ATOM     30  C   UNL     1       1.384   3.993  17.703  0.00  0.00    +0.000 C 
ENDBRANCH  24  25
ENDBRANCH  23  24
ENDBRANCH   6  23
TORSDOF 4
ENDMDL
MODEL 3
REMARK VINA RESULT:      -8.4      2.155      3.519
REMARK  Name = 
REMARK  6 active torsions:
REMARK  status: ('A' for Active; 'I' for Inactive)
REMARK    1  A    between atoms: C_1  and  C_2
REMARK    2  A    between atoms: C_12  and  C_13
REMARK    3  A    between atoms: C_18  and  C_19
REMARK    4  A    between atoms: C_19  and  C_20
REMARK    5  A    between atoms: C_20  and  N_21
REMARK    6  A    between atoms: C_25  and  C_26
REMARK                            x       y       z     vdW  Elec       q    Type
REMARK                         _______ _______ _______ _____ _____    ______ ____
ROOT
ATOM      1  C   UNL     1      -0.356  10.574  20.960  0.00  0.00    +0.000 A 
ATOM      2  C   UNL     1      -0.125   9.577  21.901  0.00  0.00    +0.000 A 
ATOM      3  C   UNL     1       0.689   8.507  21.542  0.00  0.00    +0.000 A 
ATOM      4  C   UNL     1       1.257   8.462  20.265  0.00  0.00    +0.000 A 
ATOM      5  C   UNL     1       2.138   7.437  19.876  0.00  0.00    +0.000 A 
ATOM      6  C   UNL     1       2.719   7.439  18.602  0.00  0.00    +0.000 A 
ATOM      7  C   UNL     1       2.355   8.443  17.701  0.00  0.00    +0.000 A 
ATOM      8  C   UNL     1       1.476   9.456  18.092  0.00  0.00    +0.000 A 
ATOM      9  C   UNL     1       0.941   9.500  19.368  0.00  0.00    +0.000 A 
ATOM     10  N   UNL     1       0.154  10.530  19.711  0.00  0.00    +0.000 NA
ENDROOT
BRANCH   1  22
ATOM     11  C   UNL     1      -2.563  11.985  19.076  0.00  0.00    +0.000 C 
ATOM     12  C   UNL     1      -2.140  12.372  20.452  0.00  0.00    +0.000 A 
ATOM     13  N   UNL     1      -2.787  13.442  21.052  0.00  0.00    +0.000 NA
ATOM     14  C   UNL     1      -2.312  13.673  22.257  0.00  0.00    +0.000 A 
ATOM     15  N   UNL     1      -2.845  14.581  23.115  0.00  0.00    +0.000 N 
ATOM     16  C   UNL     1      -2.050  15.296  24.116  0.00  0.00    +0.000 C 
ATOM     17  C   UNL     1      -2.926  15.556  25.352  0.00  0.00    +0.000 C 
ATOM     18  O   UNL     1      -4.136  16.255  25.011  0.00  0.00    +0.000 OA
ATOM     19  C   UNL     1      -4.896  15.501  24.048  0.00  0.00    +0.000 C 
ATOM     20  C   UNL     1      -4.093  15.262  22.759  0.00  0.00    +0.000 C 
ATOM     21  S   UNL     1      -1.012  12.629  22.698  0.00  0.00    +0.000 S 
ATOM     22  C   UNL     1      -1.162  11.768  21.227  0.00  0.00    +0.000 A 
ENDBRANCH   1  22
BRANCH   6  23
ATOM     23  C   UNL     1       3.738   6.389  18.222  0.00  0.00    +0.000 C 
BRANCH  23  24
ATOM     24  C   UNL     1       3.604   5.110  19.073  0.00  0.00    +0.000 C 
BRANCH  24  25
ATOM     25  N   UNL     1       2.660   4.156  18.493  0.00  0.00    +0.000 NA
ATOM     26  C   UNL     1       3.240   2.855  18.150  0.00  0.00    +0.000 C 
ATOM     27  C   UNL     1       2.236   1.808  18.602  0.00  0.00    +0.000 C 
ATOM     28  C   UNL     1       0.940   2.581  18.738  0.00  0.00    +0.000 C 
ATOM     29  C   UNL     1       1.397   3.956  19.220  0.00  0.00    +0.000 C 
ATOM     30  C   UNL     1       1.454   4.011  20.750  0.00  0.00    +0.000 C 
ENDBRANCH  24  25
ENDBRANCH  23  24
ENDBRANCH   6  23
TORSDOF 4
ENDMDL
MODEL 4
REMARK VINA RESULT:      -8.2      1.426      2.191
REMARK  Name = 
REMARK  6 active torsions:
REMARK  status: ('A' for Active; 'I' for Inactive)
REMARK    1  A    between atoms: C_1  and  C_2
REMARK    2  A    between atoms: C_12  and  C_13
REMARK    3  A    between atoms: C_18  and  C_19
REMARK    4  A    between atoms: C_19  and  C_20
REMARK    5  A    between atoms: C_20  and  N_21
REMARK    6  A    between atoms: C_25  and  C_26
REMARK                            x       y       z     vdW  Elec       q    Type
REMARK                         _______ _______ _______ _____ _____    ______ ____
ROOT
ATOM      1  C   UNL     1       1.096  10.119  19.798  0.00  0.00    +0.000 A 
ATOM      2  C   UNL     1       1.448  10.295  18.465  0.00  0.00    +0.000 A 
ATOM      3  C   UNL     1       2.000   9.218  17.779  0.00  0.00    +0.000 A 
ATOM      4  C   UNL     1       2.179   7.994  18.433  0.00  0.00    +0.000 A 
ATOM      5  C   UNL     1       2.672   6.857  17.767  0.00  0.00    +0.000 A 
ATOM      6  C   UNL     1       2.805   5.637  18.440  0.00  0.00    +0.000 A 
ATOM      7  C   UNL     1       2.502   5.586  19.803  0.00  0.00    +0.000 A 
ATOM      8  C   UNL     1       2.017   6.720  20.460  0.00  0.00    +0.000 A 
ATOM      9  C   UNL     1       1.823   7.918  19.793  0.00  0.00    +0.000 A 
ATOM     10  N   UNL     1       1.294   8.955  20.456  0.00  0.00    +0.000 NA
ENDROOT
BRANCH   1  22
ATOM     11  C   UNL     1       2.147  13.108  20.405  0.00  0.00    +0.000 C 
ATOM     12  C   UNL     1       0.885  12.462  20.864  0.00  0.00    +0.000 A 
ATOM     13  N   UNL     1      -0.000  13.226  21.611  0.00  0.00    +0.000 NA
ATOM     14  C   UNL     1      -1.065  12.530  21.948  0.00  0.00    +0.000 A 
ATOM     15  N   UNL     1      -2.146  13.065  22.574  0.00  0.00    +0.000 N 
ATOM     16  C   UNL     1      -2.999  12.300  23.485  0.00  0.00    +0.000 C 
ATOM     17  C   UNL     1      -4.441  12.820  23.370  0.00  0.00    +0.000 C 
ATOM     18  O   UNL     1      -4.517  14.237  23.606  0.00  0.00    +0.000 OA
ATOM     19  C   UNL     1      -3.685  14.947  22.669  0.00  0.00    +0.000 C 
ATOM     20  C   UNL     1      -2.215  14.514  22.781  0.00  0.00    +0.000 C 
ATOM     21  S   UNL     1      -1.015  10.890  21.418  0.00  0.00    +0.000 S 
ATOM     22  C   UNL     1       0.473  11.161  20.617  0.00  0.00    +0.000 A 
ENDBRANCH   1  22
BRANCH   6  23
ATOM     23  C   UNL     1       3.244   4.396  17.697  0.00  0.00    +0.000 C 
BRANCH  23  24
ATOM     24  C   UNL     1       4.741   4.089  17.906  0.00  0.00    +0.000 C 
BRANCH  24  25
ATOM     25  N   UNL     1       5.536   5.303  18.080  0.00  0.00    +0.000 NA
ATOM     26  C   UNL     1       6.395   5.305  19.267  0.00  0.00    +0.000 C 
ATOM     27  C   UNL     1       7.730   5.881  18.825  0.00  0.00    +0.000 C 
ATOM     28  C   UNL     1       7.403   6.615  17.540  0.00  0.00    +0.000 C 
ATOM     29  C   UNL     1       6.307   5.758  16.913  0.00  0.00    +0.000 C 
ATOM     30  C   UNL     1       6.904   4.678  16.006  0.00  0.00    +0.000 C 
ENDBRANCH  24  25
ENDBRANCH  23  24
ENDBRANCH   6  23
TORSDOF 4
ENDMDL
MODEL 5
REMARK VINA RESULT:      -8.2      2.632      3.095
REMARK  Name = 
REMARK  6 active torsions:
REMARK  status: ('A' for Active; 'I' for Inactive)
REMARK    1  A    between atoms: C_1  and  C_2
REMARK    2  A    between atoms: C_12  and  C_13
REMARK    3  A    between atoms: C_18  and  C_19
REMARK    4  A    between atoms: C_19  and  C_20
REMARK    5  A    between atoms: C_20  and  N_21
REMARK    6  A    between atoms: C_25  and  C_26
REMARK                            x       y       z     vdW  Elec       q    Type
REMARK                         _______ _______ _______ _____ _____    ______ ____
ROOT
ATOM      1  C   UNL     1       0.946  10.406  19.456  0.00  0.00    +0.000 A 
ATOM      2  C   UNL     1       0.647   9.784  20.663  0.00  0.00    +0.000 A 
ATOM      3  C   UNL     1       1.090   8.480  20.862  0.00  0.00    +0.000 A 
ATOM      4  C   UNL     1       1.825   7.835  19.863  0.00  0.00    +0.000 A 
ATOM      5  C   UNL     1       2.351   6.542  20.041  0.00  0.00    +0.000 A 
ATOM      6  C   UNL     1       3.113   5.936  19.035  0.00  0.00    +0.000 A 
ATOM      7  C   UNL     1       3.286   6.613  17.825  0.00  0.00    +0.000 A 
ATOM      8  C   UNL     1       2.757   7.895  17.652  0.00  0.00    +0.000 A 
ATOM      9  C   UNL     1       2.053   8.531  18.661  0.00  0.00    +0.000 A 
ATOM     10  N   UNL     1       1.624   9.785  18.465  0.00  0.00    +0.000 NA
ENDROOT
BRANCH   1  22
ATOM     11  C   UNL     1      -1.922  11.555  18.530  0.00  0.00    +0.000 C 
ATOM     12  C   UNL     1      -0.661  12.310  18.776  0.00  0.00    +0.000 A 
ATOM     13  N   UNL     1      -0.695  13.691  18.645  0.00  0.00    +0.000 NA
ATOM     14  C   UNL     1       0.483  14.223  18.886  0.00  0.00    +0.000 A 
ATOM     15  N   UNL     1       0.706  15.561  18.951  0.00  0.00    +0.000 N 
ATOM     16  C   UNL     1       1.985  16.176  18.590  0.00  0.00    +0.000 C 
ATOM     17  C   UNL     1       2.208  17.414  19.473  0.00  0.00    +0.000 C 
ATOM     18  O   UNL     1       1.109  18.339  19.381  0.00  0.00    +0.000 OA
ATOM     19  C   UNL     1      -0.119  17.699  19.772  0.00  0.00    +0.000 C 
ATOM     20  C   UNL     1      -0.430  16.485  18.881  0.00  0.00    +0.000 C 
ATOM     21  S   UNL     1       1.709  13.059  19.231  0.00  0.00    +0.000 S 
ATOM     22  C   UNL     1       0.570  11.786  19.140  0.00  0.00    +0.000 A 
ENDBRANCH   1  22
BRANCH   6  23
ATOM     23  C   UNL     1       3.756   4.588  19.267  0.00  0.00    +0.000 C 
BRANCH  23  24
ATOM     24  C   UNL     1       5.295   4.676  19.321  0.00  0.00    +0.000 C 
BRANCH  24  25
ATOM     25  N   UNL     1       5.923   4.110  18.129  0.00  0.00    +0.000 NA
ATOM     26  C   UNL     1       4.987   3.745  17.061  0.00  0.00    +0.000 C 
ATOM     27  C   UNL     1       5.622   4.211  15.762  0.00  0.00    +0.000 C 
ATOM     28  C   UNL     1       7.087   4.380  16.110  0.00  0.00    +0.000 C 
ATOM     29  C   UNL     1       7.052   4.861  17.559  0.00  0.00    +0.000 C 
ATOM     30  C   UNL     1       6.981   6.390  17.629  0.00  0.00    +0.000 C 
ENDBRANCH  24  25
ENDBRANCH  23  24
ENDBRANCH   6  23
TORSDOF 4
ENDMDL
MODEL 6
REMARK VINA RESULT:      -8.2      1.548      2.289
REMARK  Name = 
REMARK  6 active torsions:
REMARK  status: ('A' for Active; 'I' for Inactive)
REMARK    1  A    between atoms: C_1  and  C_2
REMARK    2  A    between atoms: C_12  and  C_13
REMARK    3  A    between atoms: C_18  and  C_19
REMARK    4  A    between atoms: C_19  and  C_20
REMARK    5  A    between atoms: C_20  and  N_21
REMARK    6  A    between atoms: C_25  and  C_26
REMARK                            x       y       z     vdW  Elec       q    Type
REMARK                         _______ _______ _______ _____ _____    ______ ____
ROOT
ATOM      1  C   UNL     1       0.895  10.109  20.071  0.00  0.00    +0.000 A 
ATOM      2  C   UNL     1       1.269  10.428  18.770  0.00  0.00    +0.000 A 
ATOM      3  C   UNL     1       1.873   9.443  17.996  0.00  0.00    +0.000 A 
ATOM      4  C   UNL     1       2.079   8.167  18.530  0.00  0.00    +0.000 A 
ATOM      5  C   UNL     1       2.625   7.118  17.768  0.00  0.00    +0.000 A 
ATOM      6  C   UNL     1       2.786   5.842  18.320  0.00  0.00    +0.000 A 
ATOM      7  C   UNL     1       2.456   5.646  19.664  0.00  0.00    +0.000 A 
ATOM      8  C   UNL     1       1.918   6.693  20.417  0.00  0.00    +0.000 A 
ATOM      9  C   UNL     1       1.697   7.944  19.866  0.00  0.00    +0.000 A 
ATOM     10  N   UNL     1       1.119   8.893  20.615  0.00  0.00    +0.000 NA
ENDROOT
BRANCH   1  22
ATOM     11  C   UNL     1      -0.362   9.552  22.989  0.00  0.00    +0.000 C 
ATOM     12  C   UNL     1      -0.297  10.841  22.243  0.00  0.00    +0.000 A 
ATOM     13  N   UNL     1      -0.786  11.978  22.868  0.00  0.00    +0.000 NA
ATOM     14  C   UNL     1      -0.668  13.036  22.095  0.00  0.00    +0.000 A 
ATOM     15  N   UNL     1      -0.953  14.301  22.501  0.00  0.00    +0.000 N 
ATOM     16  C   UNL     1      -1.435  15.342  21.592  0.00  0.00    +0.000 C 
ATOM     17  C   UNL     1      -0.904  16.703  22.069  0.00  0.00    +0.000 C 
ATOM     18  O   UNL     1      -1.259  16.963  23.439  0.00  0.00    +0.000 OA
ATOM     19  C   UNL     1      -0.741  15.930  24.297  0.00  0.00    +0.000 C 
ATOM     20  C   UNL     1      -1.288  14.547  23.907  0.00  0.00    +0.000 C 
ATOM     21  S   UNL     1      -0.003  12.687  20.542  0.00  0.00    +0.000 S 
ATOM     22  C   UNL     1       0.219  11.045  20.972  0.00  0.00    +0.000 A 
ENDBRANCH   1  22
BRANCH   6  23
ATOM     23  C   UNL     1       3.283   4.695  17.469  0.00  0.00    +0.000 C 
BRANCH  23  24
ATOM     24  C   UNL     1       4.725   4.283  17.830  0.00  0.00    +0.000 C 
BRANCH  24  25
ATOM     25  N   UNL     1       5.602   5.439  18.009  0.00  0.00    +0.000 NA
ATOM     26  C   UNL     1       6.469   5.370  19.189  0.00  0.00    +0.000 C 
ATOM     27  C   UNL     1       7.836   5.859  18.742  0.00  0.00    +0.000 C 
ATOM     28  C   UNL     1       7.550   6.627  17.468  0.00  0.00    +0.000 C 
ATOM     29  C   UNL     1       6.393   5.853  16.840  0.00  0.00    +0.000 C 
ATOM     30  C   UNL     1       6.909   4.745  15.917  0.00  0.00    +0.000 C 
ENDBRANCH  24  25
ENDBRANCH  23  24
ENDBRANCH   6  23
TORSDOF 4
ENDMDL
MODEL 7
REMARK VINA RESULT:      -8.2      2.501      4.172
REMARK  Name = 
REMARK  6 active torsions:
REMARK  status: ('A' for Active; 'I' for Inactive)
REMARK    1  A    between atoms: C_1  and  C_2
REMARK    2  A    between atoms: C_12  and  C_13
REMARK    3  A    between atoms: C_18  and  C_19
REMARK    4  A    between atoms: C_19  and  C_20
REMARK    5  A    between atoms: C_20  and  N_21
REMARK    6  A    between atoms: C_25  and  C_26
REMARK                            x       y       z     vdW  Elec       q    Type
REMARK                         _______ _______ _______ _____ _____    ______ ____
ROOT
ATOM      1  C   UNL     1      -0.257  11.055  21.623  0.00  0.00    +0.000 A 
ATOM      2  C   UNL     1       0.029   9.992  22.471  0.00  0.00    +0.000 A 
ATOM      3  C   UNL     1       0.707   8.894  21.949  0.00  0.00    +0.000 A 
ATOM      4  C   UNL     1       1.090   8.888  20.604  0.00  0.00    +0.000 A 
ATOM      5  C   UNL     1       1.834   7.833  20.044  0.00  0.00    +0.000 A 
ATOM      6  C   UNL     1       2.232   7.873  18.703  0.00  0.00    +0.000 A 
ATOM      7  C   UNL     1       1.821   8.949  17.912  0.00  0.00    +0.000 A 
ATOM      8  C   UNL     1       1.078   9.992  18.473  0.00  0.00    +0.000 A 
ATOM      9  C   UNL     1       0.729   9.995  19.813  0.00  0.00    +0.000 A 
ATOM     10  N   UNL     1       0.072  11.051  20.312  0.00  0.00    +0.000 NA
ENDROOT
BRANCH   1  22
ATOM     11  C   UNL     1       0.866  14.079  21.647  0.00  0.00    +0.000 C 
ATOM     12  C   UNL     1      -0.485  13.593  22.046  0.00  0.00    +0.000 A 
ATOM     13  N   UNL     1      -1.424  14.535  22.440  0.00  0.00    +0.000 NA
ATOM     14  C   UNL     1      -2.565  13.967  22.766  0.00  0.00    +0.000 A 
ATOM     15  N   UNL     1      -3.693  14.661  23.068  0.00  0.00    +0.000 N 
ATOM     16  C   UNL     1      -4.712  14.162  23.993  0.00  0.00    +0.000 C 
ATOM     17  C   UNL     1      -6.090  14.667  23.533  0.00  0.00    +0.000 C 
ATOM     18  O   UNL     1      -6.117  16.100  23.406  0.00  0.00    +0.000 OA
ATOM     19  C   UNL     1      -5.118  16.539  22.467  0.00  0.00    +0.000 C 
ATOM     20  C   UNL     1      -3.707  16.117  22.907  0.00  0.00    +0.000 C 
ATOM     21  S   UNL     1      -2.533  12.245  22.660  0.00  0.00    +0.000 S 
ATOM     22  C   UNL     1      -0.931  12.280  22.059  0.00  0.00    +0.000 A 
ENDBRANCH   1  22
BRANCH   6  23
ATOM     23  C   UNL     1       3.112   6.783  18.132  0.00  0.00    +0.000 C 
BRANCH  23  24
ATOM     24  C   UNL     1       3.111   5.513  19.007  0.00  0.00    +0.000 C 
BRANCH  24  25
ATOM     25  N   UNL     1       2.215   4.483  18.486  0.00  0.00    +0.000 NA
ATOM     26  C   UNL     1       2.886   3.403  17.757  0.00  0.00    +0.000 C 
ATOM     27  C   UNL     1       2.228   2.111  18.211  0.00  0.00    +0.000 C 
ATOM     28  C   UNL     1       0.909   2.561  18.804  0.00  0.00    +0.000 C 
ATOM     29  C   UNL     1       1.247   3.911  19.434  0.00  0.00    +0.000 C 
ATOM     30  C   UNL     1       1.707   3.740  20.885  0.00  0.00    +0.000 C 
ENDBRANCH  24  25
ENDBRANCH  23  24
ENDBRANCH   6  23
TORSDOF 4
ENDMDL
MODEL 8
REMARK VINA RESULT:      -8.2      1.140      1.329
REMARK  Name = 
REMARK  6 active torsions:
REMARK  status: ('A' for Active; 'I' for Inactive)
REMARK    1  A    between atoms: C_1  and  C_2
REMARK    2  A    between atoms: C_12  and  C_13
REMARK    3  A    between atoms: C_18  and  C_19
REMARK    4  A    between atoms: C_19  and  C_20
REMARK    5  A    between atoms: C_20  and  N_21
REMARK    6  A    between atoms: C_25  and  C_26
REMARK                            x       y       z     vdW  Elec       q    Type
REMARK                         _______ _______ _______ _____ _____    ______ ____
ROOT
ATOM      1  C   UNL     1       1.001  10.055  19.457  0.00  0.00    +0.000 A 
ATOM      2  C   UNL     1       1.581  10.104  18.194  0.00  0.00    +0.000 A 
ATOM      3  C   UNL     1       2.266   8.983  17.737  0.00  0.00    +0.000 A 
ATOM      4  C   UNL     1       2.347   7.841  18.541  0.00  0.00    +0.000 A 
ATOM      5  C   UNL     1       2.970   6.660  18.099  0.00  0.00    +0.000 A 
ATOM      6  C   UNL     1       3.004   5.522  18.914  0.00  0.00    +0.000 A 
ATOM      7  C   UNL     1       2.464   5.602  20.200  0.00  0.00    +0.000 A 
ATOM      8  C   UNL     1       1.850   6.780  20.635  0.00  0.00    +0.000 A 
ATOM      9  C   UNL     1       1.756   7.893  19.818  0.00  0.00    +0.000 A 
ATOM     10  N   UNL     1       1.099   8.974  20.261  0.00  0.00    +0.000 NA
ENDROOT
BRANCH   1  22
ATOM     11  C   UNL     1       0.709  13.092  18.410  0.00  0.00    +0.000 C 
ATOM     12  C   UNL     1       0.053  12.454  19.586  0.00  0.00    +0.000 A 
ATOM     13  N   UNL     1      -0.840  13.217  20.325  0.00  0.00    +0.000 NA
ATOM     14  C   UNL     1      -1.337  12.531  21.330  0.00  0.00    +0.000 A 
ATOM     15  N   UNL     1      -2.326  12.991  22.140  0.00  0.00    +0.000 N 
ATOM     16  C   UNL     1      -2.456  12.597  23.544  0.00  0.00    +0.000 C 
ATOM     17  C   UNL     1      -3.947  12.571  23.917  0.00  0.00    +0.000 C 
ATOM     18  O   UNL     1      -4.587  13.829  23.638  0.00  0.00    +0.000 OA
ATOM     19  C   UNL     1      -4.458  14.160  22.243  0.00  0.00    +0.000 C 
ATOM     20  C   UNL     1      -2.983  14.263  21.823  0.00  0.00    +0.000 C 
ATOM     21  S   UNL     1      -0.698  10.934  21.460  0.00  0.00    +0.000 S 
ATOM     22  C   UNL     1       0.224  11.154  20.035  0.00  0.00    +0.000 A 
ENDBRANCH   1  22
BRANCH   6  23
ATOM     23  C   UNL     1       3.590   4.227  18.398  0.00  0.00    +0.000 C 
BRANCH  23  24
ATOM     24  C   UNL     1       5.126   4.187  18.533  0.00  0.00    +0.000 C 
BRANCH  24  25
ATOM     25  N   UNL     1       5.792   4.078  17.237  0.00  0.00    +0.000 NA
ATOM     26  C   UNL     1       4.895   4.166  16.081  0.00  0.00    +0.000 C 
ATOM     27  C   UNL     1       5.595   5.055  15.067  0.00  0.00    +0.000 C 
ATOM     28  C   UNL     1       7.047   5.031  15.500  0.00  0.00    +0.000 C 
ATOM     29  C   UNL     1       6.960   4.945  17.022  0.00  0.00    +0.000 C 
ATOM     30  C   UNL     1       6.919   6.342  17.649  0.00  0.00    +0.000 C 
ENDBRANCH  24  25
ENDBRANCH  23  24
ENDBRANCH   6  23
TORSDOF 4
ENDMDL
MODEL 9
REMARK VINA RESULT:      -8.2      1.903      3.171
REMARK  Name = 
REMARK  6 active torsions:
REMARK  status: ('A' for Active; 'I' for Inactive)
REMARK    1  A    between atoms: C_1  and  C_2
REMARK    2  A    between atoms: C_12  and  C_13
REMARK    3  A    between atoms: C_18  and  C_19
REMARK    4  A    between atoms: C_19  and  C_20
REMARK    5  A    between atoms: C_20  and  N_21
REMARK    6  A    between atoms: C_25  and  C_26
REMARK                            x       y       z     vdW  Elec       q    Type
REMARK                         _______ _______ _______ _____ _____    ______ ____
ROOT
ATOM      1  C   UNL     1      -0.272  10.373  20.900  0.00  0.00    +0.000 A 
ATOM      2  C   UNL     1      -0.125   9.351  21.831  0.00  0.00    +0.000 A 
ATOM      3  C   UNL     1       0.689   8.271  21.505  0.00  0.00    +0.000 A 
ATOM      4  C   UNL     1       1.340   8.240  20.267  0.00  0.00    +0.000 A 
ATOM      5  C   UNL     1       2.224   7.203  19.916  0.00  0.00    +0.000 A 
ATOM      6  C   UNL     1       2.889   7.219  18.684  0.00  0.00    +0.000 A 
ATOM      7  C   UNL     1       2.608   8.249  17.783  0.00  0.00    +0.000 A 
ATOM      8  C   UNL     1       1.726   9.274  18.136  0.00  0.00    +0.000 A 
ATOM      9  C   UNL     1       1.107   9.303  19.375  0.00  0.00    +0.000 A 
ATOM     10  N   UNL     1       0.321  10.343  19.686  0.00  0.00    +0.000 NA
ENDROOT
BRANCH   1  22
ATOM     11  C   UNL     1      -2.341  11.852  18.916  0.00  0.00    +0.000 C 
ATOM     12  C   UNL     1      -1.989  12.213  20.318  0.00  0.00    +0.000 A 
ATOM     13  N   UNL     1      -2.648  13.287  20.897  0.00  0.00    +0.000 NA
ATOM     14  C   UNL     1      -2.238  13.492  22.130  0.00  0.00    +0.000 A 
ATOM     15  N   UNL     1      -2.801  14.399  22.970  0.00  0.00    +0.000 N 
ATOM     16  C   UNL     1      -2.050  15.085  24.023  0.00  0.00    +0.000 C 
ATOM     17  C   UNL     1      -2.988  15.345  25.213  0.00  0.00    +0.000 C 
ATOM     18  O   UNL     1      -4.164  16.073  24.814  0.00  0.00    +0.000 OA
ATOM     19  C   UNL     1      -4.883  15.347  23.800  0.00  0.00    +0.000 C 
ATOM     20  C   UNL     1      -4.013  15.110  22.555  0.00  0.00    +0.000 C 
ATOM     21  S   UNL     1      -0.984  12.417  22.628  0.00  0.00    +0.000 S 
ATOM     22  C   UNL     1      -1.068  11.579  21.139  0.00  0.00    +0.000 A 
ENDBRANCH   1  22
BRANCH   6  23
ATOM     23  C   UNL     1       3.909   6.154  18.350  0.00  0.00    +0.000 C 
BRANCH  23  24
ATOM     24  C   UNL     1       3.351   5.095  17.378  0.00  0.00    +0.000 C 
BRANCH  24  25
ATOM     25  N   UNL     1       3.800   3.745  17.714  0.00  0.00    +0.000 NA
ATOM     26  C   UNL     1       4.658   3.665  18.899  0.00  0.00    +0.000 C 
ATOM     27  C   UNL     1       4.184   2.456  19.687  0.00  0.00    +0.000 C 
ATOM     28  C   UNL     1       3.405   1.642  18.674  0.00  0.00    +0.000 C 
ATOM     29  C   UNL     1       2.762   2.705  17.786  0.00  0.00    +0.000 C 
ATOM     30  C   UNL     1       1.392   3.121  18.330  0.00  0.00    +0.000 C 
ENDBRANCH  24  25
ENDBRANCH  23  24
ENDBRANCH   6  23
TORSDOF 4
ENDMDL
