MODEL 1
REMARK VINA RESULT:      -7.6      0.000      0.000
REMARK  Name = 
REMARK  3 active torsions:
REMARK  status: ('A' for Active; 'I' for Inactive)
REMARK    1  A    between atoms: C_1  and  N_2
REMARK    2  A    between atoms: C_5  and  C_6
REMARK    3  A    between atoms: C_16  and  C_17
REMARK                            x       y       z     vdW  Elec       q    Type
REMARK                         _______ _______ _______ _____ _____    ______ ____
ROOT
ATOM      1  C   UNL     1      -0.161  10.004  17.934  0.00  0.00    +0.000 C 
ATOM      2  N   UNL     1      -0.644  10.132  19.321  0.00  0.00    +0.000 NA
ATOM      3  C   UNL     1      -1.734  11.123  19.310  0.00  0.00    +0.000 C 
ATOM      4  C   UNL     1      -1.950  12.032  20.525  0.00  0.00    +0.000 C 
ATOM      5  C   UNL     1      -0.768  12.196  21.522  0.00  0.00    +0.000 C 
ATOM      6  C   UNL     1      -0.851  11.289  22.783  0.00  0.00    +0.000 C 
ATOM      7  C   UNL     1      -0.004  10.027  22.775  0.00  0.00    +0.000 C 
ATOM      8  O   UNL     1       0.362   9.516  23.823  0.00  0.00    +0.000 OA
ATOM      9  C   UNL     1       0.423   9.432  21.455  0.00  0.00    +0.000 C 
ATOM     10  C   UNL     1       0.854   8.149  21.548  0.00  0.00    +0.000 C 
ATOM     11  C   UNL     1       0.468  10.377  20.260  0.00  0.00    +0.000 C 
ATOM     12  C   UNL     1       0.508  11.844  20.725  0.00  0.00    +0.000 C 
ENDROOT
BRANCH  10  13
ATOM     13  C   UNL     1       1.535   7.383  20.504  0.00  0.00    +0.000 A 
ATOM     14  C   UNL     1       2.090   7.984  19.371  0.00  0.00    +0.000 A 
ATOM     15  C   UNL     1       2.802   7.208  18.448  0.00  0.00    +0.000 A 
ATOM     16  C   UNL     1       2.956   5.833  18.651  0.00  0.00    +0.000 A 
ATOM     17 CL   UNL     1       3.941   4.952  17.536  0.00  0.00    +0.000 Cl
ATOM     18  C   UNL     1       2.338   5.220  19.744  0.00  0.00    +0.000 A 
ATOM     19 CL   UNL     1       2.455   3.523  20.050  0.00  0.00    +0.000 Cl
ATOM     20  C   UNL     1       1.615   5.993  20.654  0.00  0.00    +0.000 A 
ENDBRANCH  10  13
BRANCH   5  21
ATOM     21  C   UNL     1      -0.742  13.653  22.048  0.00  0.00    +0.000 A 
ATOM     22  C   UNL     1      -0.392  14.754  21.239  0.00  0.00    +0.000 A 
ATOM     23  C   UNL     1      -0.294  16.047  21.771  0.00  0.00    +0.000 A 
ATOM     24  C   UNL     1      -0.596  16.262  23.107  0.00  0.00    +0.000 A 
ATOM     25  C   UNL     1      -1.058  15.213  23.895  0.00  0.00    +0.000 A 
ATOM     26  C   UNL     1      -1.137  13.926  23.367  0.00  0.00    +0.000 A 
ENDBRANCH   5  21
TORSDOF 2
ENDMDL
MODEL 2
REMARK VINA RESULT:      -7.5      4.184      7.801
REMARK  Name = 
REMARK  3 active torsions:
REMARK  status: ('A' for Active; 'I' for Inactive)
REMARK    1  A    between atoms: C_1  and  N_2
REMARK    2  A    between atoms: C_5  and  C_6
REMARK    3  A    between atoms: C_16  and  C_17
REMARK                            x       y       z     vdW  Elec       q    Type
REMARK                         _______ _______ _______ _____ _____    ______ ____
ROOT
ATOM      1  C   UNL     1      -1.233  12.568  18.875  0.00  0.00    +0.000 C 
ATOM      2  N   UNL     1      -0.260  11.956  19.800  0.00  0.00    +0.000 NA
ATOM      3  C   UNL     1       0.939  11.628  19.010  0.00  0.00    +0.000 C 
ATOM      4  C   UNL     1       1.779  10.399  19.373  0.00  0.00    +0.000 C 
ATOM      5  C   UNL     1       1.111   9.304  20.253  0.00  0.00    +0.000 C 
ATOM      6  C   UNL     1       1.448   9.393  21.769  0.00  0.00    +0.000 C 
ATOM      7  C   UNL     1       0.402  10.033  22.666  0.00  0.00    +0.000 C 
ATOM      8  O   UNL     1       0.341   9.751  23.853  0.00  0.00    +0.000 OA
ATOM      9  C   UNL     1      -0.599  10.992  22.066  0.00  0.00    +0.000 C 
ATOM     10  C   UNL     1      -1.237  11.760  22.984  0.00  0.00    +0.000 C 
ATOM     11  C   UNL     1      -0.868  10.855  20.573  0.00  0.00    +0.000 C 
ATOM     12  C   UNL     1      -0.412   9.478  20.059  0.00  0.00    +0.000 C 
ENDROOT
BRANCH  10  13
ATOM     13  C   UNL     1      -2.404  12.610  22.746  0.00  0.00    +0.000 A 
ATOM     14  C   UNL     1      -2.384  13.680  21.848  0.00  0.00    +0.000 A 
ATOM     15  C   UNL     1      -3.556  14.406  21.601  0.00  0.00    +0.000 A 
ATOM     16  C   UNL     1      -4.747  14.069  22.253  0.00  0.00    +0.000 A 
ATOM     17 CL   UNL     1      -6.183  14.928  21.820  0.00  0.00    +0.000 Cl
ATOM     18  C   UNL     1      -4.749  13.047  23.206  0.00  0.00    +0.000 A 
ATOM     19 CL   UNL     1      -6.169  12.588  24.078  0.00  0.00    +0.000 Cl
ATOM     20  C   UNL     1      -3.574  12.336  23.463  0.00  0.00    +0.000 A 
ENDBRANCH  10  13
BRANCH   5  21
ATOM     21  C   UNL     1       1.601   7.909  19.790  0.00  0.00    +0.000 A 
ATOM     22  C   UNL     1       2.213   7.688  18.539  0.00  0.00    +0.000 A 
ATOM     23  C   UNL     1       2.563   6.398  18.117  0.00  0.00    +0.000 A 
ATOM     24  C   UNL     1       2.354   5.320  18.964  0.00  0.00    +0.000 A 
ATOM     25  C   UNL     1       1.862   5.528  20.249  0.00  0.00    +0.000 A 
ATOM     26  C   UNL     1       1.498   6.810  20.657  0.00  0.00    +0.000 A 
ENDBRANCH   5  21
TORSDOF 2
ENDMDL
MODEL 3
REMARK VINA RESULT:      -7.5      4.707      8.090
REMARK  Name = 
REMARK  3 active torsions:
REMARK  status: ('A' for Active; 'I' for Inactive)
REMARK    1  A    between atoms: C_1  and  N_2
REMARK    2  A    between atoms: C_5  and  C_6
REMARK    3  A    between atoms: C_16  and  C_17
REMARK                            x       y       z     vdW  Elec       q    Type
REMARK                         _______ _______ _______ _____ _____    ______ ____
ROOT
ATOM      1  C   UNL     1      -1.329  14.141  19.818  0.00  0.00    +0.000 C 
ATOM      2  N   UNL     1      -0.528  13.218  20.644  0.00  0.00    +0.000 NA
ATOM      3  C   UNL     1       0.808  13.137  20.029  0.00  0.00    +0.000 C 
ATOM      4  C   UNL     1       1.603  11.829  20.104  0.00  0.00    +0.000 C 
ATOM      5  C   UNL     1       0.817  10.524  20.417  0.00  0.00    +0.000 C 
ATOM      6  C   UNL     1       0.860  10.080  21.907  0.00  0.00    +0.000 C 
ATOM      7  C   UNL     1      -0.356  10.414  22.755  0.00  0.00    +0.000 C 
ATOM      8  O   UNL     1      -0.630   9.747  23.742  0.00  0.00    +0.000 OA
ATOM      9  C   UNL     1      -1.256  11.554  22.342  0.00  0.00    +0.000 C 
ATOM     10  C   UNL     1      -2.079  11.986  23.329  0.00  0.00    +0.000 C 
ATOM     11  C   UNL     1      -1.235  11.942  20.868  0.00  0.00    +0.000 C 
ATOM     12  C   UNL     1      -0.647  10.806  20.012  0.00  0.00    +0.000 C 
ENDROOT
BRANCH  10  13
ATOM     13  C   UNL     1      -3.206  12.907  23.180  0.00  0.00    +0.000 A 
ATOM     14  C   UNL     1      -4.282  12.647  22.327  0.00  0.00    +0.000 A 
ATOM     15  C   UNL     1      -5.371  13.526  22.291  0.00  0.00    +0.000 A 
ATOM     16  C   UNL     1      -5.386  14.667  23.099  0.00  0.00    +0.000 A 
ATOM     17 CL   UNL     1      -6.808  15.651  23.091  0.00  0.00    +0.000 Cl
ATOM     18  C   UNL     1      -4.278  14.966  23.896  0.00  0.00    +0.000 A 
ATOM     19 CL   UNL     1      -4.203  16.370  24.901  0.00  0.00    +0.000 Cl
ATOM     20  C   UNL     1      -3.185  14.096  23.919  0.00  0.00    +0.000 A 
ENDBRANCH  10  13
BRANCH   5  21
ATOM     21  C   UNL     1       1.429   9.353  19.607  0.00  0.00    +0.000 A 
ATOM     22  C   UNL     1       1.747   9.452  18.237  0.00  0.00    +0.000 A 
ATOM     23  C   UNL     1       2.217   8.345  17.517  0.00  0.00    +0.000 A 
ATOM     24  C   UNL     1       2.424   7.140  18.170  0.00  0.00    +0.000 A 
ATOM     25  C   UNL     1       2.230   7.050  19.545  0.00  0.00    +0.000 A 
ATOM     26  C   UNL     1       1.745   8.148  20.254  0.00  0.00    +0.000 A 
ENDBRANCH   5  21
TORSDOF 2
ENDMDL
MODEL 4
REMARK VINA RESULT:      -7.3      0.724      1.449
REMARK  Name = 
REMARK  3 active torsions:
REMARK  status: ('A' for Active; 'I' for Inactive)
REMARK    1  A    between atoms: C_1  and  N_2
REMARK    2  A    between atoms: C_5  and  C_6
REMARK    3  A    between atoms: C_16  and  C_17
REMARK                            x       y       z     vdW  Elec       q    Type
REMARK                         _______ _______ _______ _____ _____    ______ ____
ROOT
ATOM      1  C   UNL     1       0.009   9.621  17.855  0.00  0.00    +0.000 C 
ATOM      2  N   UNL     1      -0.503   9.898  19.210  0.00  0.00    +0.000 NA
ATOM      3  C   UNL     1      -1.523  10.953  19.080  0.00  0.00    +0.000 C 
ATOM      4  C   UNL     1      -1.711  11.976  20.206  0.00  0.00    +0.000 C 
ATOM      5  C   UNL     1      -0.548  12.149  21.224  0.00  0.00    +0.000 C 
ATOM      6  C   UNL     1      -0.726  11.361  22.554  0.00  0.00    +0.000 C 
ATOM      7  C   UNL     1       0.034  10.052  22.680  0.00  0.00    +0.000 C 
ATOM      8  O   UNL     1       0.337   9.610  23.778  0.00  0.00    +0.000 OA
ATOM      9  C   UNL     1       0.457   9.318  21.429  0.00  0.00    +0.000 C 
ATOM     10  C   UNL     1       0.799   8.023  21.644  0.00  0.00    +0.000 C 
ATOM     11  C   UNL     1       0.597  10.152  20.161  0.00  0.00    +0.000 C 
ATOM     12  C   UNL     1       0.723  11.648  20.502  0.00  0.00    +0.000 C 
ENDROOT
BRANCH  10  13
ATOM     13  C   UNL     1       1.455   7.128  20.692  0.00  0.00    +0.000 A 
ATOM     14  C   UNL     1       1.377   5.737  20.790  0.00  0.00    +0.000 A 
ATOM     15  C   UNL     1       1.958   4.934  19.801  0.00  0.00    +0.000 A 
ATOM     16  C   UNL     1       2.620   5.517  18.716  0.00  0.00    +0.000 A 
ATOM     17 CL   UNL     1       3.215   4.475  17.471  0.00  0.00    +0.000 Cl
ATOM     18  C   UNL     1       2.763   6.905  18.657  0.00  0.00    +0.000 A 
ATOM     19 CL   UNL     1       3.592   7.703  17.367  0.00  0.00    +0.000 Cl
ATOM     20  C   UNL     1       2.198   7.704  19.654  0.00  0.00    +0.000 A 
ENDBRANCH  10  13
BRANCH   5  21
ATOM     21  C   UNL     1      -0.440  13.641  21.626  0.00  0.00    +0.000 A 
ATOM     22  C   UNL     1      -0.054  14.652  20.721  0.00  0.00    +0.000 A 
ATOM     23  C   UNL     1       0.118  15.978  21.141  0.00  0.00    +0.000 A 
ATOM     24  C   UNL     1      -0.143  16.318  22.460  0.00  0.00    +0.000 A 
ATOM     25  C   UNL     1      -0.638  15.363  23.341  0.00  0.00    +0.000 A 
ATOM     26  C   UNL     1      -0.791  14.041  22.924  0.00  0.00    +0.000 A 
ENDBRANCH   5  21
TORSDOF 2
ENDMDL
MODEL 5
REMARK VINA RESULT:      -7.3      5.152     10.455
REMARK  Name = 
REMARK  3 active torsions:
REMARK  status: ('A' for Active; 'I' for Inactive)
REMARK    1  A    between atoms: C_1  and  N_2
REMARK    2  A    between atoms: C_5  and  C_6
REMARK    3  A    between atoms: C_16  and  C_17
REMARK                            x       y       z     vdW  Elec       q    Type
REMARK                         _______ _______ _______ _____ _____    ______ ____
ROOT
ATOM      1  C   UNL     1       5.715   8.181  17.828  0.00  0.00    +0.000 C 
ATOM      2  N   UNL     1       5.678   6.719  17.635  0.00  0.00    +0.000 NA
ATOM      3  C   UNL     1       7.002   6.317  17.129  0.00  0.00    +0.000 C 
ATOM      4  C   UNL     1       7.120   5.139  16.155  0.00  0.00    +0.000 C 
ATOM      5  C   UNL     1       5.837   4.702  15.393  0.00  0.00    +0.000 C 
ATOM      6  C   UNL     1       5.088   3.492  16.020  0.00  0.00    +0.000 C 
ATOM      7  C   UNL     1       3.865   3.809  16.865  0.00  0.00    +0.000 C 
ATOM      8  O   UNL     1       2.975   2.984  17.008  0.00  0.00    +0.000 OA
ATOM      9  C   UNL     1       3.734   5.175  17.495  0.00  0.00    +0.000 C 
ATOM     10  C   UNL     1       2.817   5.232  18.492  0.00  0.00    +0.000 C 
ATOM     11  C   UNL     1       4.508   6.310  16.834  0.00  0.00    +0.000 C 
ATOM     12  C   UNL     1       4.905   5.935  15.395  0.00  0.00    +0.000 C 
ENDROOT
BRANCH  10  13
ATOM     13  C   UNL     1       2.305   6.443  19.134  0.00  0.00    +0.000 A 
ATOM     14  C   UNL     1       1.907   6.473  20.473  0.00  0.00    +0.000 A 
ATOM     15  C   UNL     1       1.505   7.682  21.054  0.00  0.00    +0.000 A 
ATOM     16  C   UNL     1       1.492   8.860  20.298  0.00  0.00    +0.000 A 
ATOM     17 CL   UNL     1       1.094  10.337  21.103  0.00  0.00    +0.000 Cl
ATOM     18  C   UNL     1       1.818   8.815  18.940  0.00  0.00    +0.000 A 
ATOM     19 CL   UNL     1       1.799  10.217  17.930  0.00  0.00    +0.000 Cl
ATOM     20  C   UNL     1       2.203   7.604  18.359  0.00  0.00    +0.000 A 
ENDBRANCH  10  13
BRANCH   5  21
ATOM     21  C   UNL     1       6.221   4.266  13.956  0.00  0.00    +0.000 A 
ATOM     22  C   UNL     1       5.475   3.326  13.215  0.00  0.00    +0.000 A 
ATOM     23  C   UNL     1       5.901   2.890  11.954  0.00  0.00    +0.000 A 
ATOM     24  C   UNL     1       7.052   3.427  11.396  0.00  0.00    +0.000 A 
ATOM     25  C   UNL     1       7.739   4.441  12.056  0.00  0.00    +0.000 A 
ATOM     26  C   UNL     1       7.321   4.859  13.318  0.00  0.00    +0.000 A 
ENDBRANCH   5  21
TORSDOF 2
ENDMDL
MODEL 6
REMARK VINA RESULT:      -7.3      4.296      7.943
REMARK  Name = 
REMARK  3 active torsions:
REMARK  status: ('A' for Active; 'I' for Inactive)
REMARK    1  A    between atoms: C_1  and  N_2
REMARK    2  A    between atoms: C_5  and  C_6
REMARK    3  A    between atoms: C_16  and  C_17
REMARK                            x       y       z     vdW  Elec       q    Type
REMARK                         _______ _______ _______ _____ _____    ______ ____
ROOT
ATOM      1  C   UNL     1      -1.127  12.614  18.767  0.00  0.00    +0.000 C 
ATOM      2  N   UNL     1      -0.185  11.997  19.719  0.00  0.00    +0.000 NA
ATOM      3  C   UNL     1       1.027  11.644  18.959  0.00  0.00    +0.000 C 
ATOM      4  C   UNL     1       1.841  10.406  19.353  0.00  0.00    +0.000 C 
ATOM      5  C   UNL     1       1.137   9.329  20.227  0.00  0.00    +0.000 C 
ATOM      6  C   UNL     1       1.441   9.428  21.750  0.00  0.00    +0.000 C 
ATOM      7  C   UNL     1       0.384  10.092  22.616  0.00  0.00    +0.000 C 
ATOM      8  O   UNL     1       0.292   9.822  23.805  0.00  0.00    +0.000 OA
ATOM      9  C   UNL     1      -0.589  11.060  21.986  0.00  0.00    +0.000 C 
ATOM     10  C   UNL     1      -1.236  11.846  22.882  0.00  0.00    +0.000 C 
ATOM     11  C   UNL     1      -0.826  10.912  20.488  0.00  0.00    +0.000 C 
ATOM     12  C   UNL     1      -0.379   9.524  19.997  0.00  0.00    +0.000 C 
ENDROOT
BRANCH  10  13
ATOM     13  C   UNL     1      -2.384  12.710  22.609  0.00  0.00    +0.000 A 
ATOM     14  C   UNL     1      -3.694  12.345  22.930  0.00  0.00    +0.000 A 
ATOM     15  C   UNL     1      -4.741  13.250  22.721  0.00  0.00    +0.000 A 
ATOM     16  C   UNL     1      -4.485  14.517  22.187  0.00  0.00    +0.000 A 
ATOM     17 CL   UNL     1      -5.804  15.628  22.059  0.00  0.00    +0.000 Cl
ATOM     18  C   UNL     1      -3.187  14.854  21.796  0.00  0.00    +0.000 A 
ATOM     19 CL   UNL     1      -2.790  16.386  21.101  0.00  0.00    +0.000 Cl
ATOM     20  C   UNL     1      -2.146  13.944  21.990  0.00  0.00    +0.000 A 
ENDBRANCH  10  13
BRANCH   5  21
ATOM     21  C   UNL     1       1.617   7.923  19.788  0.00  0.00    +0.000 A 
ATOM     22  C   UNL     1       2.232   7.676  18.544  0.00  0.00    +0.000 A 
ATOM     23  C   UNL     1       2.573   6.377  18.145  0.00  0.00    +0.000 A 
ATOM     24  C   UNL     1       2.350   5.315  19.007  0.00  0.00    +0.000 A 
ATOM     25  C   UNL     1       1.853   5.547  20.286  0.00  0.00    +0.000 A 
ATOM     26  C   UNL     1       1.499   6.839  20.672  0.00  0.00    +0.000 A 
ENDBRANCH   5  21
TORSDOF 2
ENDMDL
MODEL 7
REMARK VINA RESULT:      -7.3      4.472      7.953
REMARK  Name = 
REMARK  3 active torsions:
REMARK  status: ('A' for Active; 'I' for Inactive)
REMARK    1  A    between atoms: C_1  and  N_2
REMARK    2  A    between atoms: C_5  and  C_6
REMARK    3  A    between atoms: C_16  and  C_17
REMARK                            x       y       z     vdW  Elec       q    Type
REMARK                         _______ _______ _______ _____ _____    ______ ____
ROOT
ATOM      1  C   UNL     1      -1.140  14.084  19.436  0.00  0.00    +0.000 C 
ATOM      2  N   UNL     1      -0.395  13.190  20.343  0.00  0.00    +0.000 NA
ATOM      3  C   UNL     1       0.951  13.019  19.771  0.00  0.00    +0.000 C 
ATOM      4  C   UNL     1       1.694  11.691  19.954  0.00  0.00    +0.000 C 
ATOM      5  C   UNL     1       0.851  10.440  20.331  0.00  0.00    +0.000 C 
ATOM      6  C   UNL     1       0.840  10.096  21.848  0.00  0.00    +0.000 C 
ATOM      7  C   UNL     1      -0.382  10.530  22.639  0.00  0.00    +0.000 C 
ATOM      8  O   UNL     1      -0.706   9.942  23.660  0.00  0.00    +0.000 OA
ATOM      9  C   UNL     1      -1.228  11.672  22.127  0.00  0.00    +0.000 C 
ATOM     10  C   UNL     1      -2.058  12.199  23.061  0.00  0.00    +0.000 C 
ATOM     11  C   UNL     1      -1.156  11.959  20.632  0.00  0.00    +0.000 C 
ATOM     12  C   UNL     1      -0.591  10.748  19.869  0.00  0.00    +0.000 C 
ENDROOT
BRANCH  10  13
ATOM     13  C   UNL     1      -3.145  13.148  22.821  0.00  0.00    +0.000 A 
ATOM     14  C   UNL     1      -2.947  14.531  22.804  0.00  0.00    +0.000 A 
ATOM     15  C   UNL     1      -4.010  15.384  22.487  0.00  0.00    +0.000 A 
ATOM     16  C   UNL     1      -5.273  14.861  22.191  0.00  0.00    +0.000 A 
ATOM     17 CL   UNL     1      -6.513  15.959  21.696  0.00  0.00    +0.000 Cl
ATOM     18  C   UNL     1      -5.490  13.483  22.281  0.00  0.00    +0.000 A 
ATOM     19 CL   UNL     1      -7.026  12.758  21.961  0.00  0.00    +0.000 Cl
ATOM     20  C   UNL     1      -4.432  12.635  22.614  0.00  0.00    +0.000 A 
ENDBRANCH  10  13
BRANCH   5  21
ATOM     21  C   UNL     1       1.438   9.195  19.618  0.00  0.00    +0.000 A 
ATOM     22  C   UNL     1       1.695   7.980  20.285  0.00  0.00    +0.000 A 
ATOM     23  C   UNL     1       2.308   6.905  19.627  0.00  0.00    +0.000 A 
ATOM     24  C   UNL     1       2.623   7.014  18.281  0.00  0.00    +0.000 A 
ATOM     25  C   UNL     1       2.271   8.159  17.574  0.00  0.00    +0.000 A 
ATOM     26  C   UNL     1       1.678   9.234  18.236  0.00  0.00    +0.000 A 
ENDBRANCH   5  21
TORSDOF 2
ENDMDL
MODEL 8
REMARK VINA RESULT:      -7.3      4.332      7.952
REMARK  Name = 
REMARK  3 active torsions:
REMARK  status: ('A' for Active; 'I' for Inactive)
REMARK    1  A    between atoms: C_1  and  N_2
REMARK    2  A    between atoms: C_5  and  C_6
REMARK    3  A    between atoms: C_16  and  C_17
REMARK                            x       y       z     vdW  Elec       q    Type
REMARK                         _______ _______ _______ _____ _____    ______ ____
ROOT
ATOM      1  C   UNL     1      -3.795  11.935  19.459  0.00  0.00    +0.000 C 
ATOM      2  N   UNL     1      -2.359  12.249  19.350  0.00  0.00    +0.000 NA
ATOM      3  C   UNL     1      -1.889  11.683  18.073  0.00  0.00    +0.000 C 
ATOM      4  C   UNL     1      -0.456  11.153  17.955  0.00  0.00    +0.000 C 
ATOM      5  C   UNL     1       0.298  10.815  19.274  0.00  0.00    +0.000 C 
ATOM      6  C   UNL     1       1.258  11.929  19.778  0.00  0.00    +0.000 C 
ATOM      7  C   UNL     1       0.745  12.820  20.896  0.00  0.00    +0.000 C 
ATOM      8  O   UNL     1       1.523  13.381  21.653  0.00  0.00    +0.000 OA
ATOM      9  C   UNL     1      -0.744  12.971  21.097  0.00  0.00    +0.000 C 
ATOM     10  C   UNL     1      -1.087  14.036  21.864  0.00  0.00    +0.000 C 
ATOM     11  C   UNL     1      -1.624  11.846  20.565  0.00  0.00    +0.000 C 
ATOM     12  C   UNL     1      -0.798  10.568  20.335  0.00  0.00    +0.000 C 
ENDROOT
BRANCH  10  13
ATOM     13  C   UNL     1      -2.411  14.317  22.419  0.00  0.00    +0.000 A 
ATOM     14  C   UNL     1      -3.150  15.449  22.066  0.00  0.00    +0.000 A 
ATOM     15  C   UNL     1      -4.446  15.620  22.568  0.00  0.00    +0.000 A 
ATOM     16  C   UNL     1      -5.004  14.666  23.426  0.00  0.00    +0.000 A 
ATOM     17 CL   UNL     1      -6.647  14.878  23.919  0.00  0.00    +0.000 Cl
ATOM     18  C   UNL     1      -4.238  13.573  23.838  0.00  0.00    +0.000 A 
ATOM     19 CL   UNL     1      -4.840  12.366  24.918  0.00  0.00    +0.000 Cl
ATOM     20  C   UNL     1      -2.939  13.413  23.349  0.00  0.00    +0.000 A 
ENDBRANCH  10  13
BRANCH   5  21
ATOM     21  C   UNL     1       1.182   9.562  19.048  0.00  0.00    +0.000 A 
ATOM     22  C   UNL     1       1.895   9.331  17.854  0.00  0.00    +0.000 A 
ATOM     23  C   UNL     1       2.614   8.145  17.652  0.00  0.00    +0.000 A 
ATOM     24  C   UNL     1       2.670   7.199  18.663  0.00  0.00    +0.000 A 
ATOM     25  C   UNL     1       2.074   7.456  19.894  0.00  0.00    +0.000 A 
ATOM     26  C   UNL     1       1.345   8.629  20.084  0.00  0.00    +0.000 A 
ENDBRANCH   5  21
TORSDOF 2
ENDMDL
MODEL 9
REMARK VINA RESULT:      -7.2      4.748      8.441
REMARK  Name = 
REMARK  3 active torsions:
REMARK  status: ('A' for Active; 'I' for Inactive)
REMARK    1  A    between atoms: C_1  and  N_2
REMARK    2  A    between atoms: C_5  and  C_6
REMARK    3  A    between atoms: C_16  and  C_17
REMARK                            x       y       z     vdW  Elec       q    Type
REMARK                         _______ _______ _______ _____ _____    ______ ____
ROOT
ATOM      1  C   UNL     1      -3.529  12.630  20.327  0.00  0.00    +0.000 C 
ATOM      2  N   UNL     1      -2.106  12.764  19.965  0.00  0.00    +0.000 NA
ATOM      3  C   UNL     1      -1.918  12.060  18.684  0.00  0.00    +0.000 C 
ATOM      4  C   UNL     1      -0.589  11.357  18.388  0.00  0.00    +0.000 C 
ATOM      5  C   UNL     1       0.335  11.024  19.594  0.00  0.00    +0.000 C 
ATOM      6  C   UNL     1       1.478  12.050  19.841  0.00  0.00    +0.000 C 
ATOM      7  C   UNL     1       1.255  13.070  20.944  0.00  0.00    +0.000 C 
ATOM      8  O   UNL     1       2.203  13.587  21.517  0.00  0.00    +0.000 OA
ATOM      9  C   UNL     1      -0.155  13.410  21.364  0.00  0.00    +0.000 C 
ATOM     10  C   UNL     1      -0.251  14.558  22.080  0.00  0.00    +0.000 C 
ATOM     11  C   UNL     1      -1.225  12.362  21.079  0.00  0.00    +0.000 C 
ATOM     12  C   UNL     1      -0.588  10.983  20.833  0.00  0.00    +0.000 C 
ENDROOT
BRANCH  10  13
ATOM     13  C   UNL     1      -1.427  15.031  22.811  0.00  0.00    +0.000 A 
ATOM     14  C   UNL     1      -1.652  14.720  24.154  0.00  0.00    +0.000 A 
ATOM     15  C   UNL     1      -2.753  15.270  24.822  0.00  0.00    +0.000 A 
ATOM     16  C   UNL     1      -3.632  16.126  24.151  0.00  0.00    +0.000 A 
ATOM     17 CL   UNL     1      -4.904  16.862  25.060  0.00  0.00    +0.000 Cl
ATOM     18  C   UNL     1      -3.449  16.377  22.788  0.00  0.00    +0.000 A 
ATOM     19 CL   UNL     1      -4.505  17.398  21.878  0.00  0.00    +0.000 Cl
ATOM     20  C   UNL     1      -2.359  15.814  22.120  0.00  0.00    +0.000 A 
ENDBRANCH  10  13
BRANCH   5  21
ATOM     21  C   UNL     1       1.032   9.663  19.343  0.00  0.00    +0.000 A 
ATOM     22  C   UNL     1       1.264   8.720  20.364  0.00  0.00    +0.000 A 
ATOM     23  C   UNL     1       1.976   7.538  20.117  0.00  0.00    +0.000 A 
ATOM     24  C   UNL     1       2.419   7.262  18.833  0.00  0.00    +0.000 A 
ATOM     25  C   UNL     1       2.100   8.120  17.785  0.00  0.00    +0.000 A 
ATOM     26  C   UNL     1       1.408   9.304  18.039  0.00  0.00    +0.000 A 
ENDBRANCH   5  21
TORSDOF 2
ENDMDL
