MODEL 1
REMARK VINA RESULT:      -7.9      0.000      0.000
REMARK  Name = 
REMARK  9 active torsions:
REMARK  status: ('A' for Active; 'I' for Inactive)
REMARK    1  A    between atoms: C_1  and  O_2
REMARK    2  A    between atoms: O_2  and  C_3
REMARK    3  A    between atoms: C_3  and  C_5
REMARK    4  A    between atoms: C_5  and  C_6
REMARK    5  A    between atoms: C_5  and  N_13
REMARK    6  A    between atoms: C_6  and  C_7
REMARK    7  A    between atoms: N_16  and  C_17
REMARK    8  A    between atoms: C_20  and  S_21
REMARK    9  A    between atoms: S_21  and  N_22
REMARK                            x       y       z     vdW  Elec       q    Type
REMARK                         _______ _______ _______ _____ _____    ______ ____
ROOT
ATOM      1  N   UNL     1       3.284   5.340  20.106  0.00  0.00    +0.000 N 
ATOM      2  C   UNL     1       2.492   6.299  19.529  0.00  0.00    +0.000 C 
ATOM      3  O   UNL     1       2.090   6.202  18.372  0.00  0.00    +0.000 OA
ATOM      4  N   UNL     1       2.282   7.375  20.360  0.00  0.00    +0.000 N 
ATOM      5  H   UNL     1       3.212   5.209  21.110  0.00  0.00    +0.000 HD
ATOM      6  H   UNL     1       3.076   7.591  20.942  0.00  0.00    +0.000 HD
ENDROOT
BRANCH   4   7
ATOM      7  C   UNL     1       1.472   8.459  19.954  0.00  0.00    +0.000 A 
ATOM      8  C   UNL     1       0.483   8.970  20.803  0.00  0.00    +0.000 A 
ATOM      9  C   UNL     1      -0.329  10.028  20.386  0.00  0.00    +0.000 A 
ATOM     10  C   UNL     1      -0.151  10.562  19.110  0.00  0.00    +0.000 A 
ATOM     11  C   UNL     1       0.826  10.051  18.249  0.00  0.00    +0.000 A 
ATOM     12  C   UNL     1       1.659   9.016  18.687  0.00  0.00    +0.000 A 
BRANCH  10  13
ATOM     13  S   UNL     1      -1.202  11.876  18.563  0.00  0.00    +0.000 S 
ATOM     14  O   UNL     1      -2.363  11.945  19.421  0.00  0.00    +0.000 OA
ATOM     15  O   UNL     1      -0.398  13.036  18.252  0.00  0.00    +0.000 OA
BRANCH  13  16
ATOM     16  N   UNL     1      -1.744  11.283  17.092  0.00  0.00    +0.000 NA
ATOM     17  H   UNL     1      -2.208  10.384  17.232  0.00  0.00    +0.000 HD
ATOM     18  H   UNL     1      -2.324  11.982  16.629  0.00  0.00    +0.000 HD
ENDBRANCH  13  16
ENDBRANCH  10  13
ENDBRANCH   4   7
BRANCH   1  19
ATOM     19  C   UNL     1       3.718   4.180  19.319  0.00  0.00    +0.000 C 
BRANCH  19  20
ATOM     20  C   UNL     1       2.998   2.901  19.750  0.00  0.00    +0.000 C 
ATOM     21  O   UNL     1       2.611   2.025  18.986  0.00  0.00    +0.000 OA
BRANCH  20  23
ATOM     22  C   UNL     1       1.556   2.688  21.612  0.00  0.00    +0.000 C 
ATOM     23  O   UNL     1       2.879   2.873  21.111  0.00  0.00    +0.000 OA
ENDBRANCH  20  23
ENDBRANCH  19  20
BRANCH  19  24
ATOM     24  C   UNL     1       5.248   4.011  19.338  0.00  0.00    +0.000 C 
BRANCH  24  25
ATOM     25  C   UNL     1       6.009   5.158  18.704  0.00  0.00    +0.000 A 
ATOM     26  C   UNL     1       5.536   5.774  17.536  0.00  0.00    +0.000 A 
ATOM     27  C   UNL     1       6.268   6.797  16.931  0.00  0.00    +0.000 A 
ATOM     28  C   UNL     1       7.469   7.221  17.489  0.00  0.00    +0.000 A 
ATOM     29  C   UNL     1       7.938   6.629  18.662  0.00  0.00    +0.000 A 
ATOM     30  C   UNL     1       7.213   5.602  19.265  0.00  0.00    +0.000 A 
ENDBRANCH  24  25
ENDBRANCH  19  24
ENDBRANCH   1  19
TORSDOF 8
ENDMDL
MODEL 2
REMARK VINA RESULT:      -7.9      0.192      1.355
REMARK  Name = 
REMARK  9 active torsions:
REMARK  status: ('A' for Active; 'I' for Inactive)
REMARK    1  A    between atoms: C_1  and  O_2
REMARK    2  A    between atoms: O_2  and  C_3
REMARK    3  A    between atoms: C_3  and  C_5
REMARK    4  A    between atoms: C_5  and  C_6
REMARK    5  A    between atoms: C_5  and  N_13
REMARK    6  A    between atoms: C_6  and  C_7
REMARK    7  A    between atoms: N_16  and  C_17
REMARK    8  A    between atoms: C_20  and  S_21
REMARK    9  A    between atoms: S_21  and  N_22
REMARK                            x       y       z     vdW  Elec       q    Type
REMARK                         _______ _______ _______ _____ _____    ______ ____
ROOT
ATOM      1  N   UNL     1       3.301   5.523  20.032  0.00  0.00    +0.000 N 
ATOM      2  C   UNL     1       2.480   6.450  19.444  0.00  0.00    +0.000 C 
ATOM      3  O   UNL     1       2.059   6.313  18.298  0.00  0.00    +0.000 OA
ATOM      4  N   UNL     1       2.264   7.545  20.249  0.00  0.00    +0.000 N 
ATOM      5  H   UNL     1       3.250   5.419  21.041  0.00  0.00    +0.000 HD
ATOM      6  H   UNL     1       3.065   7.792  20.810  0.00  0.00    +0.000 HD
ENDROOT
BRANCH   4   7
ATOM      7  C   UNL     1       1.426   8.600  19.828  0.00  0.00    +0.000 A 
ATOM      8  C   UNL     1       1.598   9.195  18.573  0.00  0.00    +0.000 A 
ATOM      9  C   UNL     1       0.778  10.254  18.173  0.00  0.00    +0.000 A 
ATOM     10  C   UNL     1      -0.208  10.718  19.043  0.00  0.00    +0.000 A 
ATOM     11  C   UNL     1      -0.383  10.138  20.304  0.00  0.00    +0.000 A 
ATOM     12  C   UNL     1       0.419   9.056  20.683  0.00  0.00    +0.000 A 
BRANCH  10  13
ATOM     13  S   UNL     1      -1.224  12.083  18.557  0.00  0.00    +0.000 S 
ATOM     14  O   UNL     1      -2.440  12.072  19.339  0.00  0.00    +0.000 OA
ATOM     15  O   UNL     1      -0.404  13.264  18.415  0.00  0.00    +0.000 OA
BRANCH  13  16
ATOM     16  N   UNL     1      -1.666  11.637  17.003  0.00  0.00    +0.000 NA
ATOM     17  H   UNL     1      -1.190  10.772  16.743  0.00  0.00    +0.000 HD
ATOM     18  H   UNL     1      -2.682  11.590  16.931  0.00  0.00    +0.000 HD
ENDBRANCH  13  16
ENDBRANCH  10  13
ENDBRANCH   4   7
BRANCH   1  19
ATOM     19  C   UNL     1       3.743   4.349  19.270  0.00  0.00    +0.000 C 
BRANCH  19  20
ATOM     20  C   UNL     1       2.989   3.085  19.685  0.00  0.00    +0.000 C 
ATOM     21  O   UNL     1       2.634   2.199  18.918  0.00  0.00    +0.000 OA
BRANCH  20  23
ATOM     22  C   UNL     1       1.488   2.726  21.478  0.00  0.00    +0.000 C 
ATOM     23  O   UNL     1       2.798   3.084  21.039  0.00  0.00    +0.000 OA
ENDBRANCH  20  23
ENDBRANCH  19  20
BRANCH  19  24
ATOM     24  C   UNL     1       5.270   4.156  19.343  0.00  0.00    +0.000 C 
BRANCH  24  25
ATOM     25  C   UNL     1       6.069   5.261  18.683  0.00  0.00    +0.000 A 
ATOM     26  C   UNL     1       7.298   5.675  19.217  0.00  0.00    +0.000 A 
ATOM     27  C   UNL     1       8.005   6.727  18.632  0.00  0.00    +0.000 A 
ATOM     28  C   UNL     1       7.498   7.368  17.506  0.00  0.00    +0.000 A 
ATOM     29  C   UNL     1       6.287   6.951  16.955  0.00  0.00    +0.000 A 
ATOM     30  C   UNL     1       5.575   5.905  17.541  0.00  0.00    +0.000 A 
ENDBRANCH  24  25
ENDBRANCH  19  24
ENDBRANCH   1  19
TORSDOF 8
ENDMDL
MODEL 3
REMARK VINA RESULT:      -7.9      1.155      1.648
REMARK  Name = 
REMARK  9 active torsions:
REMARK  status: ('A' for Active; 'I' for Inactive)
REMARK    1  A    between atoms: C_1  and  O_2
REMARK    2  A    between atoms: O_2  and  C_3
REMARK    3  A    between atoms: C_3  and  C_5
REMARK    4  A    between atoms: C_5  and  C_6
REMARK    5  A    between atoms: C_5  and  N_13
REMARK    6  A    between atoms: C_6  and  C_7
REMARK    7  A    between atoms: N_16  and  C_17
REMARK    8  A    between atoms: C_20  and  S_21
REMARK    9  A    between atoms: S_21  and  N_22
REMARK                            x       y       z     vdW  Elec       q    Type
REMARK                         _______ _______ _______ _____ _____    ______ ____
ROOT
ATOM      1  N   UNL     1       3.335   5.544  20.149  0.00  0.00    +0.000 N 
ATOM      2  C   UNL     1       2.512   6.457  19.543  0.00  0.00    +0.000 C 
ATOM      3  O   UNL     1       2.120   6.315  18.388  0.00  0.00    +0.000 OA
ATOM      4  N   UNL     1       2.257   7.546  20.344  0.00  0.00    +0.000 N 
ATOM      5  H   UNL     1       3.262   5.437  21.156  0.00  0.00    +0.000 HD
ATOM      6  H   UNL     1       3.039   7.806  20.925  0.00  0.00    +0.000 HD
ENDROOT
BRANCH   4   7
ATOM      7  C   UNL     1       1.410   8.588  19.906  0.00  0.00    +0.000 A 
ATOM      8  C   UNL     1       0.403   9.090  20.739  0.00  0.00    +0.000 A 
ATOM      9  C   UNL     1      -0.445  10.105  20.290  0.00  0.00    +0.000 A 
ATOM     10  C   UNL     1      -0.284  10.606  18.999  0.00  0.00    +0.000 A 
ATOM     11  C   UNL     1       0.711  10.105  18.154  0.00  0.00    +0.000 A 
ATOM     12  C   UNL     1       1.579   9.113  18.623  0.00  0.00    +0.000 A 
BRANCH  10  13
ATOM     13  S   UNL     1      -1.381  11.866  18.412  0.00  0.00    +0.000 S 
ATOM     14  O   UNL     1      -2.596  11.840  19.194  0.00  0.00    +0.000 OA
ATOM     15  O   UNL     1      -0.634  13.081  18.180  0.00  0.00    +0.000 OA
BRANCH  13  16
ATOM     16  N   UNL     1      -1.788  11.278  16.897  0.00  0.00    +0.000 NA
ATOM     17  H   UNL     1      -0.962  11.262  16.298  0.00  0.00    +0.000 HD
ATOM     18  H   UNL     1      -2.252  10.374  16.989  0.00  0.00    +0.000 HD
ENDBRANCH  13  16
ENDBRANCH  10  13
ENDBRANCH   4   7
BRANCH   1  19
ATOM     19  C   UNL     1       3.816   4.380  19.395  0.00  0.00    +0.000 C 
BRANCH  19  20
ATOM     20  C   UNL     1       3.403   3.065  20.057  0.00  0.00    +0.000 C 
ATOM     21  O   UNL     1       4.182   2.211  20.463  0.00  0.00    +0.000 OA
BRANCH  20  23
ATOM     22  C   UNL     1       1.521   2.701  21.444  0.00  0.00    +0.000 C 
ATOM     23  O   UNL     1       2.040   3.001  20.149  0.00  0.00    +0.000 OA
ENDBRANCH  20  23
ENDBRANCH  19  20
BRANCH  19  24
ATOM     24  C   UNL     1       5.335   4.443  19.146  0.00  0.00    +0.000 C 
BRANCH  24  25
ATOM     25  C   UNL     1       5.723   4.501  17.683  0.00  0.00    +0.000 A 
ATOM     26  C   UNL     1       7.050   4.748  17.301  0.00  0.00    +0.000 A 
ATOM     27  C   UNL     1       7.391   4.848  15.951  0.00  0.00    +0.000 A 
ATOM     28  C   UNL     1       6.415   4.693  14.971  0.00  0.00    +0.000 A 
ATOM     29  C   UNL     1       5.096   4.427  15.339  0.00  0.00    +0.000 A 
ATOM     30  C   UNL     1       4.752   4.333  16.687  0.00  0.00    +0.000 A 
ENDBRANCH  24  25
ENDBRANCH  19  24
ENDBRANCH   1  19
TORSDOF 8
ENDMDL
MODEL 4
REMARK VINA RESULT:      -7.8      1.113      1.329
REMARK  Name = 
REMARK  9 active torsions:
REMARK  status: ('A' for Active; 'I' for Inactive)
REMARK    1  A    between atoms: C_1  and  O_2
REMARK    2  A    between atoms: O_2  and  C_3
REMARK    3  A    between atoms: C_3  and  C_5
REMARK    4  A    between atoms: C_5  and  C_6
REMARK    5  A    between atoms: C_5  and  N_13
REMARK    6  A    between atoms: C_6  and  C_7
REMARK    7  A    between atoms: N_16  and  C_17
REMARK    8  A    between atoms: C_20  and  S_21
REMARK    9  A    between atoms: S_21  and  N_22
REMARK                            x       y       z     vdW  Elec       q    Type
REMARK                         _______ _______ _______ _____ _____    ______ ____
ROOT
ATOM      1  N   UNL     1       3.270   5.494  20.139  0.00  0.00    +0.000 N 
ATOM      2  C   UNL     1       2.488   6.440  19.529  0.00  0.00    +0.000 C 
ATOM      3  O   UNL     1       2.155   6.349  18.350  0.00  0.00    +0.000 OA
ATOM      4  N   UNL     1       2.202   7.499  20.360  0.00  0.00    +0.000 N 
ATOM      5  H   UNL     1       3.144   5.348  21.136  0.00  0.00    +0.000 HD
ATOM      6  H   UNL     1       2.955   7.727  20.989  0.00  0.00    +0.000 HD
ENDROOT
BRANCH   4   7
ATOM      7  C   UNL     1       1.387   8.566  19.921  0.00  0.00    +0.000 A 
ATOM      8  C   UNL     1       0.372   9.076  20.740  0.00  0.00    +0.000 A 
ATOM      9  C   UNL     1      -0.443  10.117  20.290  0.00  0.00    +0.000 A 
ATOM     10  C   UNL     1      -0.242  10.637  19.012  0.00  0.00    +0.000 A 
ATOM     11  C   UNL     1       0.762  10.129  18.181  0.00  0.00    +0.000 A 
ATOM     12  C   UNL     1       1.597   9.110  18.652  0.00  0.00    +0.000 A 
BRANCH  10  13
ATOM     13  S   UNL     1      -1.296  11.931  18.423  0.00  0.00    +0.000 S 
ATOM     14  O   UNL     1      -2.480  11.993  19.251  0.00  0.00    +0.000 OA
ATOM     15  O   UNL     1      -0.500  13.098  18.120  0.00  0.00    +0.000 OA
BRANCH  13  16
ATOM     16  N   UNL     1      -1.793  11.314  16.947  0.00  0.00    +0.000 NA
ATOM     17  H   UNL     1      -1.700  10.297  16.948  0.00  0.00    +0.000 HD
ATOM     18  H   UNL     1      -2.733  11.645  16.731  0.00  0.00    +0.000 HD
ENDBRANCH  13  16
ENDBRANCH  10  13
ENDBRANCH   4   7
BRANCH   1  19
ATOM     19  C   UNL     1       3.779   4.356  19.364  0.00  0.00    +0.000 C 
BRANCH  19  20
ATOM     20  C   UNL     1       3.370   3.019  19.984  0.00  0.00    +0.000 C 
ATOM     21  O   UNL     1       3.552   1.924  19.466  0.00  0.00    +0.000 OA
BRANCH  20  23
ATOM     22  C   UNL     1       1.473   2.728  21.367  0.00  0.00    +0.000 C 
ATOM     23  O   UNL     1       2.799   3.231  21.207  0.00  0.00    +0.000 OA
ENDBRANCH  20  23
ENDBRANCH  19  20
BRANCH  19  24
ATOM     24  C   UNL     1       5.301   4.444  19.144  0.00  0.00    +0.000 C 
BRANCH  24  25
ATOM     25  C   UNL     1       5.716   4.522  17.689  0.00  0.00    +0.000 A 
ATOM     26  C   UNL     1       4.770   4.372  16.664  0.00  0.00    +0.000 A 
ATOM     27  C   UNL     1       5.167   4.396  15.326  0.00  0.00    +0.000 A 
ATOM     28  C   UNL     1       6.507   4.580  14.999  0.00  0.00    +0.000 A 
ATOM     29  C   UNL     1       7.453   4.750  16.009  0.00  0.00    +0.000 A 
ATOM     30  C   UNL     1       7.060   4.720  17.347  0.00  0.00    +0.000 A 
ENDBRANCH  24  25
ENDBRANCH  19  24
ENDBRANCH   1  19
TORSDOF 8
ENDMDL
MODEL 5
REMARK VINA RESULT:      -7.8      0.472      1.396
REMARK  Name = 
REMARK  9 active torsions:
REMARK  status: ('A' for Active; 'I' for Inactive)
REMARK    1  A    between atoms: C_1  and  O_2
REMARK    2  A    between atoms: O_2  and  C_3
REMARK    3  A    between atoms: C_3  and  C_5
REMARK    4  A    between atoms: C_5  and  C_6
REMARK    5  A    between atoms: C_5  and  N_13
REMARK    6  A    between atoms: C_6  and  C_7
REMARK    7  A    between atoms: N_16  and  C_17
REMARK    8  A    between atoms: C_20  and  S_21
REMARK    9  A    between atoms: S_21  and  N_22
REMARK                            x       y       z     vdW  Elec       q    Type
REMARK                         _______ _______ _______ _____ _____    ______ ____
ROOT
ATOM      1  N   UNL     1       3.381   5.336  20.142  0.00  0.00    +0.000 N 
ATOM      2  C   UNL     1       2.548   6.254  19.555  0.00  0.00    +0.000 C 
ATOM      3  O   UNL     1       2.084   6.087  18.430  0.00  0.00    +0.000 OA
ATOM      4  N   UNL     1       2.372   7.375  20.333  0.00  0.00    +0.000 N 
ATOM      5  H   UNL     1       3.366   5.263  21.154  0.00  0.00    +0.000 HD
ATOM      6  H   UNL     1       3.195   7.630  20.857  0.00  0.00    +0.000 HD
ENDROOT
BRANCH   4   7
ATOM      7  C   UNL     1       1.529   8.426  19.911  0.00  0.00    +0.000 A 
ATOM      8  C   UNL     1       0.503   8.897  20.739  0.00  0.00    +0.000 A 
ATOM      9  C   UNL     1      -0.341   9.923  20.305  0.00  0.00    +0.000 A 
ATOM     10  C   UNL     1      -0.157  10.465  19.034  0.00  0.00    +0.000 A 
ATOM     11  C   UNL     1       0.858   9.995  18.194  0.00  0.00    +0.000 A 
ATOM     12  C   UNL     1       1.721   8.992  18.649  0.00  0.00    +0.000 A 
BRANCH  10  13
ATOM     13  S   UNL     1      -1.247  11.738  18.466  0.00  0.00    +0.000 S 
ATOM     14  O   UNL     1      -2.438  11.745  19.284  0.00  0.00    +0.000 OA
ATOM     15  O   UNL     1      -0.485  12.937  18.196  0.00  0.00    +0.000 OA
BRANCH  13  16
ATOM     16  N   UNL     1      -1.712  11.140  16.971  0.00  0.00    +0.000 NA
ATOM     17  H   UNL     1      -1.891  10.138  17.040  0.00  0.00    +0.000 HD
ATOM     18  H   UNL     1      -2.499  11.679  16.611  0.00  0.00    +0.000 HD
ENDBRANCH  13  16
ENDBRANCH  10  13
ENDBRANCH   4   7
BRANCH   1  19
ATOM     19  C   UNL     1       3.784   4.135  19.400  0.00  0.00    +0.000 C 
BRANCH  19  20
ATOM     20  C   UNL     1       3.104   2.878  19.944  0.00  0.00    +0.000 C 
ATOM     21  O   UNL     1       2.829   2.686  21.121  0.00  0.00    +0.000 OA
BRANCH  20  23
ATOM     22  C   UNL     1       2.473   2.631  17.678  0.00  0.00    +0.000 C 
ATOM     23  O   UNL     1       2.830   2.019  18.916  0.00  0.00    +0.000 OA
ENDBRANCH  20  23
ENDBRANCH  19  20
BRANCH  19  24
ATOM     24  C   UNL     1       5.315   3.980  19.343  0.00  0.00    +0.000 C 
BRANCH  24  25
ATOM     25  C   UNL     1       6.029   5.114  18.636  0.00  0.00    +0.000 A 
ATOM     26  C   UNL     1       7.225   5.640  19.147  0.00  0.00    +0.000 A 
ATOM     27  C   UNL     1       7.851   6.716  18.517  0.00  0.00    +0.000 A 
ATOM     28  C   UNL     1       7.298   7.270  17.367  0.00  0.00    +0.000 A 
ATOM     29  C   UNL     1       6.120   6.742  16.838  0.00  0.00    +0.000 A 
ATOM     30  C   UNL     1       5.489   5.671  17.469  0.00  0.00    +0.000 A 
ENDBRANCH  24  25
ENDBRANCH  19  24
ENDBRANCH   1  19
TORSDOF 8
ENDMDL
MODEL 6
REMARK VINA RESULT:      -7.7      1.491      2.269
REMARK  Name = 
REMARK  9 active torsions:
REMARK  status: ('A' for Active; 'I' for Inactive)
REMARK    1  A    between atoms: C_1  and  O_2
REMARK    2  A    between atoms: O_2  and  C_3
REMARK    3  A    between atoms: C_3  and  C_5
REMARK    4  A    between atoms: C_5  and  C_6
REMARK    5  A    between atoms: C_5  and  N_13
REMARK    6  A    between atoms: C_6  and  C_7
REMARK    7  A    between atoms: N_16  and  C_17
REMARK    8  A    between atoms: C_20  and  S_21
REMARK    9  A    between atoms: S_21  and  N_22
REMARK                            x       y       z     vdW  Elec       q    Type
REMARK                         _______ _______ _______ _____ _____    ______ ____
ROOT
ATOM      1  N   UNL     1       3.475   5.334  20.055  0.00  0.00    +0.000 N 
ATOM      2  C   UNL     1       2.691   6.284  19.455  0.00  0.00    +0.000 C 
ATOM      3  O   UNL     1       2.413   6.239  18.259  0.00  0.00    +0.000 OA
ATOM      4  N   UNL     1       2.335   7.293  20.320  0.00  0.00    +0.000 N 
ATOM      5  H   UNL     1       3.310   5.136  21.038  0.00  0.00    +0.000 HD
ATOM      6  H   UNL     1       3.053   7.513  20.993  0.00  0.00    +0.000 HD
ENDROOT
BRANCH   4   7
ATOM      7  C   UNL     1       1.508   8.356  19.895  0.00  0.00    +0.000 A 
ATOM      8  C   UNL     1       1.682   8.938  18.633  0.00  0.00    +0.000 A 
ATOM      9  C   UNL     1       0.873  10.003  18.229  0.00  0.00    +0.000 A 
ATOM     10  C   UNL     1      -0.103  10.487  19.099  0.00  0.00    +0.000 A 
ATOM     11  C   UNL     1      -0.278   9.921  20.366  0.00  0.00    +0.000 A 
ATOM     12  C   UNL     1       0.512   8.832  20.750  0.00  0.00    +0.000 A 
BRANCH  10  13
ATOM     13  S   UNL     1      -1.104  11.861  18.606  0.00  0.00    +0.000 S 
ATOM     14  O   UNL     1      -0.264  13.026  18.441  0.00  0.00    +0.000 OA
ATOM     15  O   UNL     1      -2.042  11.431  17.593  0.00  0.00    +0.000 OA
BRANCH  13  16
ATOM     16  N   UNL     1      -2.009  12.131  19.990  0.00  0.00    +0.000 NA
ATOM     17  H   UNL     1      -2.331  13.099  20.009  0.00  0.00    +0.000 HD
ATOM     18  H   UNL     1      -2.759  11.443  20.054  0.00  0.00    +0.000 HD
ENDBRANCH  13  16
ENDBRANCH  10  13
ENDBRANCH   4   7
BRANCH   1  19
ATOM     19  C   UNL     1       4.053   4.249  19.253  0.00  0.00    +0.000 C 
BRANCH  19  20
ATOM     20  C   UNL     1       3.860   2.885  19.918  0.00  0.00    +0.000 C 
ATOM     21  O   UNL     1       4.765   2.187  20.355  0.00  0.00    +0.000 OA
BRANCH  20  23
ATOM     22  C   UNL     1       1.890   2.370  18.713  0.00  0.00    +0.000 C 
ATOM     23  O   UNL     1       2.528   2.581  19.972  0.00  0.00    +0.000 OA
ENDBRANCH  20  23
ENDBRANCH  19  20
BRANCH  19  24
ATOM     24  C   UNL     1       5.530   4.514  18.906  0.00  0.00    +0.000 C 
BRANCH  24  25
ATOM     25  C   UNL     1       5.831   4.509  17.422  0.00  0.00    +0.000 A 
ATOM     26  C   UNL     1       7.129   4.763  16.951  0.00  0.00    +0.000 A 
ATOM     27  C   UNL     1       7.388   4.806  15.581  0.00  0.00    +0.000 A 
ATOM     28  C   UNL     1       6.361   4.587  14.668  0.00  0.00    +0.000 A 
ATOM     29  C   UNL     1       5.072   4.314  15.125  0.00  0.00    +0.000 A 
ATOM     30  C   UNL     1       4.808   4.276  16.493  0.00  0.00    +0.000 A 
ENDBRANCH  24  25
ENDBRANCH  19  24
ENDBRANCH   1  19
TORSDOF 8
ENDMDL
MODEL 7
REMARK VINA RESULT:      -7.7      2.480      4.290
REMARK  Name = 
REMARK  9 active torsions:
REMARK  status: ('A' for Active; 'I' for Inactive)
REMARK    1  A    between atoms: C_1  and  O_2
REMARK    2  A    between atoms: O_2  and  C_3
REMARK    3  A    between atoms: C_3  and  C_5
REMARK    4  A    between atoms: C_5  and  C_6
REMARK    5  A    between atoms: C_5  and  N_13
REMARK    6  A    between atoms: C_6  and  C_7
REMARK    7  A    between atoms: N_16  and  C_17
REMARK    8  A    between atoms: C_20  and  S_21
REMARK    9  A    between atoms: S_21  and  N_22
REMARK                            x       y       z     vdW  Elec       q    Type
REMARK                         _______ _______ _______ _____ _____    ______ ____
ROOT
ATOM      1  N   UNL     1       3.923   5.521  17.279  0.00  0.00    +0.000 N 
ATOM      2  C   UNL     1       3.449   6.316  18.290  0.00  0.00    +0.000 C 
ATOM      3  O   UNL     1       3.764   6.136  19.463  0.00  0.00    +0.000 OA
ATOM      4  N   UNL     1       2.550   7.256  17.840  0.00  0.00    +0.000 N 
ATOM      5  H   UNL     1       4.031   5.938  16.360  0.00  0.00    +0.000 HD
ATOM      6  H   UNL     1       1.976   6.927  17.080  0.00  0.00    +0.000 HD
ENDROOT
BRANCH   4   7
ATOM      7  C   UNL     1       1.967   8.186  18.728  0.00  0.00    +0.000 A 
ATOM      8  C   UNL     1       1.705   7.838  20.059  0.00  0.00    +0.000 A 
ATOM      9  C   UNL     1       1.108   8.757  20.925  0.00  0.00    +0.000 A 
ATOM     10  C   UNL     1       0.766  10.021  20.448  0.00  0.00    +0.000 A 
ATOM     11  C   UNL     1       1.012  10.376  19.117  0.00  0.00    +0.000 A 
ATOM     12  C   UNL     1       1.642   9.463  18.265  0.00  0.00    +0.000 A 
BRANCH  10  13
ATOM     13  S   UNL     1      -0.026  11.176  21.531  0.00  0.00    +0.000 S 
ATOM     14  O   UNL     1      -1.268  11.612  20.935  0.00  0.00    +0.000 OA
ATOM     15  O   UNL     1       0.053  10.689  22.890  0.00  0.00    +0.000 OA
BRANCH  13  16
ATOM     16  N   UNL     1       1.017  12.485  21.448  0.00  0.00    +0.000 NA
ATOM     17  H   UNL     1       0.638  13.188  20.812  0.00  0.00    +0.000 HD
ATOM     18  H   UNL     1       1.211  12.834  22.386  0.00  0.00    +0.000 HD
ENDBRANCH  13  16
ENDBRANCH  10  13
ENDBRANCH   4   7
BRANCH   1  19
ATOM     19  C   UNL     1       4.794   4.382  17.593  0.00  0.00    +0.000 C 
BRANCH  19  20
ATOM     20  C   UNL     1       5.991   4.304  16.644  0.00  0.00    +0.000 C 
ATOM     21  O   UNL     1       6.069   3.559  15.676  0.00  0.00    +0.000 OA
BRANCH  20  23
ATOM     22  C   UNL     1       7.304   5.182  18.405  0.00  0.00    +0.000 C 
ATOM     23  O   UNL     1       6.943   5.208  17.025  0.00  0.00    +0.000 OA
ENDBRANCH  20  23
ENDBRANCH  19  20
BRANCH  19  24
ATOM     24  C   UNL     1       4.013   3.055  17.639  0.00  0.00    +0.000 C 
BRANCH  24  25
ATOM     25  C   UNL     1       3.074   2.927  18.821  0.00  0.00    +0.000 A 
ATOM     26  C   UNL     1       1.685   3.023  18.648  0.00  0.00    +0.000 A 
ATOM     27  C   UNL     1       0.829   2.954  19.747  0.00  0.00    +0.000 A 
ATOM     28  C   UNL     1       1.347   2.778  21.026  0.00  0.00    +0.000 A 
ATOM     29  C   UNL     1       2.725   2.661  21.208  0.00  0.00    +0.000 A 
ATOM     30  C   UNL     1       3.583   2.736  20.112  0.00  0.00    +0.000 A 
ENDBRANCH  24  25
ENDBRANCH  19  24
ENDBRANCH   1  19
TORSDOF 8
ENDMDL
MODEL 8
REMARK VINA RESULT:      -7.7      2.354      4.345
REMARK  Name = 
REMARK  9 active torsions:
REMARK  status: ('A' for Active; 'I' for Inactive)
REMARK    1  A    between atoms: C_1  and  O_2
REMARK    2  A    between atoms: O_2  and  C_3
REMARK    3  A    between atoms: C_3  and  C_5
REMARK    4  A    between atoms: C_5  and  C_6
REMARK    5  A    between atoms: C_5  and  N_13
REMARK    6  A    between atoms: C_6  and  C_7
REMARK    7  A    between atoms: N_16  and  C_17
REMARK    8  A    between atoms: C_20  and  S_21
REMARK    9  A    between atoms: S_21  and  N_22
REMARK                            x       y       z     vdW  Elec       q    Type
REMARK                         _______ _______ _______ _____ _____    ______ ____
ROOT
ATOM      1  N   UNL     1       3.559   7.350  17.577  0.00  0.00    +0.000 N 
ATOM      2  C   UNL     1       2.566   7.963  18.297  0.00  0.00    +0.000 C 
ATOM      3  O   UNL     1       2.183   7.528  19.380  0.00  0.00    +0.000 OA
ATOM      4  N   UNL     1       2.027   9.041  17.633  0.00  0.00    +0.000 N 
ATOM      5  H   UNL     1       4.141   7.933  16.983  0.00  0.00    +0.000 HD
ATOM      6  H   UNL     1       1.989   8.916  16.634  0.00  0.00    +0.000 HD
ENDROOT
BRANCH   4   7
ATOM      7  C   UNL     1       1.005   9.818  18.221  0.00  0.00    +0.000 A 
ATOM      8  C   UNL     1      -0.338   9.605  17.888  0.00  0.00    +0.000 A 
ATOM      9  C   UNL     1      -1.341  10.393  18.458  0.00  0.00    +0.000 A 
ATOM     10  C   UNL     1      -0.989  11.401  19.355  0.00  0.00    +0.000 A 
ATOM     11  C   UNL     1       0.350  11.630  19.688  0.00  0.00    +0.000 A 
ATOM     12  C   UNL     1       1.346  10.814  19.140  0.00  0.00    +0.000 A 
BRANCH  10  13
ATOM     13  S   UNL     1      -2.253  12.426  20.051  0.00  0.00    +0.000 S 
ATOM     14  O   UNL     1      -3.482  12.231  19.316  0.00  0.00    +0.000 OA
ATOM     15  O   UNL     1      -2.192  12.351  21.493  0.00  0.00    +0.000 OA
BRANCH  13  16
ATOM     16  N   UNL     1      -1.706  13.957  19.645  0.00  0.00    +0.000 NA
ATOM     17  H   UNL     1      -0.689  13.947  19.552  0.00  0.00    +0.000 HD
ATOM     18  H   UNL     1      -2.195  14.292  18.816  0.00  0.00    +0.000 HD
ENDBRANCH  13  16
ENDBRANCH  10  13
ENDBRANCH   4   7
BRANCH   1  19
ATOM     19  C   UNL     1       4.161   6.107  18.074  0.00  0.00    +0.000 C 
BRANCH  19  20
ATOM     20  C   UNL     1       5.646   6.014  17.720  0.00  0.00    +0.000 C 
ATOM     21  O   UNL     1       6.324   4.998  17.814  0.00  0.00    +0.000 OA
BRANCH  20  23
ATOM     22  C   UNL     1       7.465   7.510  17.507  0.00  0.00    +0.000 C 
ATOM     23  O   UNL     1       6.089   7.223  17.262  0.00  0.00    +0.000 OA
ENDBRANCH  20  23
ENDBRANCH  19  20
BRANCH  19  24
ATOM     24  C   UNL     1       3.381   4.863  17.606  0.00  0.00    +0.000 C 
BRANCH  24  25
ATOM     25  C   UNL     1       2.599   4.170  18.702  0.00  0.00    +0.000 A 
ATOM     26  C   UNL     1       1.449   3.425  18.403  0.00  0.00    +0.000 A 
ATOM     27  C   UNL     1       0.706   2.830  19.424  0.00  0.00    +0.000 A 
ATOM     28  C   UNL     1       1.108   2.964  20.749  0.00  0.00    +0.000 A 
ATOM     29  C   UNL     1       2.261   3.686  21.057  0.00  0.00    +0.000 A 
ATOM     30  C   UNL     1       3.002   4.287  20.039  0.00  0.00    +0.000 A 
ENDBRANCH  24  25
ENDBRANCH  19  24
ENDBRANCH   1  19
TORSDOF 8
ENDMDL
MODEL 9
REMARK VINA RESULT:      -7.7      1.102      1.795
REMARK  Name = 
REMARK  9 active torsions:
REMARK  status: ('A' for Active; 'I' for Inactive)
REMARK    1  A    between atoms: C_1  and  O_2
REMARK    2  A    between atoms: O_2  and  C_3
REMARK    3  A    between atoms: C_3  and  C_5
REMARK    4  A    between atoms: C_5  and  C_6
REMARK    5  A    between atoms: C_5  and  N_13
REMARK    6  A    between atoms: C_6  and  C_7
REMARK    7  A    between atoms: N_16  and  C_17
REMARK    8  A    between atoms: C_20  and  S_21
REMARK    9  A    between atoms: S_21  and  N_22
REMARK                            x       y       z     vdW  Elec       q    Type
REMARK                         _______ _______ _______ _____ _____    ______ ____
ROOT
ATOM      1  N   UNL     1       3.672   4.967  19.196  0.00  0.00    +0.000 N 
ATOM      2  C   UNL     1       2.749   5.925  18.866  0.00  0.00    +0.000 C 
ATOM      3  O   UNL     1       1.978   5.788  17.920  0.00  0.00    +0.000 OA
ATOM      4  N   UNL     1       2.851   7.046  19.657  0.00  0.00    +0.000 N 
ATOM      5  H   UNL     1       3.941   4.886  20.172  0.00  0.00    +0.000 HD
ATOM      6  H   UNL     1       3.799   7.260  19.925  0.00  0.00    +0.000 HD
ENDROOT
BRANCH   4   7
ATOM      7  C   UNL     1       1.971   8.137  19.487  0.00  0.00    +0.000 A 
ATOM      8  C   UNL     1       1.887   8.805  18.259  0.00  0.00    +0.000 A 
ATOM      9  C   UNL     1       1.029   9.897  18.106  0.00  0.00    +0.000 A 
ATOM     10  C   UNL     1       0.265  10.321  19.192  0.00  0.00    +0.000 A 
ATOM     11  C   UNL     1       0.349   9.669  20.426  0.00  0.00    +0.000 A 
ATOM     12  C   UNL     1       1.184   8.555  20.563  0.00  0.00    +0.000 A 
BRANCH  10  13
ATOM     13  S   UNL     1      -0.794  11.728  19.013  0.00  0.00    +0.000 S 
ATOM     14  O   UNL     1      -1.901  11.609  19.936  0.00  0.00    +0.000 OA
ATOM     15  O   UNL     1       0.010  12.925  18.917  0.00  0.00    +0.000 OA
BRANCH  13  16
ATOM     16  N   UNL     1      -1.433  11.476  17.485  0.00  0.00    +0.000 NA
ATOM     17  H   UNL     1      -2.453  11.507  17.527  0.00  0.00    +0.000 HD
ATOM     18  H   UNL     1      -1.025  12.137  16.825  0.00  0.00    +0.000 HD
ENDBRANCH  13  16
ENDBRANCH  10  13
ENDBRANCH   4   7
BRANCH   1  19
ATOM     19  C   UNL     1       3.794   3.755  18.376  0.00  0.00    +0.000 C 
BRANCH  19  20
ATOM     20  C   UNL     1       4.008   2.508  19.234  0.00  0.00    +0.000 C 
ATOM     21  O   UNL     1       4.891   2.380  20.073  0.00  0.00    +0.000 OA
BRANCH  20  23
ATOM     22  C   UNL     1       1.754   2.089  18.654  0.00  0.00    +0.000 C 
ATOM     23  O   UNL     1       3.054   1.575  18.941  0.00  0.00    +0.000 OA
ENDBRANCH  20  23
ENDBRANCH  19  20
BRANCH  19  24
ATOM     24  C   UNL     1       4.879   3.900  17.293  0.00  0.00    +0.000 C 
BRANCH  24  25
ATOM     25  C   UNL     1       5.899   4.985  17.575  0.00  0.00    +0.000 A 
ATOM     26  C   UNL     1       6.909   4.790  18.529  0.00  0.00    +0.000 A 
ATOM     27  C   UNL     1       7.814   5.812  18.819  0.00  0.00    +0.000 A 
ATOM     28  C   UNL     1       7.728   7.031  18.154  0.00  0.00    +0.000 A 
ATOM     29  C   UNL     1       6.740   7.228  17.189  0.00  0.00    +0.000 A 
ATOM     30  C   UNL     1       5.830   6.212  16.902  0.00  0.00    +0.000 A 
ENDBRANCH  24  25
ENDBRANCH  19  24
ENDBRANCH   1  19
TORSDOF 8
ENDMDL
