MODEL 1
REMARK VINA RESULT:      -8.2      0.000      0.000
REMARK  Name = 
REMARK  6 active torsions:
REMARK  status: ('A' for Active; 'I' for Inactive)
REMARK    1  A    between atoms: C_1  and  C_2
REMARK    2  A    between atoms: C_7  and  O_8
REMARK    3  A    between atoms: O_8  and  C_9
REMARK    4  A    between atoms: C_9  and  C_10
REMARK    5  A    between atoms: N_12  and  N_13
REMARK    6  A    between atoms: N_16  and  C_17
REMARK                            x       y       z     vdW  Elec       q    Type
REMARK                         _______ _______ _______ _____ _____    ______ ____
ROOT
ATOM      1  C   UNL     1       7.236   5.611  18.951  0.00  0.00    +0.000 C 
ATOM      2  O   UNL     1       7.501   5.382  20.132  0.00  0.00    +0.000 OA
ATOM      3  N   UNL     1       7.661   6.758  18.315  0.00  0.00    +0.000 N 
ATOM      4  H   UNL     1       7.465   6.979  17.337  0.00  0.00    +0.000 HD
ENDROOT
BRANCH   3   5
ATOM      5  N   UNL     1       8.571   7.623  18.968  0.00  0.00    +0.000 N 
ATOM      6  C   UNL     1       8.572   8.940  18.547  0.00  0.00    +0.000 C 
ATOM      7  O   UNL     1       7.890   9.268  17.574  0.00  0.00    +0.000 OA
ATOM      8  N   UNL     1       9.420   9.755  19.265  0.00  0.00    +0.000 N 
ATOM      9  H   UNL     1       8.883   7.330  19.888  0.00  0.00    +0.000 HD
ATOM     10  H   UNL     1      10.079   9.295  19.877  0.00  0.00    +0.000 HD
BRANCH   8  11
ATOM     11  C   UNL     1       9.620  11.140  19.029  0.00  0.00    +0.000 A 
ATOM     12  C   UNL     1       9.170  12.132  19.907  0.00  0.00    +0.000 A 
ATOM     13  C   UNL     1       9.318  13.488  19.602  0.00  0.00    +0.000 A 
ATOM     14  C   UNL     1       9.934  13.867  18.417  0.00  0.00    +0.000 A 
ATOM     15 CL   UNL     1      10.074  15.535  18.022  0.00  0.00    +0.000 Cl
ATOM     16  C   UNL     1      10.432  12.897  17.549  0.00  0.00    +0.000 A 
ATOM     17  C   UNL     1      10.286  11.536  17.860  0.00  0.00    +0.000 A 
ENDBRANCH   8  11
ENDBRANCH   3   5
BRANCH   1  18
ATOM     18  C   UNL     1       6.483   4.621  18.052  0.00  0.00    +0.000 C 
BRANCH  18  19
ATOM     19  O   UNL     1       5.460   5.212  17.277  0.00  0.00    +0.000 OA
BRANCH  19  26
ATOM     20  C   UNL     1       3.070   7.165  18.070  0.00  0.00    +0.000 C 
ATOM     21  C   UNL     1       3.043   5.679  17.848  0.00  0.00    +0.000 A 
ATOM     22  C   UNL     1       1.781   5.063  18.025  0.00  0.00    +0.000 A 
ATOM     23  C   UNL     1       1.599   3.694  17.856  0.00  0.00    +0.000 A 
ATOM     24  C   UNL     1       2.680   2.904  17.498  0.00  0.00    +0.000 A 
ATOM     25  C   UNL     1       3.933   3.492  17.317  0.00  0.00    +0.000 A 
ATOM     26  C   UNL     1       4.144   4.874  17.490  0.00  0.00    +0.000 A 
ENDBRANCH  19  26
ENDBRANCH  18  19
ENDBRANCH   1  18
TORSDOF 5
ENDMDL
MODEL 2
REMARK VINA RESULT:      -7.9      1.131      1.843
REMARK  Name = 
REMARK  6 active torsions:
REMARK  status: ('A' for Active; 'I' for Inactive)
REMARK    1  A    between atoms: C_1  and  C_2
REMARK    2  A    between atoms: C_7  and  O_8
REMARK    3  A    between atoms: O_8  and  C_9
REMARK    4  A    between atoms: C_9  and  C_10
REMARK    5  A    between atoms: N_12  and  N_13
REMARK    6  A    between atoms: N_16  and  C_17
REMARK                            x       y       z     vdW  Elec       q    Type
REMARK                         _______ _______ _______ _____ _____    ______ ____
ROOT
ATOM      1  C   UNL     1       7.255   5.680  19.096  0.00  0.00    +0.000 C 
ATOM      2  O   UNL     1       7.649   5.431  20.235  0.00  0.00    +0.000 OA
ATOM      3  N   UNL     1       7.611   6.836  18.434  0.00  0.00    +0.000 N 
ATOM      4  H   UNL     1       7.308   7.073  17.488  0.00  0.00    +0.000 HD
ENDROOT
BRANCH   3   5
ATOM      5  N   UNL     1       8.592   7.687  18.995  0.00  0.00    +0.000 N 
ATOM      6  C   UNL     1       8.570   9.005  18.576  0.00  0.00    +0.000 C 
ATOM      7  O   UNL     1       7.801   9.344  17.674  0.00  0.00    +0.000 OA
ATOM      8  N   UNL     1       9.495   9.808  19.208  0.00  0.00    +0.000 N 
ATOM      9  H   UNL     1       8.989   7.389  19.880  0.00  0.00    +0.000 HD
ATOM     10  H   UNL     1      10.205   9.338  19.753  0.00  0.00    +0.000 HD
BRANCH   8  11
ATOM     11  C   UNL     1       9.690  11.190  18.953  0.00  0.00    +0.000 A 
ATOM     12  C   UNL     1       9.225  12.192  19.812  0.00  0.00    +0.000 A 
ATOM     13  C   UNL     1       9.368  13.544  19.489  0.00  0.00    +0.000 A 
ATOM     14  C   UNL     1       9.996  13.909  18.305  0.00  0.00    +0.000 A 
ATOM     15 CL   UNL     1      10.130  15.572  17.887  0.00  0.00    +0.000 Cl
ATOM     16  C   UNL     1      10.510  12.929  17.458  0.00  0.00    +0.000 A 
ATOM     17  C   UNL     1      10.368  11.572  17.787  0.00  0.00    +0.000 A 
ENDBRANCH   8  11
ENDBRANCH   3   5
BRANCH   1  18
ATOM     18  C   UNL     1       6.401   4.707  18.270  0.00  0.00    +0.000 C 
BRANCH  18  19
ATOM     19  O   UNL     1       5.680   3.773  19.048  0.00  0.00    +0.000 OA
BRANCH  19  26
ATOM     20  C   UNL     1       3.513   1.535  18.380  0.00  0.00    +0.000 C 
ATOM     21  C   UNL     1       3.302   2.935  18.883  0.00  0.00    +0.000 A 
ATOM     22  C   UNL     1       1.951   3.311  19.079  0.00  0.00    +0.000 A 
ATOM     23  C   UNL     1       1.598   4.577  19.540  0.00  0.00    +0.000 A 
ATOM     24  C   UNL     1       2.594   5.498  19.824  0.00  0.00    +0.000 A 
ATOM     25  C   UNL     1       3.932   5.146  19.639  0.00  0.00    +0.000 A 
ATOM     26  C   UNL     1       4.314   3.875  19.166  0.00  0.00    +0.000 A 
ENDBRANCH  19  26
ENDBRANCH  18  19
ENDBRANCH   1  18
TORSDOF 5
ENDMDL
MODEL 3
REMARK VINA RESULT:      -7.9      5.839      6.968
REMARK  Name = 
REMARK  6 active torsions:
REMARK  status: ('A' for Active; 'I' for Inactive)
REMARK    1  A    between atoms: C_1  and  C_2
REMARK    2  A    between atoms: C_7  and  O_8
REMARK    3  A    between atoms: O_8  and  C_9
REMARK    4  A    between atoms: C_9  and  C_10
REMARK    5  A    between atoms: N_12  and  N_13
REMARK    6  A    between atoms: N_16  and  C_17
REMARK                            x       y       z     vdW  Elec       q    Type
REMARK                         _______ _______ _______ _____ _____    ______ ____
ROOT
ATOM      1  C   UNL     1       4.722   5.502  17.516  0.00  0.00    +0.000 C 
ATOM      2  O   UNL     1       4.832   5.620  16.295  0.00  0.00    +0.000 OA
ATOM      3  N   UNL     1       4.085   6.449  18.289  0.00  0.00    +0.000 N 
ATOM      4  H   UNL     1       3.970   6.381  19.301  0.00  0.00    +0.000 HD
ENDROOT
BRANCH   3   5
ATOM      5  N   UNL     1       3.384   7.506  17.662  0.00  0.00    +0.000 N 
ATOM      6  C   UNL     1       2.375   8.094  18.402  0.00  0.00    +0.000 C 
ATOM      7  O   UNL     1       2.058   7.612  19.491  0.00  0.00    +0.000 OA
ATOM      8  N   UNL     1       1.776   9.166  17.776  0.00  0.00    +0.000 N 
ATOM      9  H   UNL     1       3.871   7.977  16.906  0.00  0.00    +0.000 HD
ATOM     10  H   UNL     1       1.988   9.294  16.796  0.00  0.00    +0.000 HD
BRANCH   8  11
ATOM     11  C   UNL     1       0.707   9.933  18.308  0.00  0.00    +0.000 A 
ATOM     12  C   UNL     1      -0.610   9.816  17.852  0.00  0.00    +0.000 A 
ATOM     13  C   UNL     1      -1.623  10.643  18.346  0.00  0.00    +0.000 A 
ATOM     14  C   UNL     1      -1.328  11.590  19.319  0.00  0.00    +0.000 A 
ATOM     15 CL   UNL     1      -2.565  12.638  19.894  0.00  0.00    +0.000 Cl
ATOM     16  C   UNL     1      -0.033  11.692  19.823  0.00  0.00    +0.000 A 
ATOM     17  C   UNL     1       0.981  10.856  19.327  0.00  0.00    +0.000 A 
ENDBRANCH   8  11
ENDBRANCH   3   5
BRANCH   1  18
ATOM     18  C   UNL     1       5.203   4.264  18.286  0.00  0.00    +0.000 C 
BRANCH  18  19
ATOM     19  O   UNL     1       4.285   3.190  18.279  0.00  0.00    +0.000 OA
BRANCH  19  26
ATOM     20  C   UNL     1       1.325   4.186  17.649  0.00  0.00    +0.000 C 
ATOM     21  C   UNL     1       1.881   3.621  18.925  0.00  0.00    +0.000 A 
ATOM     22  C   UNL     1       0.961   3.528  19.997  0.00  0.00    +0.000 A 
ATOM     23  C   UNL     1       1.329   3.025  21.243  0.00  0.00    +0.000 A 
ATOM     24  C   UNL     1       2.631   2.597  21.444  0.00  0.00    +0.000 A 
ATOM     25  C   UNL     1       3.554   2.680  20.399  0.00  0.00    +0.000 A 
ATOM     26  C   UNL     1       3.208   3.191  19.133  0.00  0.00    +0.000 A 
ENDBRANCH  19  26
ENDBRANCH  18  19
ENDBRANCH   1  18
TORSDOF 5
ENDMDL
MODEL 4
REMARK VINA RESULT:      -7.8      1.258      1.680
REMARK  Name = 
REMARK  6 active torsions:
REMARK  status: ('A' for Active; 'I' for Inactive)
REMARK    1  A    between atoms: C_1  and  C_2
REMARK    2  A    between atoms: C_7  and  O_8
REMARK    3  A    between atoms: O_8  and  C_9
REMARK    4  A    between atoms: C_9  and  C_10
REMARK    5  A    between atoms: N_12  and  N_13
REMARK    6  A    between atoms: N_16  and  C_17
REMARK                            x       y       z     vdW  Elec       q    Type
REMARK                         _______ _______ _______ _____ _____    ______ ____
ROOT
ATOM      1  C   UNL     1       7.299   5.615  19.002  0.00  0.00    +0.000 C 
ATOM      2  O   UNL     1       7.519   5.413  20.196  0.00  0.00    +0.000 OA
ATOM      3  N   UNL     1       7.732   6.756  18.361  0.00  0.00    +0.000 N 
ATOM      4  H   UNL     1       7.572   6.955  17.372  0.00  0.00    +0.000 HD
ENDROOT
BRANCH   3   5
ATOM      5  N   UNL     1       8.601   7.648  19.032  0.00  0.00    +0.000 N 
ATOM      6  C   UNL     1       8.609   8.954  18.576  0.00  0.00    +0.000 C 
ATOM      7  O   UNL     1       7.972   9.249  17.563  0.00  0.00    +0.000 OA
ATOM      8  N   UNL     1       9.414   9.796  19.312  0.00  0.00    +0.000 N 
ATOM      9  H   UNL     1       8.872   7.382  19.973  0.00  0.00    +0.000 HD
ATOM     10  H   UNL     1      10.048   9.360  19.967  0.00  0.00    +0.000 HD
BRANCH   8  11
ATOM     11  C   UNL     1       9.613  11.176  19.048  0.00  0.00    +0.000 A 
ATOM     12  C   UNL     1       9.161  12.185  19.907  0.00  0.00    +0.000 A 
ATOM     13  C   UNL     1       9.307  13.535  19.575  0.00  0.00    +0.000 A 
ATOM     14  C   UNL     1       9.923  13.891  18.382  0.00  0.00    +0.000 A 
ATOM     15 CL   UNL     1      10.060  15.551  17.954  0.00  0.00    +0.000 Cl
ATOM     16  C   UNL     1      10.423  12.905  17.534  0.00  0.00    +0.000 A 
ATOM     17  C   UNL     1      10.279  11.550  17.872  0.00  0.00    +0.000 A 
ENDBRANCH   8  11
ENDBRANCH   3   5
BRANCH   1  18
ATOM     18  C   UNL     1       6.598   4.596  18.092  0.00  0.00    +0.000 C 
BRANCH  18  19
ATOM     19  O   UNL     1       5.226   4.418  18.380  0.00  0.00    +0.000 OA
BRANCH  19  26
ATOM     20  C   UNL     1       4.967   6.615  16.087  0.00  0.00    +0.000 C 
ATOM     21  C   UNL     1       4.202   6.498  17.375  0.00  0.00    +0.000 A 
ATOM     22  C   UNL     1       3.239   7.510  17.602  0.00  0.00    +0.000 A 
ATOM     23  C   UNL     1       2.452   7.536  18.751  0.00  0.00    +0.000 A 
ATOM     24  C   UNL     1       2.609   6.540  19.702  0.00  0.00    +0.000 A 
ATOM     25  C   UNL     1       3.552   5.532  19.497  0.00  0.00    +0.000 A 
ATOM     26  C   UNL     1       4.364   5.489  18.347  0.00  0.00    +0.000 A 
ENDBRANCH  19  26
ENDBRANCH  18  19
ENDBRANCH   1  18
TORSDOF 5
ENDMDL
MODEL 5
REMARK VINA RESULT:      -7.7      1.000      1.417
REMARK  Name = 
REMARK  6 active torsions:
REMARK  status: ('A' for Active; 'I' for Inactive)
REMARK    1  A    between atoms: C_1  and  C_2
REMARK    2  A    between atoms: C_7  and  O_8
REMARK    3  A    between atoms: O_8  and  C_9
REMARK    4  A    between atoms: C_9  and  C_10
REMARK    5  A    between atoms: N_12  and  N_13
REMARK    6  A    between atoms: N_16  and  C_17
REMARK                            x       y       z     vdW  Elec       q    Type
REMARK                         _______ _______ _______ _____ _____    ______ ____
ROOT
ATOM      1  C   UNL     1       7.383   5.843  18.049  0.00  0.00    +0.000 C 
ATOM      2  O   UNL     1       7.830   5.167  18.976  0.00  0.00    +0.000 OA
ATOM      3  N   UNL     1       7.627   7.196  17.946  0.00  0.00    +0.000 N 
ATOM      4  H   UNL     1       7.278   7.787  17.190  0.00  0.00    +0.000 HD
ENDROOT
BRANCH   3   5
ATOM      5  N   UNL     1       8.554   7.807  18.823  0.00  0.00    +0.000 N 
ATOM      6  C   UNL     1       8.693   9.178  18.707  0.00  0.00    +0.000 C 
ATOM      7  O   UNL     1       8.114   9.774  17.797  0.00  0.00    +0.000 OA
ATOM      8  N   UNL     1       9.550   9.733  19.634  0.00  0.00    +0.000 N 
ATOM      9  H   UNL     1       8.773   7.293  19.670  0.00  0.00    +0.000 HD
ATOM     10  H   UNL     1      10.122   9.090  20.162  0.00  0.00    +0.000 HD
BRANCH   8  11
ATOM     11  C   UNL     1       9.879  11.110  19.723  0.00  0.00    +0.000 A 
ATOM     12  C   UNL     1      10.777  11.732  18.849  0.00  0.00    +0.000 A 
ATOM     13  C   UNL     1      11.136  13.073  19.016  0.00  0.00    +0.000 A 
ATOM     14  C   UNL     1      10.585  13.812  20.056  0.00  0.00    +0.000 A 
ATOM     15 CL   UNL     1      11.063  15.447  20.288  0.00  0.00    +0.000 Cl
ATOM     16  C   UNL     1       9.653  13.226  20.910  0.00  0.00    +0.000 A 
ATOM     17  C   UNL     1       9.292  11.880  20.737  0.00  0.00    +0.000 A 
ENDBRANCH   8  11
ENDBRANCH   3   5
BRANCH   1  18
ATOM     18  C   UNL     1       6.585   5.246  16.881  0.00  0.00    +0.000 C 
BRANCH  18  19
ATOM     19  O   UNL     1       5.337   5.870  16.659  0.00  0.00    +0.000 OA
BRANCH  19  26
ATOM     20  C   UNL     1       2.895   7.377  18.045  0.00  0.00    +0.000 C 
ATOM     21  C   UNL     1       3.072   5.909  17.778  0.00  0.00    +0.000 A 
ATOM     22  C   UNL     1       2.007   5.082  18.211  0.00  0.00    +0.000 A 
ATOM     23  C   UNL     1       2.027   3.701  18.034  0.00  0.00    +0.000 A 
ATOM     24  C   UNL     1       3.116   3.113  17.411  0.00  0.00    +0.000 A 
ATOM     25  C   UNL     1       4.176   3.910  16.976  0.00  0.00    +0.000 A 
ATOM     26  C   UNL     1       4.182   5.308  17.150  0.00  0.00    +0.000 A 
ENDBRANCH  19  26
ENDBRANCH  18  19
ENDBRANCH   1  18
TORSDOF 5
ENDMDL
MODEL 6
REMARK VINA RESULT:      -7.7      5.821      7.052
REMARK  Name = 
REMARK  6 active torsions:
REMARK  status: ('A' for Active; 'I' for Inactive)
REMARK    1  A    between atoms: C_1  and  C_2
REMARK    2  A    between atoms: C_7  and  O_8
REMARK    3  A    between atoms: O_8  and  C_9
REMARK    4  A    between atoms: C_9  and  C_10
REMARK    5  A    between atoms: N_12  and  N_13
REMARK    6  A    between atoms: N_16  and  C_17
REMARK                            x       y       z     vdW  Elec       q    Type
REMARK                         _______ _______ _______ _____ _____    ______ ____
ROOT
ATOM      1  C   UNL     1       4.682   5.803  17.719  0.00  0.00    +0.000 C 
ATOM      2  O   UNL     1       4.936   5.959  16.525  0.00  0.00    +0.000 OA
ATOM      3  N   UNL     1       3.862   6.668  18.412  0.00  0.00    +0.000 N 
ATOM      4  H   UNL     1       3.625   6.567  19.401  0.00  0.00    +0.000 HD
ENDROOT
BRANCH   3   5
ATOM      5  N   UNL     1       3.149   7.668  17.710  0.00  0.00    +0.000 N 
ATOM      6  C   UNL     1       2.188   8.354  18.431  0.00  0.00    +0.000 C 
ATOM      7  O   UNL     1       1.919   7.998  19.580  0.00  0.00    +0.000 OA
ATOM      8  N   UNL     1       1.577   9.366  17.723  0.00  0.00    +0.000 N 
ATOM      9  H   UNL     1       3.604   8.044  16.885  0.00  0.00    +0.000 HD
ATOM     10  H   UNL     1       1.741   9.385  16.726  0.00  0.00    +0.000 HD
BRANCH   8  11
ATOM     11  C   UNL     1       0.550  10.209  18.221  0.00  0.00    +0.000 A 
ATOM     12  C   UNL     1       0.807  11.311  19.044  0.00  0.00    +0.000 A 
ATOM     13  C   UNL     1      -0.237  12.073  19.579  0.00  0.00    +0.000 A 
ATOM     14  C   UNL     1      -1.553  11.747  19.280  0.00  0.00    +0.000 A 
ATOM     15 CL   UNL     1      -2.837  12.657  19.975  0.00  0.00    +0.000 Cl
ATOM     16  C   UNL     1      -1.831  10.683  18.424  0.00  0.00    +0.000 A 
ATOM     17  C   UNL     1      -0.781   9.923  17.886  0.00  0.00    +0.000 A 
ENDBRANCH   8  11
ENDBRANCH   3   5
BRANCH   1  18
ATOM     18  C   UNL     1       5.178   4.600  18.534  0.00  0.00    +0.000 C 
BRANCH  18  19
ATOM     19  O   UNL     1       4.359   3.453  18.421  0.00  0.00    +0.000 OA
BRANCH  19  26
ATOM     20  C   UNL     1       1.353   4.135  17.615  0.00  0.00    +0.000 C 
ATOM     21  C   UNL     1       1.887   3.609  18.918  0.00  0.00    +0.000 A 
ATOM     22  C   UNL     1       0.917   3.396  19.928  0.00  0.00    +0.000 A 
ATOM     23  C   UNL     1       1.260   2.913  21.188  0.00  0.00    +0.000 A 
ATOM     24  C   UNL     1       2.586   2.625  21.467  0.00  0.00    +0.000 A 
ATOM     25  C   UNL     1       3.557   2.827  20.484  0.00  0.00    +0.000 A 
ATOM     26  C   UNL     1       3.237   3.322  19.205  0.00  0.00    +0.000 A 
ENDBRANCH  19  26
ENDBRANCH  18  19
ENDBRANCH   1  18
TORSDOF 5
ENDMDL
MODEL 7
REMARK VINA RESULT:      -7.6      3.857      9.495
REMARK  Name = 
REMARK  6 active torsions:
REMARK  status: ('A' for Active; 'I' for Inactive)
REMARK    1  A    between atoms: C_1  and  C_2
REMARK    2  A    between atoms: C_7  and  O_8
REMARK    3  A    between atoms: O_8  and  C_9
REMARK    4  A    between atoms: C_9  and  C_10
REMARK    5  A    between atoms: N_12  and  N_13
REMARK    6  A    between atoms: N_16  and  C_17
REMARK                            x       y       z     vdW  Elec       q    Type
REMARK                         _______ _______ _______ _____ _____    ______ ____
ROOT
ATOM      1  C   UNL     1       7.903   8.081  17.825  0.00  0.00    +0.000 C 
ATOM      2  O   UNL     1       7.294   7.803  16.791  0.00  0.00    +0.000 OA
ATOM      3  N   UNL     1       8.106   7.155  18.826  0.00  0.00    +0.000 N 
ATOM      4  H   UNL     1       8.610   7.349  19.693  0.00  0.00    +0.000 HD
ENDROOT
BRANCH   3   5
ATOM      5  N   UNL     1       7.766   5.800  18.604  0.00  0.00    +0.000 N 
ATOM      6  C   UNL     1       6.422   5.484  18.697  0.00  0.00    +0.000 C 
ATOM      7  O   UNL     1       5.620   6.341  19.074  0.00  0.00    +0.000 OA
ATOM      8  N   UNL     1       6.136   4.169  18.399  0.00  0.00    +0.000 N 
ATOM      9  H   UNL     1       8.433   5.254  18.068  0.00  0.00    +0.000 HD
ATOM     10  H   UNL     1       6.923   3.539  18.333  0.00  0.00    +0.000 HD
BRANCH   8  11
ATOM     11  C   UNL     1       4.844   3.584  18.433  0.00  0.00    +0.000 A 
ATOM     12  C   UNL     1       3.976   3.600  17.336  0.00  0.00    +0.000 A 
ATOM     13  C   UNL     1       2.681   3.082  17.432  0.00  0.00    +0.000 A 
ATOM     14  C   UNL     1       2.246   2.526  18.628  0.00  0.00    +0.000 A 
ATOM     15 CL   UNL     1       0.638   1.931  18.758  0.00  0.00    +0.000 Cl
ATOM     16  C   UNL     1       3.110   2.457  19.719  0.00  0.00    +0.000 A 
ATOM     17  C   UNL     1       4.411   2.974  19.619  0.00  0.00    +0.000 A 
ENDBRANCH   8  11
ENDBRANCH   3   5
BRANCH   1  18
ATOM     18  C   UNL     1       8.560   9.446  18.071  0.00  0.00    +0.000 C 
BRANCH  18  19
ATOM     19  O   UNL     1       9.299   9.519  19.274  0.00  0.00    +0.000 OA
BRANCH  19  26
ATOM     20  C   UNL     1      11.363  11.565  17.968  0.00  0.00    +0.000 C 
ATOM     21  C   UNL     1      10.601  11.685  19.257  0.00  0.00    +0.000 A 
ATOM     22  C   UNL     1      10.842  12.869  19.995  0.00  0.00    +0.000 A 
ATOM     23  C   UNL     1      10.209  13.122  21.209  0.00  0.00    +0.000 A 
ATOM     24  C   UNL     1       9.313  12.193  21.714  0.00  0.00    +0.000 A 
ATOM     25  C   UNL     1       9.060  11.020  21.001  0.00  0.00    +0.000 A 
ATOM     26  C   UNL     1       9.693  10.738  19.774  0.00  0.00    +0.000 A 
ENDBRANCH  19  26
ENDBRANCH  18  19
ENDBRANCH   1  18
TORSDOF 5
ENDMDL
MODEL 8
REMARK VINA RESULT:      -7.6      1.175      1.921
REMARK  Name = 
REMARK  6 active torsions:
REMARK  status: ('A' for Active; 'I' for Inactive)
REMARK    1  A    between atoms: C_1  and  C_2
REMARK    2  A    between atoms: C_7  and  O_8
REMARK    3  A    between atoms: O_8  and  C_9
REMARK    4  A    between atoms: C_9  and  C_10
REMARK    5  A    between atoms: N_12  and  N_13
REMARK    6  A    between atoms: N_16  and  C_17
REMARK                            x       y       z     vdW  Elec       q    Type
REMARK                         _______ _______ _______ _____ _____    ______ ____
ROOT
ATOM      1  C   UNL     1       6.400   5.170  18.109  0.00  0.00    +0.000 C 
ATOM      2  O   UNL     1       6.611   4.729  19.239  0.00  0.00    +0.000 OA
ATOM      3  N   UNL     1       6.983   6.335  17.657  0.00  0.00    +0.000 N 
ATOM      4  H   UNL     1       6.835   6.727  16.726  0.00  0.00    +0.000 HD
ENDROOT
BRANCH   3   5
ATOM      5  N   UNL     1       7.984   6.962  18.435  0.00  0.00    +0.000 N 
ATOM      6  C   UNL     1       8.109   8.331  18.282  0.00  0.00    +0.000 C 
ATOM      7  O   UNL     1       7.448   8.910  17.417  0.00  0.00    +0.000 OA
ATOM      8  N   UNL     1       9.045   8.903  19.116  0.00  0.00    +0.000 N 
ATOM      9  H   UNL     1       8.280   6.464  19.268  0.00  0.00    +0.000 HD
ATOM     10  H   UNL     1       9.665   8.270  19.602  0.00  0.00    +0.000 HD
BRANCH   8  11
ATOM     11  C   UNL     1       9.379  10.281  19.149  0.00  0.00    +0.000 A 
ATOM     12  C   UNL     1       9.342  11.042  20.323  0.00  0.00    +0.000 A 
ATOM     13  C   UNL     1       9.602  12.415  20.304  0.00  0.00    +0.000 A 
ATOM     14  C   UNL     1       9.920  13.041  19.105  0.00  0.00    +0.000 A 
ATOM     15 CL   UNL     1      10.195  14.739  19.074  0.00  0.00    +0.000 Cl
ATOM     16  C   UNL     1      10.009  12.295  17.931  0.00  0.00    +0.000 A 
ATOM     17  C   UNL     1       9.751  10.915  17.955  0.00  0.00    +0.000 A 
ENDBRANCH   8  11
ENDBRANCH   3   5
BRANCH   1  18
ATOM     18  C   UNL     1       5.543   4.437  17.068  0.00  0.00    +0.000 C 
BRANCH  18  19
ATOM     19  O   UNL     1       4.216   4.917  16.975  0.00  0.00    +0.000 OA
BRANCH  19  26
ATOM     20  C   UNL     1       2.651   2.253  17.755  0.00  0.00    +0.000 C 
ATOM     21  C   UNL     1       2.612   3.601  18.417  0.00  0.00    +0.000 A 
ATOM     22  C   UNL     1       1.752   3.701  19.538  0.00  0.00    +0.000 A 
ATOM     23  C   UNL     1       1.609   4.886  20.254  0.00  0.00    +0.000 A 
ATOM     24  C   UNL     1       2.330   6.004  19.867  0.00  0.00    +0.000 A 
ATOM     25  C   UNL     1       3.184   5.927  18.766  0.00  0.00    +0.000 A 
ATOM     26  C   UNL     1       3.340   4.741  18.020  0.00  0.00    +0.000 A 
ENDBRANCH  19  26
ENDBRANCH  18  19
ENDBRANCH   1  18
TORSDOF 5
ENDMDL
MODEL 9
REMARK VINA RESULT:      -7.5      1.746      2.558
REMARK  Name = 
REMARK  6 active torsions:
REMARK  status: ('A' for Active; 'I' for Inactive)
REMARK    1  A    between atoms: C_1  and  C_2
REMARK    2  A    between atoms: C_7  and  O_8
REMARK    3  A    between atoms: O_8  and  C_9
REMARK    4  A    between atoms: C_9  and  C_10
REMARK    5  A    between atoms: N_12  and  N_13
REMARK    6  A    between atoms: N_16  and  C_17
REMARK                            x       y       z     vdW  Elec       q    Type
REMARK                         _______ _______ _______ _____ _____    ______ ____
ROOT
ATOM      1  C   UNL     1       7.868   7.031  18.075  0.00  0.00    +0.000 C 
ATOM      2  O   UNL     1       7.527   7.079  16.893  0.00  0.00    +0.000 OA
ATOM      3  N   UNL     1       8.425   8.113  18.721  0.00  0.00    +0.000 N 
ATOM      4  H   UNL     1       8.714   8.111  19.701  0.00  0.00    +0.000 HD
ENDROOT
BRANCH   3   5
ATOM      5  N   UNL     1       8.457   9.372  18.076  0.00  0.00    +0.000 N 
ATOM      6  C   UNL     1       9.130  10.382  18.738  0.00  0.00    +0.000 C 
ATOM      7  O   UNL     1       9.556  10.184  19.878  0.00  0.00    +0.000 OA
ATOM      8  N   UNL     1       9.197  11.565  18.033  0.00  0.00    +0.000 N 
ATOM      9  H   UNL     1       8.312   9.362  17.071  0.00  0.00    +0.000 HD
ATOM     10  H   UNL     1       8.604  11.639  17.218  0.00  0.00    +0.000 HD
BRANCH   8  11
ATOM     11  C   UNL     1       9.814  12.757  18.490  0.00  0.00    +0.000 A 
ATOM     12  C   UNL     1      11.196  12.969  18.423  0.00  0.00    +0.000 A 
ATOM     13  C   UNL     1      11.776  14.125  18.954  0.00  0.00    +0.000 A 
ATOM     14  C   UNL     1      10.974  15.091  19.547  0.00  0.00    +0.000 A 
ATOM     15 CL   UNL     1      11.694  16.490  20.241  0.00  0.00    +0.000 Cl
ATOM     16  C   UNL     1       9.591  14.923  19.583  0.00  0.00    +0.000 A 
ATOM     17  C   UNL     1       9.011  13.764  19.045  0.00  0.00    +0.000 A 
ENDBRANCH   8  11
ENDBRANCH   3   5
BRANCH   1  18
ATOM     18  C   UNL     1       7.636   5.802  18.966  0.00  0.00    +0.000 C 
BRANCH  18  19
ATOM     19  O   UNL     1       7.219   4.651  18.260  0.00  0.00    +0.000 OA
BRANCH  19  26
ATOM     20  C   UNL     1       5.821   3.997  15.473  0.00  0.00    +0.000 C 
ATOM     21  C   UNL     1       5.199   4.137  16.833  0.00  0.00    +0.000 A 
ATOM     22  C   UNL     1       3.794   3.961  16.877  0.00  0.00    +0.000 A 
ATOM     23  C   UNL     1       3.076   4.061  18.066  0.00  0.00    +0.000 A 
ATOM     24  C   UNL     1       3.750   4.336  19.245  0.00  0.00    +0.000 A 
ATOM     25  C   UNL     1       5.135   4.511  19.223  0.00  0.00    +0.000 A 
ATOM     26  C   UNL     1       5.883   4.422  18.033  0.00  0.00    +0.000 A 
ENDBRANCH  19  26
ENDBRANCH  18  19
ENDBRANCH   1  18
TORSDOF 5
ENDMDL
