MODEL 1
REMARK VINA RESULT:      -8.2      0.000      0.000
REMARK  Name = 
REMARK  11 active torsions:
REMARK  status: ('A' for Active; 'I' for Inactive)
REMARK    1  A    between atoms: C_2  and  C_4
REMARK    2  A    between atoms: C_7  and  C_8
REMARK    3  A    between atoms: N_10  and  C_11
REMARK    4  A    between atoms: C_11  and  C_12
REMARK    5  A    between atoms: C_12  and  C_13
REMARK    6  A    between atoms: C_12  and  C_21
REMARK    7  A    between atoms: C_13  and  C_14
REMARK    8  A    between atoms: C_17  and  O_18
REMARK    9  A    between atoms: C_26  and  C_27
REMARK   10  A    between atoms: C_27  and  C_28
REMARK   11  A    between atoms: C_28  and  O_30
REMARK                            x       y       z     vdW  Elec       q    Type
REMARK                         _______ _______ _______ _____ _____    ______ ____
ROOT
ATOM      1  C   UNL     1       2.012   6.907  20.464  0.00  0.00    +0.000 C 
ENDROOT
BRANCH   1   2
ATOM      2  C   UNL     1       2.537   7.212  19.031  0.00  0.00    +0.000 C 
ATOM      3  O   UNL     1       1.812   7.768  18.202  0.00  0.00    +0.000 OA
ATOM      4  N   UNL     1       3.818   6.833  18.636  0.00  0.00    +0.000 N 
ATOM      5  C   UNL     1       4.349   7.380  17.375  0.00  0.00    +0.000 C 
ATOM      6  C   UNL     1       4.753   6.270  16.408  0.00  0.00    +0.000 C 
ATOM      7  C   UNL     1       5.747   5.281  17.038  0.00  0.00    +0.000 C 
ATOM      8  C   UNL     1       5.143   4.757  18.353  0.00  0.00    +0.000 C 
ATOM      9  C   UNL     1       4.679   5.864  19.308  0.00  0.00    +0.000 C 
BRANCH   7  10
ATOM     10  C   UNL     1       7.153   5.859  17.265  0.00  0.00    +0.000 C 
BRANCH  10  11
ATOM     11  C   UNL     1       8.004   5.003  18.174  0.00  0.00    +0.000 C 
ATOM     12  O   UNL     1       8.497   3.937  17.838  0.00  0.00    +0.000 OA
BRANCH  11  13
ATOM     13  O   UNL     1       8.160   5.517  19.413  0.00  0.00    +0.000 OA
ATOM     14  H   UNL     1       7.424   5.327  20.023  0.00  0.00    +0.000 HD
ENDBRANCH  11  13
ENDBRANCH  10  11
ENDBRANCH   7  10
ENDBRANCH   1   2
BRANCH   1  15
ATOM     15  C   UNL     1       1.368   8.148  21.121  0.00  0.00    +0.000 C 
BRANCH  15  18
ATOM     16  C   UNL     1       0.206  10.119  20.032  0.00  0.00    +0.000 C 
ATOM     17  O   UNL     1       1.043  10.935  20.382  0.00  0.00    +0.000 OA
ATOM     18  N   UNL     1       0.268   8.785  20.384  0.00  0.00    +0.000 N 
ATOM     19  H   UNL     1      -0.483   8.170  20.088  0.00  0.00    +0.000 HD
BRANCH  16  23
ATOM     20  C   UNL     1      -3.215  11.226  17.578  0.00  0.00    +0.000 A 
ATOM     21  C   UNL     1      -2.987  11.890  18.790  0.00  0.00    +0.000 A 
ATOM     22  C   UNL     1      -1.879  11.547  19.599  0.00  0.00    +0.000 A 
ATOM     23  C   UNL     1      -0.968  10.559  19.188  0.00  0.00    +0.000 A 
ATOM     24  C   UNL     1      -1.189   9.930  17.951  0.00  0.00    +0.000 A 
ATOM     25  C   UNL     1      -2.310  10.245  17.163  0.00  0.00    +0.000 A 
BRANCH  20  27
ATOM     26  N   UNL     1      -4.516  11.011  15.561  0.00  0.00    +0.000 NA
ATOM     27  C   UNL     1      -4.395  11.557  16.720  0.00  0.00    +0.000 C 
ATOM     28  N   UNL     1      -5.339  12.438  17.172  0.00  0.00    +0.000 N 
ATOM     29  H   UNL     1      -5.401  11.297  15.139  0.00  0.00    +0.000 HD
ATOM     30  H   UNL     1      -5.941  12.843  16.467  0.00  0.00    +0.000 HD
ATOM     31  H   UNL     1      -5.009  13.141  17.827  0.00  0.00    +0.000 HD
ENDBRANCH  20  27
ENDBRANCH  16  23
ENDBRANCH  15  18
ENDBRANCH   1  15
BRANCH   1  32
ATOM     32  C   UNL     1       1.066   5.658  20.508  0.00  0.00    +0.000 C 
BRANCH  32  33
ATOM     33  C   UNL     1       1.588   4.325  19.998  0.00  0.00    +0.000 A 
ATOM     34  C   UNL     1       2.357   3.489  20.819  0.00  0.00    +0.000 A 
ATOM     35  C   UNL     1       2.971   2.344  20.312  0.00  0.00    +0.000 A 
ATOM     36  C   UNL     1       2.769   2.007  18.982  0.00  0.00    +0.000 A 
ATOM     37  C   UNL     1       1.897   2.736  18.186  0.00  0.00    +0.000 A 
ATOM     38  C   UNL     1       1.308   3.898  18.693  0.00  0.00    +0.000 A 
BRANCH  36  39
ATOM     39  O   UNL     1       3.452   0.973  18.413  0.00  0.00    +0.000 OA
ATOM     40  H   UNL     1       4.126   1.363  17.832  0.00  0.00    +0.000 HD
ENDBRANCH  36  39
ENDBRANCH  32  33
ENDBRANCH   1  32
TORSDOF 11
ENDMDL
MODEL 2
REMARK VINA RESULT:      -7.9      1.055      1.423
REMARK  Name = 
REMARK  11 active torsions:
REMARK  status: ('A' for Active; 'I' for Inactive)
REMARK    1  A    between atoms: C_2  and  C_4
REMARK    2  A    between atoms: C_7  and  C_8
REMARK    3  A    between atoms: N_10  and  C_11
REMARK    4  A    between atoms: C_11  and  C_12
REMARK    5  A    between atoms: C_12  and  C_13
REMARK    6  A    between atoms: C_12  and  C_21
REMARK    7  A    between atoms: C_13  and  C_14
REMARK    8  A    between atoms: C_17  and  O_18
REMARK    9  A    between atoms: C_26  and  C_27
REMARK   10  A    between atoms: C_27  and  C_28
REMARK   11  A    between atoms: C_28  and  O_30
REMARK                            x       y       z     vdW  Elec       q    Type
REMARK                         _______ _______ _______ _____ _____    ______ ____
ROOT
ATOM      1  C   UNL     1       2.184   7.184  20.342  0.00  0.00    +0.000 C 
ENDROOT
BRANCH   1   2
ATOM      2  C   UNL     1       2.688   7.129  18.871  0.00  0.00    +0.000 C 
ATOM      3  O   UNL     1       2.023   7.629  17.959  0.00  0.00    +0.000 OA
ATOM      4  N   UNL     1       3.878   6.484  18.540  0.00  0.00    +0.000 N 
ATOM      5  C   UNL     1       4.433   6.693  17.192  0.00  0.00    +0.000 C 
ATOM      6  C   UNL     1       4.619   5.373  16.449  0.00  0.00    +0.000 C 
ATOM      7  C   UNL     1       5.474   4.373  17.244  0.00  0.00    +0.000 C 
ATOM      8  C   UNL     1       4.852   4.207  18.643  0.00  0.00    +0.000 C 
ATOM      9  C   UNL     1       4.606   5.532  19.374  0.00  0.00    +0.000 C 
BRANCH   7  10
ATOM     10  C   UNL     1       6.962   4.751  17.340  0.00  0.00    +0.000 C 
BRANCH  10  11
ATOM     11  C   UNL     1       7.430   5.605  16.185  0.00  0.00    +0.000 C 
ATOM     12  O   UNL     1       7.556   5.192  15.042  0.00  0.00    +0.000 OA
BRANCH  11  13
ATOM     13  O   UNL     1       7.716   6.877  16.534  0.00  0.00    +0.000 OA
ATOM     14  H   UNL     1       8.620   7.163  16.307  0.00  0.00    +0.000 HD
ENDBRANCH  11  13
ENDBRANCH  10  11
ENDBRANCH   7  10
ENDBRANCH   1   2
BRANCH   1  15
ATOM     15  C   UNL     1       1.728   8.604  20.745  0.00  0.00    +0.000 C 
BRANCH  15  18
ATOM     16  C   UNL     1       0.196  10.322  19.683  0.00  0.00    +0.000 C 
ATOM     17  O   UNL     1       1.019  11.223  19.714  0.00  0.00    +0.000 OA
ATOM     18  N   UNL     1       0.444   9.064  20.197  0.00  0.00    +0.000 N 
ATOM     19  H   UNL     1      -0.299   8.374  20.170  0.00  0.00    +0.000 HD
BRANCH  16  23
ATOM     20  C   UNL     1      -3.693  11.189  17.932  0.00  0.00    +0.000 A 
ATOM     21  C   UNL     1      -2.919  10.142  17.416  0.00  0.00    +0.000 A 
ATOM     22  C   UNL     1      -1.654   9.842  17.975  0.00  0.00    +0.000 A 
ATOM     23  C   UNL     1      -1.166  10.566  19.076  0.00  0.00    +0.000 A 
ATOM     24  C   UNL     1      -1.973  11.586  19.606  0.00  0.00    +0.000 A 
ATOM     25  C   UNL     1      -3.214  11.908  19.029  0.00  0.00    +0.000 A 
BRANCH  20  27
ATOM     26  N   UNL     1      -6.100  11.077  17.873  0.00  0.00    +0.000 NA
ATOM     27  C   UNL     1      -5.023  11.536  17.339  0.00  0.00    +0.000 C 
ATOM     28  N   UNL     1      -5.086  12.340  16.234  0.00  0.00    +0.000 N 
ATOM     29  H   UNL     1      -6.913  11.458  17.386  0.00  0.00    +0.000 HD
ATOM     30  H   UNL     1      -5.953  12.307  15.712  0.00  0.00    +0.000 HD
ATOM     31  H   UNL     1      -4.280  12.305  15.617  0.00  0.00    +0.000 HD
ENDBRANCH  20  27
ENDBRANCH  16  23
ENDBRANCH  15  18
ENDBRANCH   1  15
BRANCH   1  32
ATOM     32  C   UNL     1       1.088   6.105  20.646  0.00  0.00    +0.000 C 
BRANCH  32  33
ATOM     33  C   UNL     1       1.347   4.664  20.242  0.00  0.00    +0.000 A 
ATOM     34  C   UNL     1       1.858   3.736  21.161  0.00  0.00    +0.000 A 
ATOM     35  C   UNL     1       2.247   2.459  20.759  0.00  0.00    +0.000 A 
ATOM     36  C   UNL     1       2.073   2.091  19.432  0.00  0.00    +0.000 A 
ATOM     37  C   UNL     1       1.438   2.937  18.534  0.00  0.00    +0.000 A 
ATOM     38  C   UNL     1       1.077   4.225  18.938  0.00  0.00    +0.000 A 
BRANCH  36  39
ATOM     39  O   UNL     1       2.558   0.903  18.969  0.00  0.00    +0.000 OA
ATOM     40  H   UNL     1       3.512   1.023  18.824  0.00  0.00    +0.000 HD
ENDBRANCH  36  39
ENDBRANCH  32  33
ENDBRANCH   1  32
TORSDOF 11
ENDMDL
MODEL 3
REMARK VINA RESULT:      -7.9      0.508      1.121
REMARK  Name = 
REMARK  11 active torsions:
REMARK  status: ('A' for Active; 'I' for Inactive)
REMARK    1  A    between atoms: C_2  and  C_4
REMARK    2  A    between atoms: C_7  and  C_8
REMARK    3  A    between atoms: N_10  and  C_11
REMARK    4  A    between atoms: C_11  and  C_12
REMARK    5  A    between atoms: C_12  and  C_13
REMARK    6  A    between atoms: C_12  and  C_21
REMARK    7  A    between atoms: C_13  and  C_14
REMARK    8  A    between atoms: C_17  and  O_18
REMARK    9  A    between atoms: C_26  and  C_27
REMARK   10  A    between atoms: C_27  and  C_28
REMARK   11  A    between atoms: C_28  and  O_30
REMARK                            x       y       z     vdW  Elec       q    Type
REMARK                         _______ _______ _______ _____ _____    ______ ____
ROOT
ATOM      1  C   UNL     1       2.159   7.129  20.240  0.00  0.00    +0.000 C 
ENDROOT
BRANCH   1   2
ATOM      2  C   UNL     1       2.606   7.301  18.759  0.00  0.00    +0.000 C 
ATOM      3  O   UNL     1       1.847   7.808  17.929  0.00  0.00    +0.000 OA
ATOM      4  N   UNL     1       3.853   6.855  18.326  0.00  0.00    +0.000 N 
ATOM      5  C   UNL     1       4.322   7.281  16.996  0.00  0.00    +0.000 C 
ATOM      6  C   UNL     1       4.641   6.084  16.103  0.00  0.00    +0.000 C 
ATOM      7  C   UNL     1       5.647   5.122  16.757  0.00  0.00    +0.000 C 
ATOM      8  C   UNL     1       5.108   4.725  18.143  0.00  0.00    +0.000 C 
ATOM      9  C   UNL     1       4.728   5.920  19.026  0.00  0.00    +0.000 C 
BRANCH   7  10
ATOM     10  C   UNL     1       7.077   5.676  16.854  0.00  0.00    +0.000 C 
BRANCH  10  11
ATOM     11  C   UNL     1       7.852   5.108  18.021  0.00  0.00    +0.000 C 
ATOM     12  O   UNL     1       7.996   5.689  19.087  0.00  0.00    +0.000 OA
BRANCH  11  13
ATOM     13  O   UNL     1       8.392   3.896  17.775  0.00  0.00    +0.000 OA
ATOM     14  H   UNL     1       9.142   3.909  17.152  0.00  0.00    +0.000 HD
ENDBRANCH  11  13
ENDBRANCH  10  11
ENDBRANCH   7  10
ENDBRANCH   1   2
BRANCH   1  15
ATOM     15  C   UNL     1       1.604   8.443  20.834  0.00  0.00    +0.000 C 
BRANCH  15  18
ATOM     16  C   UNL     1       0.230  10.125  19.525  0.00  0.00    +0.000 C 
ATOM     17  O   UNL     1       1.152  10.911  19.373  0.00  0.00    +0.000 OA
ATOM     18  N   UNL     1       0.356   8.954  20.247  0.00  0.00    +0.000 N 
ATOM     19  H   UNL     1      -0.462   8.365  20.364  0.00  0.00    +0.000 HD
BRANCH  16  23
ATOM     20  C   UNL     1      -3.625  11.149  17.783  0.00  0.00    +0.000 A 
ATOM     21  C   UNL     1      -2.899  10.066  17.272  0.00  0.00    +0.000 A 
ATOM     22  C   UNL     1      -1.647   9.715  17.828  0.00  0.00    +0.000 A 
ATOM     23  C   UNL     1      -1.123  10.424  18.922  0.00  0.00    +0.000 A 
ATOM     24  C   UNL     1      -1.882  11.483  19.448  0.00  0.00    +0.000 A 
ATOM     25  C   UNL     1      -3.110  11.855  18.873  0.00  0.00    +0.000 A 
BRANCH  20  27
ATOM     26  N   UNL     1      -4.969  12.317  16.160  0.00  0.00    +0.000 NA
ATOM     27  C   UNL     1      -4.940  11.551  17.193  0.00  0.00    +0.000 C 
ATOM     28  N   UNL     1      -6.104  11.101  17.755  0.00  0.00    +0.000 N 
ATOM     29  H   UNL     1      -5.936  12.441  15.853  0.00  0.00    +0.000 HD
ATOM     30  H   UNL     1      -6.940  11.617  17.514  0.00  0.00    +0.000 HD
ATOM     31  H   UNL     1      -6.065  10.902  18.751  0.00  0.00    +0.000 HD
ENDBRANCH  20  27
ENDBRANCH  16  23
ENDBRANCH  15  18
ENDBRANCH   1  15
BRANCH   1  32
ATOM     32  C   UNL     1       1.171   5.929  20.438  0.00  0.00    +0.000 C 
BRANCH  32  33
ATOM     33  C   UNL     1       1.598   4.545  19.980  0.00  0.00    +0.000 A 
ATOM     34  C   UNL     1       2.352   3.709  20.815  0.00  0.00    +0.000 A 
ATOM     35  C   UNL     1       2.883   2.507  20.347  0.00  0.00    +0.000 A 
ATOM     36  C   UNL     1       2.610   2.115  19.044  0.00  0.00    +0.000 A 
ATOM     37  C   UNL     1       1.749   2.852  18.243  0.00  0.00    +0.000 A 
ATOM     38  C   UNL     1       1.245   4.069  18.710  0.00  0.00    +0.000 A 
BRANCH  36  39
ATOM     39  O   UNL     1       3.213   1.017  18.506  0.00  0.00    +0.000 OA
ATOM     40  H   UNL     1       2.632   0.692  17.798  0.00  0.00    +0.000 HD
ENDBRANCH  36  39
ENDBRANCH  32  33
ENDBRANCH   1  32
TORSDOF 11
ENDMDL
MODEL 4
REMARK VINA RESULT:      -7.7      3.577      9.541
REMARK  Name = 
REMARK  11 active torsions:
REMARK  status: ('A' for Active; 'I' for Inactive)
REMARK    1  A    between atoms: C_2  and  C_4
REMARK    2  A    between atoms: C_7  and  C_8
REMARK    3  A    between atoms: N_10  and  C_11
REMARK    4  A    between atoms: C_11  and  C_12
REMARK    5  A    between atoms: C_12  and  C_13
REMARK    6  A    between atoms: C_12  and  C_21
REMARK    7  A    between atoms: C_13  and  C_14
REMARK    8  A    between atoms: C_17  and  O_18
REMARK    9  A    between atoms: C_26  and  C_27
REMARK   10  A    between atoms: C_27  and  C_28
REMARK   11  A    between atoms: C_28  and  O_30
REMARK                            x       y       z     vdW  Elec       q    Type
REMARK                         _______ _______ _______ _____ _____    ______ ____
ROOT
ATOM      1  C   UNL     1       0.325  10.083  19.716  0.00  0.00    +0.000 C 
ENDROOT
BRANCH   1   2
ATOM      2  C   UNL     1       1.050  11.238  20.466  0.00  0.00    +0.000 C 
ATOM      3  O   UNL     1       1.327  11.133  21.664  0.00  0.00    +0.000 OA
ATOM      4  N   UNL     1       1.371  12.430  19.818  0.00  0.00    +0.000 N 
ATOM      5  C   UNL     1       2.284  13.367  20.494  0.00  0.00    +0.000 C 
ATOM      6  C   UNL     1       1.646  14.743  20.672  0.00  0.00    +0.000 C 
ATOM      7  C   UNL     1       1.146  15.329  19.342  0.00  0.00    +0.000 C 
ATOM      8  C   UNL     1       0.209  14.301  18.681  0.00  0.00    +0.000 C 
ATOM      9  C   UNL     1       0.819  12.900  18.551  0.00  0.00    +0.000 C 
BRANCH   7  10
ATOM     10  C   UNL     1       2.265  15.760  18.381  0.00  0.00    +0.000 C 
BRANCH  10  11
ATOM     11  C   UNL     1       2.254  17.241  18.087  0.00  0.00    +0.000 C 
ATOM     12  O   UNL     1       1.813  18.083  18.856  0.00  0.00    +0.000 OA
BRANCH  11  13
ATOM     13  O   UNL     1       2.765  17.558  16.879  0.00  0.00    +0.000 OA
ATOM     14  H   UNL     1       2.321  17.125  16.128  0.00  0.00    +0.000 HD
ENDBRANCH  11  13
ENDBRANCH  10  11
ENDBRANCH   7  10
ENDBRANCH   1   2
BRANCH   1  15
ATOM     15  C   UNL     1       0.784   8.694  20.210  0.00  0.00    +0.000 C 
BRANCH  15  18
ATOM     16  C   UNL     1       2.391   6.817  19.640  0.00  0.00    +0.000 C 
ATOM     17  O   UNL     1       1.807   5.979  20.309  0.00  0.00    +0.000 OA
ATOM     18  N   UNL     1       1.992   8.138  19.582  0.00  0.00    +0.000 N 
ATOM     19  H   UNL     1       2.546   8.788  19.035  0.00  0.00    +0.000 HD
BRANCH  16  23
ATOM     20  C   UNL     1       5.883   5.532  17.384  0.00  0.00    +0.000 A 
ATOM     21  C   UNL     1       4.995   6.456  16.819  0.00  0.00    +0.000 A 
ATOM     22  C   UNL     1       3.856   6.888  17.539  0.00  0.00    +0.000 A 
ATOM     23  C   UNL     1       3.613   6.427  18.844  0.00  0.00    +0.000 A 
ATOM     24  C   UNL     1       4.536   5.531  19.410  0.00  0.00    +0.000 A 
ATOM     25  C   UNL     1       5.649   5.073  18.682  0.00  0.00    +0.000 A 
BRANCH  20  27
ATOM     26  N   UNL     1       7.870   4.185  17.171  0.00  0.00    +0.000 NA
ATOM     27  C   UNL     1       7.080   5.045  16.629  0.00  0.00    +0.000 C 
ATOM     28  N   UNL     1       7.327   5.514  15.368  0.00  0.00    +0.000 N 
ATOM     29  H   UNL     1       8.594   3.916  16.501  0.00  0.00    +0.000 HD
ATOM     30  H   UNL     1       8.271   5.387  15.025  0.00  0.00    +0.000 HD
ATOM     31  H   UNL     1       6.984   6.450  15.170  0.00  0.00    +0.000 HD
ENDBRANCH  20  27
ENDBRANCH  16  23
ENDBRANCH  15  18
ENDBRANCH   1  15
BRANCH   1  32
ATOM     32  C   UNL     1      -1.235  10.232  19.741  0.00  0.00    +0.000 C 
BRANCH  32  33
ATOM     33  C   UNL     1      -1.973  10.443  18.430  0.00  0.00    +0.000 A 
ATOM     34  C   UNL     1      -3.052  11.334  18.344  0.00  0.00    +0.000 A 
ATOM     35  C   UNL     1      -3.832  11.415  17.191  0.00  0.00    +0.000 A 
ATOM     36  C   UNL     1      -3.495  10.632  16.095  0.00  0.00    +0.000 A 
ATOM     37  C   UNL     1      -2.348   9.851  16.104  0.00  0.00    +0.000 A 
ATOM     38  C   UNL     1      -1.588   9.754  17.272  0.00  0.00    +0.000 A 
BRANCH  36  39
ATOM     39  O   UNL     1      -4.303  10.583  14.999  0.00  0.00    +0.000 OA
ATOM     40  H   UNL     1      -5.181  10.895  15.278  0.00  0.00    +0.000 HD
ENDBRANCH  36  39
ENDBRANCH  32  33
ENDBRANCH   1  32
TORSDOF 11
ENDMDL
MODEL 5
REMARK VINA RESULT:      -7.7      3.236      6.173
REMARK  Name = 
REMARK  11 active torsions:
REMARK  status: ('A' for Active; 'I' for Inactive)
REMARK    1  A    between atoms: C_2  and  C_4
REMARK    2  A    between atoms: C_7  and  C_8
REMARK    3  A    between atoms: N_10  and  C_11
REMARK    4  A    between atoms: C_11  and  C_12
REMARK    5  A    between atoms: C_12  and  C_13
REMARK    6  A    between atoms: C_12  and  C_21
REMARK    7  A    between atoms: C_13  and  C_14
REMARK    8  A    between atoms: C_17  and  O_18
REMARK    9  A    between atoms: C_26  and  C_27
REMARK   10  A    between atoms: C_27  and  C_28
REMARK   11  A    between atoms: C_28  and  O_30
REMARK                            x       y       z     vdW  Elec       q    Type
REMARK                         _______ _______ _______ _____ _____    ______ ____
ROOT
ATOM      1  C   UNL     1       0.817   9.116  19.112  0.00  0.00    +0.000 C 
ENDROOT
BRANCH   1   2
ATOM      2  C   UNL     1       1.985   8.467  18.315  0.00  0.00    +0.000 C 
ATOM      3  O   UNL     1       2.416   8.999  17.288  0.00  0.00    +0.000 OA
ATOM      4  N   UNL     1       2.547   7.256  18.714  0.00  0.00    +0.000 N 
ATOM      5  C   UNL     1       3.809   6.832  18.085  0.00  0.00    +0.000 C 
ATOM      6  C   UNL     1       3.675   5.462  17.424  0.00  0.00    +0.000 C 
ATOM      7  C   UNL     1       3.163   4.392  18.402  0.00  0.00    +0.000 C 
ATOM      8  C   UNL     1       1.853   4.897  19.033  0.00  0.00    +0.000 C 
ATOM      9  C   UNL     1       1.962   6.298  19.648  0.00  0.00    +0.000 C 
BRANCH   7  10
ATOM     10  C   UNL     1       4.179   3.985  19.481  0.00  0.00    +0.000 C 
BRANCH  10  11
ATOM     11  C   UNL     1       4.304   2.488  19.642  0.00  0.00    +0.000 C 
ATOM     12  O   UNL     1       5.022   1.951  20.472  0.00  0.00    +0.000 OA
BRANCH  11  13
ATOM     13  O   UNL     1       3.555   1.785  18.766  0.00  0.00    +0.000 OA
ATOM     14  H   UNL     1       3.445   2.212  17.896  0.00  0.00    +0.000 HD
ENDBRANCH  11  13
ENDBRANCH  10  11
ENDBRANCH   7  10
ENDBRANCH   1   2
BRANCH   1  15
ATOM     15  C   UNL     1       1.184   9.340  20.596  0.00  0.00    +0.000 C 
BRANCH  15  18
ATOM     16  C   UNL     1       0.374  11.501  21.647  0.00  0.00    +0.000 C 
ATOM     17  O   UNL     1       1.348  12.151  21.302  0.00  0.00    +0.000 OA
ATOM     18  N   UNL     1       0.247  10.150  21.390  0.00  0.00    +0.000 N 
ATOM     19  H   UNL     1      -0.573   9.664  21.739  0.00  0.00    +0.000 HD
BRANCH  16  23
ATOM     20  C   UNL     1      -2.863  13.552  23.710  0.00  0.00    +0.000 A 
ATOM     21  C   UNL     1      -2.944  12.170  23.495  0.00  0.00    +0.000 A 
ATOM     22  C   UNL     1      -1.900  11.485  22.831  0.00  0.00    +0.000 A 
ATOM     23  C   UNL     1      -0.749  12.170  22.403  0.00  0.00    +0.000 A 
ATOM     24  C   UNL     1      -0.667  13.549  22.662  0.00  0.00    +0.000 A 
ATOM     25  C   UNL     1      -1.721  14.237  23.291  0.00  0.00    +0.000 A 
BRANCH  20  27
ATOM     26  N   UNL     1      -3.693  15.322  25.119  0.00  0.00    +0.000 NA
ATOM     27  C   UNL     1      -3.968  14.298  24.390  0.00  0.00    +0.000 C 
ATOM     28  N   UNL     1      -5.264  13.888  24.232  0.00  0.00    +0.000 N 
ATOM     29  H   UNL     1      -4.560  15.746  25.454  0.00  0.00    +0.000 HD
ATOM     30  H   UNL     1      -5.923  14.228  24.920  0.00  0.00    +0.000 HD
ATOM     31  H   UNL     1      -5.394  12.897  24.052  0.00  0.00    +0.000 HD
ENDBRANCH  20  27
ENDBRANCH  16  23
ENDBRANCH  15  18
ENDBRANCH   1  15
BRANCH   1  32
ATOM     32  C   UNL     1       0.274  10.421  18.435  0.00  0.00    +0.000 C 
BRANCH  32  33
ATOM     33  C   UNL     1      -1.202  10.506  18.087  0.00  0.00    +0.000 A 
ATOM     34  C   UNL     1      -1.745   9.735  17.050  0.00  0.00    +0.000 A 
ATOM     35  C   UNL     1      -3.059   9.924  16.620  0.00  0.00    +0.000 A 
ATOM     36  C   UNL     1      -3.851  10.858  17.272  0.00  0.00    +0.000 A 
ATOM     37  C   UNL     1      -3.384  11.531  18.393  0.00  0.00    +0.000 A 
ATOM     38  C   UNL     1      -2.059  11.357  18.799  0.00  0.00    +0.000 A 
BRANCH  36  39
ATOM     39  O   UNL     1      -5.093  11.167  16.804  0.00  0.00    +0.000 OA
ATOM     40  H   UNL     1      -5.043  12.065  16.435  0.00  0.00    +0.000 HD
ENDBRANCH  36  39
ENDBRANCH  32  33
ENDBRANCH   1  32
TORSDOF 11
ENDMDL
MODEL 6
REMARK VINA RESULT:      -7.6      3.222      6.139
REMARK  Name = 
REMARK  11 active torsions:
REMARK  status: ('A' for Active; 'I' for Inactive)
REMARK    1  A    between atoms: C_2  and  C_4
REMARK    2  A    between atoms: C_7  and  C_8
REMARK    3  A    between atoms: N_10  and  C_11
REMARK    4  A    between atoms: C_11  and  C_12
REMARK    5  A    between atoms: C_12  and  C_13
REMARK    6  A    between atoms: C_12  and  C_21
REMARK    7  A    between atoms: C_13  and  C_14
REMARK    8  A    between atoms: C_17  and  O_18
REMARK    9  A    between atoms: C_26  and  C_27
REMARK   10  A    between atoms: C_27  and  C_28
REMARK   11  A    between atoms: C_28  and  O_30
REMARK                            x       y       z     vdW  Elec       q    Type
REMARK                         _______ _______ _______ _____ _____    ______ ____
ROOT
ATOM      1  C   UNL     1       0.841   9.025  19.064  0.00  0.00    +0.000 C 
ENDROOT
BRANCH   1   2
ATOM      2  C   UNL     1       2.006   8.334  18.298  0.00  0.00    +0.000 C 
ATOM      3  O   UNL     1       2.497   8.858  17.294  0.00  0.00    +0.000 OA
ATOM      4  N   UNL     1       2.499   7.094  18.701  0.00  0.00    +0.000 N 
ATOM      5  C   UNL     1       3.762   6.621  18.110  0.00  0.00    +0.000 C 
ATOM      6  C   UNL     1       3.591   5.267  17.427  0.00  0.00    +0.000 C 
ATOM      7  C   UNL     1       2.997   4.209  18.371  0.00  0.00    +0.000 C 
ATOM      8  C   UNL     1       1.690   4.766  18.964  0.00  0.00    +0.000 C 
ATOM      9  C   UNL     1       1.839   6.153  19.601  0.00  0.00    +0.000 C 
BRANCH   7  10
ATOM     10  C   UNL     1       3.956   3.744  19.480  0.00  0.00    +0.000 C 
BRANCH  10  11
ATOM     11  C   UNL     1       4.227   2.258  19.442  0.00  0.00    +0.000 C 
ATOM     12  O   UNL     1       3.594   1.470  18.756  0.00  0.00    +0.000 OA
BRANCH  11  13
ATOM     13  O   UNL     1       5.231   1.870  20.255  0.00  0.00    +0.000 OA
ATOM     14  H   UNL     1       4.967   1.728  21.182  0.00  0.00    +0.000 HD
ENDBRANCH  11  13
ENDBRANCH  10  11
ENDBRANCH   7  10
ENDBRANCH   1   2
BRANCH   1  15
ATOM     15  C   UNL     1       1.195   9.286  20.545  0.00  0.00    +0.000 C 
BRANCH  15  18
ATOM     16  C   UNL     1       0.485  11.526  21.496  0.00  0.00    +0.000 C 
ATOM     17  O   UNL     1       1.496  12.111  21.140  0.00  0.00    +0.000 OA
ATOM     18  N   UNL     1       0.292  10.174  21.291  0.00  0.00    +0.000 N 
ATOM     19  H   UNL     1      -0.557   9.746  21.646  0.00  0.00    +0.000 HD
BRANCH  16  23
ATOM     20  C   UNL     1      -2.675  13.589  23.664  0.00  0.00    +0.000 A 
ATOM     21  C   UNL     1      -1.585  14.317  23.168  0.00  0.00    +0.000 A 
ATOM     22  C   UNL     1      -0.551  13.664  22.458  0.00  0.00    +0.000 A 
ATOM     23  C   UNL     1      -0.612  12.283  22.207  0.00  0.00    +0.000 A 
ATOM     24  C   UNL     1      -1.732  11.575  22.676  0.00  0.00    +0.000 A 
ATOM     25  C   UNL     1      -2.743  12.217  23.413  0.00  0.00    +0.000 A 
BRANCH  20  27
ATOM     26  N   UNL     1      -3.474  14.987  25.457  0.00  0.00    +0.000 NA
ATOM     27  C   UNL     1      -3.767  14.258  24.438  0.00  0.00    +0.000 C 
ATOM     28  N   UNL     1      -5.071  14.090  24.059  0.00  0.00    +0.000 N 
ATOM     29  H   UNL     1      -4.325  15.414  25.828  0.00  0.00    +0.000 HD
ATOM     30  H   UNL     1      -5.768  14.309  24.759  0.00  0.00    +0.000 HD
ATOM     31  H   UNL     1      -5.284  13.216  23.585  0.00  0.00    +0.000 HD
ENDBRANCH  20  27
ENDBRANCH  16  23
ENDBRANCH  15  18
ENDBRANCH   1  15
BRANCH   1  32
ATOM     32  C   UNL     1       0.329  10.319  18.343  0.00  0.00    +0.000 C 
BRANCH  32  33
ATOM     33  C   UNL     1      -1.150  10.439  18.016  0.00  0.00    +0.000 A 
ATOM     34  C   UNL     1      -1.719   9.702  16.968  0.00  0.00    +0.000 A 
ATOM     35  C   UNL     1      -3.034   9.924  16.559  0.00  0.00    +0.000 A 
ATOM     36  C   UNL     1      -3.801  10.857  17.242  0.00  0.00    +0.000 A 
ATOM     37  C   UNL     1      -3.309  11.495  18.372  0.00  0.00    +0.000 A 
ATOM     38  C   UNL     1      -1.982  11.289  18.758  0.00  0.00    +0.000 A 
BRANCH  36  39
ATOM     39  O   UNL     1      -5.044  11.198  16.796  0.00  0.00    +0.000 OA
ATOM     40  H   UNL     1      -5.526  11.569  17.554  0.00  0.00    +0.000 HD
ENDBRANCH  36  39
ENDBRANCH  32  33
ENDBRANCH   1  32
TORSDOF 11
ENDMDL
MODEL 7
REMARK VINA RESULT:      -7.6      3.273     10.037
REMARK  Name = 
REMARK  11 active torsions:
REMARK  status: ('A' for Active; 'I' for Inactive)
REMARK    1  A    between atoms: C_2  and  C_4
REMARK    2  A    between atoms: C_7  and  C_8
REMARK    3  A    between atoms: N_10  and  C_11
REMARK    4  A    between atoms: C_11  and  C_12
REMARK    5  A    between atoms: C_12  and  C_13
REMARK    6  A    between atoms: C_12  and  C_21
REMARK    7  A    between atoms: C_13  and  C_14
REMARK    8  A    between atoms: C_17  and  O_18
REMARK    9  A    between atoms: C_26  and  C_27
REMARK   10  A    between atoms: C_27  and  C_28
REMARK   11  A    between atoms: C_28  and  O_30
REMARK                            x       y       z     vdW  Elec       q    Type
REMARK                         _______ _______ _______ _____ _____    ______ ____
ROOT
ATOM      1  C   UNL     1       0.170  10.372  18.663  0.00  0.00    +0.000 C 
ENDROOT
BRANCH   1   2
ATOM      2  C   UNL     1      -0.207  10.251  20.168  0.00  0.00    +0.000 C 
ATOM      3  O   UNL     1      -0.397   9.144  20.681  0.00  0.00    +0.000 OA
ATOM      4  N   UNL     1      -0.376  11.382  20.962  0.00  0.00    +0.000 N 
ATOM      5  C   UNL     1      -0.467  11.203  22.422  0.00  0.00    +0.000 C 
ATOM      6  C   UNL     1      -1.764  11.782  22.980  0.00  0.00    +0.000 C 
ATOM      7  C   UNL     1      -1.954  13.259  22.597  0.00  0.00    +0.000 C 
ATOM      8  C   UNL     1      -1.837  13.383  21.067  0.00  0.00    +0.000 C 
ATOM      9  C   UNL     1      -0.565  12.750  20.489  0.00  0.00    +0.000 C 
BRANCH   7  10
ATOM     10  C   UNL     1      -0.992  14.224  23.308  0.00  0.00    +0.000 C 
BRANCH  10  11
ATOM     11  C   UNL     1      -1.584  14.838  24.555  0.00  0.00    +0.000 C 
ATOM     12  O   UNL     1      -0.916  15.269  25.482  0.00  0.00    +0.000 OA
BRANCH  11  13
ATOM     13  O   UNL     1      -2.934  14.853  24.563  0.00  0.00    +0.000 OA
ATOM     14  H   UNL     1      -3.325  15.642  24.980  0.00  0.00    +0.000 HD
ENDBRANCH  11  13
ENDBRANCH  10  11
ENDBRANCH   7  10
ENDBRANCH   1   2
BRANCH   1  15
ATOM     15  C   UNL     1       1.644   9.989  18.403  0.00  0.00    +0.000 C 
BRANCH  15  18
ATOM     16  C   UNL     1       2.805   7.836  17.736  0.00  0.00    +0.000 C 
ATOM     17  O   UNL     1       3.245   8.280  16.688  0.00  0.00    +0.000 OA
ATOM     18  N   UNL     1       1.998   8.573  18.580  0.00  0.00    +0.000 N 
ATOM     19  H   UNL     1       1.637   8.128  19.418  0.00  0.00    +0.000 HD
BRANCH  16  23
ATOM     20  C   UNL     1       3.661   3.699  18.781  0.00  0.00    +0.000 A 
ATOM     21  C   UNL     1       4.661   4.670  18.919  0.00  0.00    +0.000 A 
ATOM     22  C   UNL     1       4.400   6.020  18.588  0.00  0.00    +0.000 A 
ATOM     23  C   UNL     1       3.127   6.419  18.148  0.00  0.00    +0.000 A 
ATOM     24  C   UNL     1       2.124   5.439  18.053  0.00  0.00    +0.000 A 
ATOM     25  C   UNL     1       2.393   4.090  18.347  0.00  0.00    +0.000 A 
BRANCH  20  27
ATOM     26  N   UNL     1       4.847   1.954  19.946  0.00  0.00    +0.000 NA
ATOM     27  C   UNL     1       3.925   2.261  19.103  0.00  0.00    +0.000 C 
ATOM     28  N   UNL     1       3.185   1.282  18.499  0.00  0.00    +0.000 N 
ATOM     29  H   UNL     1       4.851   0.943  20.095  0.00  0.00    +0.000 HD
ATOM     30  H   UNL     1       3.580   0.351  18.521  0.00  0.00    +0.000 HD
ATOM     31  H   UNL     1       2.821   1.509  17.577  0.00  0.00    +0.000 HD
ENDBRANCH  20  27
ENDBRANCH  16  23
ENDBRANCH  15  18
ENDBRANCH   1  15
BRANCH   1  32
ATOM     32  C   UNL     1      -0.816   9.590  17.728  0.00  0.00    +0.000 C 
BRANCH  32  33
ATOM     33  C   UNL     1      -2.183  10.188  17.442  0.00  0.00    +0.000 A 
ATOM     34  C   UNL     1      -2.760  10.093  16.168  0.00  0.00    +0.000 A 
ATOM     35  C   UNL     1      -3.937  10.773  15.855  0.00  0.00    +0.000 A 
ATOM     36  C   UNL     1      -4.569  11.513  16.845  0.00  0.00    +0.000 A 
ATOM     37  C   UNL     1      -4.098  11.506  18.150  0.00  0.00    +0.000 A 
ATOM     38  C   UNL     1      -2.903  10.846  18.449  0.00  0.00    +0.000 A 
BRANCH  36  39
ATOM     39  O   UNL     1      -5.645  12.295  16.550  0.00  0.00    +0.000 OA
ATOM     40  H   UNL     1      -6.300  11.725  16.113  0.00  0.00    +0.000 HD
ENDBRANCH  36  39
ENDBRANCH  32  33
ENDBRANCH   1  32
TORSDOF 11
ENDMDL
MODEL 8
REMARK VINA RESULT:      -7.5      3.495     10.333
REMARK  Name = 
REMARK  11 active torsions:
REMARK  status: ('A' for Active; 'I' for Inactive)
REMARK    1  A    between atoms: C_2  and  C_4
REMARK    2  A    between atoms: C_7  and  C_8
REMARK    3  A    between atoms: N_10  and  C_11
REMARK    4  A    between atoms: C_11  and  C_12
REMARK    5  A    between atoms: C_12  and  C_13
REMARK    6  A    between atoms: C_12  and  C_21
REMARK    7  A    between atoms: C_13  and  C_14
REMARK    8  A    between atoms: C_17  and  O_18
REMARK    9  A    between atoms: C_26  and  C_27
REMARK   10  A    between atoms: C_27  and  C_28
REMARK   11  A    between atoms: C_28  and  O_30
REMARK                            x       y       z     vdW  Elec       q    Type
REMARK                         _______ _______ _______ _____ _____    ______ ____
ROOT
ATOM      1  C   UNL     1      -0.235  11.040  19.201  0.00  0.00    +0.000 C 
ENDROOT
BRANCH   1   2
ATOM      2  C   UNL     1      -0.681  10.879  20.683  0.00  0.00    +0.000 C 
ATOM      3  O   UNL     1      -0.783   9.758  21.190  0.00  0.00    +0.000 OA
ATOM      4  N   UNL     1      -1.012  11.985  21.461  0.00  0.00    +0.000 N 
ATOM      5  C   UNL     1      -1.164  11.796  22.914  0.00  0.00    +0.000 C 
ATOM      6  C   UNL     1      -2.544  12.236  23.396  0.00  0.00    +0.000 C 
ATOM      7  C   UNL     1      -2.866  13.685  22.996  0.00  0.00    +0.000 C 
ATOM      8  C   UNL     1      -2.678  13.822  21.475  0.00  0.00    +0.000 C 
ATOM      9  C   UNL     1      -1.316  13.327  20.972  0.00  0.00    +0.000 C 
BRANCH   7  10
ATOM     10  C   UNL     1      -2.051  14.745  23.755  0.00  0.00    +0.000 C 
BRANCH  10  11
ATOM     11  C   UNL     1      -2.600  15.039  25.131  0.00  0.00    +0.000 C 
ATOM     12  O   UNL     1      -1.901  15.260  26.108  0.00  0.00    +0.000 OA
BRANCH  11  13
ATOM     13  O   UNL     1      -3.949  15.021  25.192  0.00  0.00    +0.000 OA
ATOM     14  H   UNL     1      -4.371  14.400  24.571  0.00  0.00    +0.000 HD
ENDBRANCH  11  13
ENDBRANCH  10  11
ENDBRANCH   7  10
ENDBRANCH   1   2
BRANCH   1  15
ATOM     15  C   UNL     1       1.259  10.699  19.004  0.00  0.00    +0.000 C 
BRANCH  15  18
ATOM     16  C   UNL     1       2.186   8.469  18.231  0.00  0.00    +0.000 C 
ATOM     17  O   UNL     1       2.323   8.816  17.069  0.00  0.00    +0.000 OA
ATOM     18  N   UNL     1       1.643   9.293  19.198  0.00  0.00    +0.000 N 
ATOM     19  H   UNL     1       1.525   8.926  20.137  0.00  0.00    +0.000 HD
BRANCH  16  23
ATOM     20  C   UNL     1       3.552   4.516  19.436  0.00  0.00    +0.000 A 
ATOM     21  C   UNL     1       2.593   5.184  20.209  0.00  0.00    +0.000 A 
ATOM     22  C   UNL     1       2.134   6.467  19.831  0.00  0.00    +0.000 A 
ATOM     23  C   UNL     1       2.605   7.082  18.658  0.00  0.00    +0.000 A 
ATOM     24  C   UNL     1       3.536   6.382  17.874  0.00  0.00    +0.000 A 
ATOM     25  C   UNL     1       4.020   5.121  18.267  0.00  0.00    +0.000 A 
BRANCH  20  27
ATOM     26  N   UNL     1       5.149   2.717  19.300  0.00  0.00    +0.000 NA
ATOM     27  C   UNL     1       4.068   3.169  19.832  0.00  0.00    +0.000 C 
ATOM     28  N   UNL     1       3.387   2.424  20.756  0.00  0.00    +0.000 N 
ATOM     29  H   UNL     1       5.390   1.819  19.725  0.00  0.00    +0.000 HD
ATOM     30  H   UNL     1       3.602   1.435  20.773  0.00  0.00    +0.000 HD
ATOM     31  H   UNL     1       2.385   2.587  20.804  0.00  0.00    +0.000 HD
ENDBRANCH  20  27
ENDBRANCH  16  23
ENDBRANCH  15  18
ENDBRANCH   1  15
BRANCH   1  32
ATOM     32  C   UNL     1      -1.155  10.255  18.204  0.00  0.00    +0.000 C 
BRANCH  32  33
ATOM     33  C   UNL     1      -2.488  10.864  17.802  0.00  0.00    +0.000 A 
ATOM     34  C   UNL     1      -3.288  11.532  18.738  0.00  0.00    +0.000 A 
ATOM     35  C   UNL     1      -4.579  11.953  18.418  0.00  0.00    +0.000 A 
ATOM     36  C   UNL     1      -5.051  11.747  17.129  0.00  0.00    +0.000 A 
ATOM     37  C   UNL     1      -4.230  11.218  16.144  0.00  0.00    +0.000 A 
ATOM     38  C   UNL     1      -2.948  10.774  16.480  0.00  0.00    +0.000 A 
BRANCH  36  39
ATOM     39  O   UNL     1      -6.348  12.023  16.810  0.00  0.00    +0.000 OA
ATOM     40  H   UNL     1      -6.413  12.985  16.692  0.00  0.00    +0.000 HD
ENDBRANCH  36  39
ENDBRANCH  32  33
ENDBRANCH   1  32
TORSDOF 11
ENDMDL
MODEL 9
REMARK VINA RESULT:      -7.4      1.755      4.243
REMARK  Name = 
REMARK  11 active torsions:
REMARK  status: ('A' for Active; 'I' for Inactive)
REMARK    1  A    between atoms: C_2  and  C_4
REMARK    2  A    between atoms: C_7  and  C_8
REMARK    3  A    between atoms: N_10  and  C_11
REMARK    4  A    between atoms: C_11  and  C_12
REMARK    5  A    between atoms: C_12  and  C_13
REMARK    6  A    between atoms: C_12  and  C_21
REMARK    7  A    between atoms: C_13  and  C_14
REMARK    8  A    between atoms: C_17  and  O_18
REMARK    9  A    between atoms: C_26  and  C_27
REMARK   10  A    between atoms: C_27  and  C_28
REMARK   11  A    between atoms: C_28  and  O_30
REMARK                            x       y       z     vdW  Elec       q    Type
REMARK                         _______ _______ _______ _____ _____    ______ ____
ROOT
ATOM      1  C   UNL     1       3.104   7.816  17.881  0.00  0.00    +0.000 C 
ENDROOT
BRANCH   1   2
ATOM      2  C   UNL     1       2.436   7.153  19.120  0.00  0.00    +0.000 C 
ATOM      3  O   UNL     1       1.986   7.845  20.037  0.00  0.00    +0.000 OA
ATOM      4  N   UNL     1       2.362   5.767  19.245  0.00  0.00    +0.000 N 
ATOM      5  C   UNL     1       1.492   5.207  20.293  0.00  0.00    +0.000 C 
ATOM      6  C   UNL     1       2.269   4.299  21.243  0.00  0.00    +0.000 C 
ATOM      7  C   UNL     1       3.018   3.183  20.499  0.00  0.00    +0.000 C 
ATOM      8  C   UNL     1       3.898   3.828  19.413  0.00  0.00    +0.000 C 
ATOM      9  C   UNL     1       3.138   4.789  18.489  0.00  0.00    +0.000 C 
BRANCH   7  10
ATOM     10  C   UNL     1       2.106   2.099  19.902  0.00  0.00    +0.000 C 
BRANCH  10  11
ATOM     11  C   UNL     1       2.652   1.503  18.626  0.00  0.00    +0.000 C 
ATOM     12  O   UNL     1       3.694   0.868  18.565  0.00  0.00    +0.000 OA
BRANCH  11  13
ATOM     13  O   UNL     1       1.887   1.750  17.542  0.00  0.00    +0.000 OA
ATOM     14  H   UNL     1       0.929   1.659  17.695  0.00  0.00    +0.000 HD
ENDBRANCH  11  13
ENDBRANCH  10  11
ENDBRANCH   7  10
ENDBRANCH   1   2
BRANCH   1  15
ATOM     15  C   UNL     1       2.652   9.281  17.694  0.00  0.00    +0.000 C 
BRANCH  15  18
ATOM     16  C   UNL     1       0.597  10.554  18.458  0.00  0.00    +0.000 C 
ATOM     17  O   UNL     1       1.215  11.311  19.191  0.00  0.00    +0.000 OA
ATOM     18  N   UNL     1       1.205   9.535  17.751  0.00  0.00    +0.000 N 
ATOM     19  H   UNL     1       0.624   8.922  17.189  0.00  0.00    +0.000 HD
BRANCH  16  23
ATOM     20  C   UNL     1      -3.692  11.155  18.025  0.00  0.00    +0.000 A 
ATOM     21  C   UNL     1      -3.040  10.207  17.226  0.00  0.00    +0.000 A 
ATOM     22  C   UNL     1      -1.648   9.994  17.356  0.00  0.00    +0.000 A 
ATOM     23  C   UNL     1      -0.898  10.705  18.308  0.00  0.00    +0.000 A 
ATOM     24  C   UNL     1      -1.574  11.625  19.128  0.00  0.00    +0.000 A 
ATOM     25  C   UNL     1      -2.952  11.862  18.976  0.00  0.00    +0.000 A 
BRANCH  20  27
ATOM     26  N   UNL     1      -6.001  10.635  18.473  0.00  0.00    +0.000 NA
ATOM     27  C   UNL     1      -5.159  11.412  17.886  0.00  0.00    +0.000 C 
ATOM     28  N   UNL     1      -5.598  12.469  17.138  0.00  0.00    +0.000 N 
ATOM     29  H   UNL     1      -6.950  10.985  18.327  0.00  0.00    +0.000 HD
ATOM     30  H   UNL     1      -6.564  12.431  16.841  0.00  0.00    +0.000 HD
ATOM     31  H   UNL     1      -4.987  12.756  16.379  0.00  0.00    +0.000 HD
ENDBRANCH  20  27
ENDBRANCH  16  23
ENDBRANCH  15  18
ENDBRANCH   1  15
BRANCH   1  32
ATOM     32  C   UNL     1       4.665   7.677  17.890  0.00  0.00    +0.000 C 
BRANCH  32  33
ATOM     33  C   UNL     1       5.316   6.663  16.964  0.00  0.00    +0.000 A 
ATOM     34  C   UNL     1       4.896   6.526  15.634  0.00  0.00    +0.000 A 
ATOM     35  C   UNL     1       5.375   5.494  14.827  0.00  0.00    +0.000 A 
ATOM     36  C   UNL     1       6.324   4.622  15.344  0.00  0.00    +0.000 A 
ATOM     37  C   UNL     1       6.862   4.822  16.607  0.00  0.00    +0.000 A 
ATOM     38  C   UNL     1       6.356   5.840  17.420  0.00  0.00    +0.000 A 
BRANCH  36  39
ATOM     39  O   UNL     1       6.721   3.526  14.638  0.00  0.00    +0.000 OA
ATOM     40  H   UNL     1       6.572   2.752  15.207  0.00  0.00    +0.000 HD
ENDBRANCH  36  39
ENDBRANCH  32  33
ENDBRANCH   1  32
TORSDOF 11
ENDMDL
