MODEL 1
REMARK VINA RESULT:      -7.1      0.000      0.000
REMARK  Name = 
REMARK  4 active torsions:
REMARK  status: ('A' for Active; 'I' for Inactive)
REMARK    1  A    between atoms: C_1  and  C_2
REMARK    2  A    between atoms: C_5  and  O_7
REMARK    3  A    between atoms: O_7  and  C_8
REMARK    4  A    between atoms: C_8  and  C_9
REMARK                            x       y       z     vdW  Elec       q    Type
REMARK                         _______ _______ _______ _____ _____    ______ ____
ROOT
ATOM      1  C   UNL     1       8.188   7.491  18.168  0.00  0.00    +0.000 C 
ATOM      2  C   UNL     1       6.974   6.581  18.126  0.00  0.00    +0.000 C 
ATOM      3  C   UNL     1       6.826   5.862  16.806  0.00  0.00    +0.000 C 
ATOM      4  N   UNL     1       6.267   4.574  17.126  0.00  0.00    +0.000 N 
ATOM      5  C   UNL     1       5.120   4.071  16.563  0.00  0.00    +0.000 C 
ATOM      6  O   UNL     1       4.629   4.527  15.534  0.00  0.00    +0.000 OA
ATOM      7  O   UNL     1       6.528   4.306  18.490  0.00  0.00    +0.000 OA
ATOM      8  C   UNL     1       7.053   5.425  19.085  0.00  0.00    +0.000 C 
ATOM      9  O   UNL     1       7.458   5.476  20.238  0.00  0.00    +0.000 OA
ENDROOT
BRANCH   5  10
ATOM     10  O   UNL     1       4.590   3.034  17.266  0.00  0.00    +0.000 OA
BRANCH  10  11
ATOM     11  C   UNL     1       3.159   2.999  17.344  0.00  0.00    +0.000 C 
BRANCH  11  12
ATOM     12  C   UNL     1       2.641   3.195  18.748  0.00  0.00    +0.000 A 
ATOM     13  C   UNL     1       1.460   3.915  18.981  0.00  0.00    +0.000 A 
ATOM     14  C   UNL     1       0.933   4.023  20.272  0.00  0.00    +0.000 A 
ATOM     15  C   UNL     1       1.590   3.424  21.344  0.00  0.00    +0.000 A 
ATOM     16  C   UNL     1       2.776   2.725  21.130  0.00  0.00    +0.000 A 
ATOM     17  C   UNL     1       3.303   2.616  19.840  0.00  0.00    +0.000 A 
ENDBRANCH  11  12
ENDBRANCH  10  11
ENDBRANCH   5  10
TORSDOF 3
ENDMDL
MODEL 2
REMARK VINA RESULT:      -7.1      0.172      1.176
REMARK  Name = 
REMARK  4 active torsions:
REMARK  status: ('A' for Active; 'I' for Inactive)
REMARK    1  A    between atoms: C_1  and  C_2
REMARK    2  A    between atoms: C_5  and  O_7
REMARK    3  A    between atoms: O_7  and  C_8
REMARK    4  A    between atoms: C_8  and  C_9
REMARK                            x       y       z     vdW  Elec       q    Type
REMARK                         _______ _______ _______ _____ _____    ______ ____
ROOT
ATOM      1  C   UNL     1       8.270   7.560  18.231  0.00  0.00    +0.000 C 
ATOM      2  C   UNL     1       7.044   6.669  18.152  0.00  0.00    +0.000 C 
ATOM      3  C   UNL     1       6.920   5.960  16.824  0.00  0.00    +0.000 C 
ATOM      4  N   UNL     1       6.334   4.679  17.121  0.00  0.00    +0.000 N 
ATOM      5  C   UNL     1       5.194   4.196  16.526  0.00  0.00    +0.000 C 
ATOM      6  O   UNL     1       4.737   4.665  15.486  0.00  0.00    +0.000 OA
ATOM      7  O   UNL     1       6.555   4.399  18.490  0.00  0.00    +0.000 OA
ATOM      8  C   UNL     1       7.081   5.507  19.105  0.00  0.00    +0.000 C 
ATOM      9  O   UNL     1       7.455   5.545  20.268  0.00  0.00    +0.000 OA
ENDROOT
BRANCH   5  10
ATOM     10  O   UNL     1       4.631   3.163  17.208  0.00  0.00    +0.000 OA
BRANCH  10  11
ATOM     11  C   UNL     1       3.198   3.154  17.255  0.00  0.00    +0.000 C 
BRANCH  11  12
ATOM     12  C   UNL     1       2.655   3.137  18.664  0.00  0.00    +0.000 A 
ATOM     13  C   UNL     1       3.436   2.655  19.725  0.00  0.00    +0.000 A 
ATOM     14  C   UNL     1       2.968   2.719  21.041  0.00  0.00    +0.000 A 
ATOM     15  C   UNL     1       1.709   3.252  21.308  0.00  0.00    +0.000 A 
ATOM     16  C   UNL     1       0.915   3.714  20.260  0.00  0.00    +0.000 A 
ATOM     17  C   UNL     1       1.382   3.651  18.945  0.00  0.00    +0.000 A 
ENDBRANCH  11  12
ENDBRANCH  10  11
ENDBRANCH   5  10
TORSDOF 3
ENDMDL
MODEL 3
REMARK VINA RESULT:      -7.1      2.518      3.228
REMARK  Name = 
REMARK  4 active torsions:
REMARK  status: ('A' for Active; 'I' for Inactive)
REMARK    1  A    between atoms: C_1  and  C_2
REMARK    2  A    between atoms: C_5  and  O_7
REMARK    3  A    between atoms: O_7  and  C_8
REMARK    4  A    between atoms: C_8  and  C_9
REMARK                            x       y       z     vdW  Elec       q    Type
REMARK                         _______ _______ _______ _____ _____    ______ ____
ROOT
ATOM      1  C   UNL     1       2.197   8.140  17.792  0.00  0.00    +0.000 C 
ATOM      2  C   UNL     1       2.693   6.739  18.098  0.00  0.00    +0.000 C 
ATOM      3  C   UNL     1       4.137   6.530  17.707  0.00  0.00    +0.000 C 
ATOM      4  N   UNL     1       4.677   5.625  18.688  0.00  0.00    +0.000 N 
ATOM      5  C   UNL     1       5.306   4.442  18.382  0.00  0.00    +0.000 C 
ATOM      6  O   UNL     1       5.729   4.186  17.257  0.00  0.00    +0.000 OA
ATOM      7  O   UNL     1       3.856   5.679  19.838  0.00  0.00    +0.000 OA
ATOM      8  C   UNL     1       2.735   6.422  19.567  0.00  0.00    +0.000 C 
ATOM      9  O   UNL     1       1.880   6.717  20.389  0.00  0.00    +0.000 OA
ENDROOT
BRANCH   5  10
ATOM     10  O   UNL     1       5.398   3.596  19.442  0.00  0.00    +0.000 OA
BRANCH  10  11
ATOM     11  C   UNL     1       4.638   2.385  19.342  0.00  0.00    +0.000 C 
BRANCH  11  12
ATOM     12  C   UNL     1       3.171   2.585  19.638  0.00  0.00    +0.000 A 
ATOM     13  C   UNL     1       2.727   2.786  20.953  0.00  0.00    +0.000 A 
ATOM     14  C   UNL     1       1.382   3.059  21.219  0.00  0.00    +0.000 A 
ATOM     15  C   UNL     1       0.464   3.118  20.173  0.00  0.00    +0.000 A 
ATOM     16  C   UNL     1       0.887   2.897  18.864  0.00  0.00    +0.000 A 
ATOM     17  C   UNL     1       2.232   2.626  18.597  0.00  0.00    +0.000 A 
ENDBRANCH  11  12
ENDBRANCH  10  11
ENDBRANCH   5  10
TORSDOF 3
ENDMDL
MODEL 4
REMARK VINA RESULT:      -7.0      2.035      3.168
REMARK  Name = 
REMARK  4 active torsions:
REMARK  status: ('A' for Active; 'I' for Inactive)
REMARK    1  A    between atoms: C_1  and  C_2
REMARK    2  A    between atoms: C_5  and  O_7
REMARK    3  A    between atoms: O_7  and  C_8
REMARK    4  A    between atoms: C_8  and  C_9
REMARK                            x       y       z     vdW  Elec       q    Type
REMARK                         _______ _______ _______ _____ _____    ______ ____
ROOT
ATOM      1  C   UNL     1       6.416   4.462  14.242  0.00  0.00    +0.000 C 
ATOM      2  C   UNL     1       5.589   4.675  15.496  0.00  0.00    +0.000 C 
ATOM      3  C   UNL     1       6.291   4.206  16.748  0.00  0.00    +0.000 C 
ATOM      4  N   UNL     1       5.881   5.115  17.787  0.00  0.00    +0.000 N 
ATOM      5  C   UNL     1       5.314   4.722  18.975  0.00  0.00    +0.000 C 
ATOM      6  O   UNL     1       5.374   3.567  19.391  0.00  0.00    +0.000 OA
ATOM      7  O   UNL     1       5.420   6.305  17.176  0.00  0.00    +0.000 OA
ATOM      8  C   UNL     1       5.346   6.124  15.818  0.00  0.00    +0.000 C 
ATOM      9  O   UNL     1       5.061   6.999  15.014  0.00  0.00    +0.000 OA
ENDROOT
BRANCH   5  10
ATOM     10  O   UNL     1       4.681   5.735  19.627  0.00  0.00    +0.000 OA
BRANCH  10  11
ATOM     11  C   UNL     1       3.356   6.037  19.171  0.00  0.00    +0.000 C 
BRANCH  11  12
ATOM     12  C   UNL     1       2.397   4.884  19.345  0.00  0.00    +0.000 A 
ATOM     13  C   UNL     1       1.968   4.136  18.238  0.00  0.00    +0.000 A 
ATOM     14  C   UNL     1       1.149   3.015  18.408  0.00  0.00    +0.000 A 
ATOM     15  C   UNL     1       0.740   2.640  19.686  0.00  0.00    +0.000 A 
ATOM     16  C   UNL     1       1.140   3.387  20.791  0.00  0.00    +0.000 A 
ATOM     17  C   UNL     1       1.959   4.506  20.623  0.00  0.00    +0.000 A 
ENDBRANCH  11  12
ENDBRANCH  10  11
ENDBRANCH   5  10
TORSDOF 3
ENDMDL
MODEL 5
REMARK VINA RESULT:      -6.9      1.291      1.813
REMARK  Name = 
REMARK  4 active torsions:
REMARK  status: ('A' for Active; 'I' for Inactive)
REMARK    1  A    between atoms: C_1  and  C_2
REMARK    2  A    between atoms: C_5  and  O_7
REMARK    3  A    between atoms: O_7  and  C_8
REMARK    4  A    between atoms: C_8  and  C_9
REMARK                            x       y       z     vdW  Elec       q    Type
REMARK                         _______ _______ _______ _____ _____    ______ ____
ROOT
ATOM      1  C   UNL     1       8.027   6.996  18.427  0.00  0.00    +0.000 C 
ATOM      2  C   UNL     1       6.914   5.964  18.439  0.00  0.00    +0.000 C 
ATOM      3  C   UNL     1       5.696   6.407  17.662  0.00  0.00    +0.000 C 
ATOM      4  N   UNL     1       5.151   5.209  17.079  0.00  0.00    +0.000 N 
ATOM      5  C   UNL     1       3.851   4.795  17.242  0.00  0.00    +0.000 C 
ATOM      6  O   UNL     1       2.960   5.542  17.641  0.00  0.00    +0.000 OA
ATOM      7  O   UNL     1       6.173   4.232  17.040  0.00  0.00    +0.000 OA
ATOM      8  C   UNL     1       7.269   4.687  17.729  0.00  0.00    +0.000 C 
ATOM      9  O   UNL     1       8.339   4.101  17.799  0.00  0.00    +0.000 OA
ENDROOT
BRANCH   5  10
ATOM     10  O   UNL     1       3.662   3.486  16.924  0.00  0.00    +0.000 OA
BRANCH  10  11
ATOM     11  C   UNL     1       2.423   2.911  17.360  0.00  0.00    +0.000 C 
BRANCH  11  12
ATOM     12  C   UNL     1       2.322   2.801  18.862  0.00  0.00    +0.000 A 
ATOM     13  C   UNL     1       3.415   2.358  19.622  0.00  0.00    +0.000 A 
ATOM     14  C   UNL     1       3.352   2.338  21.019  0.00  0.00    +0.000 A 
ATOM     15  C   UNL     1       2.189   2.746  21.669  0.00  0.00    +0.000 A 
ATOM     16  C   UNL     1       1.089   3.167  20.925  0.00  0.00    +0.000 A 
ATOM     17  C   UNL     1       1.151   3.188  19.529  0.00  0.00    +0.000 A 
ENDBRANCH  11  12
ENDBRANCH  10  11
ENDBRANCH   5  10
TORSDOF 3
ENDMDL
MODEL 6
REMARK VINA RESULT:      -6.8      1.942      3.166
REMARK  Name = 
REMARK  4 active torsions:
REMARK  status: ('A' for Active; 'I' for Inactive)
REMARK    1  A    between atoms: C_1  and  C_2
REMARK    2  A    between atoms: C_5  and  O_7
REMARK    3  A    between atoms: O_7  and  C_8
REMARK    4  A    between atoms: C_8  and  C_9
REMARK                            x       y       z     vdW  Elec       q    Type
REMARK                         _______ _______ _______ _____ _____    ______ ____
ROOT
ATOM      1  C   UNL     1       6.856   4.741  14.419  0.00  0.00    +0.000 C 
ATOM      2  C   UNL     1       5.928   4.841  15.616  0.00  0.00    +0.000 C 
ATOM      3  C   UNL     1       6.619   4.523  16.920  0.00  0.00    +0.000 C 
ATOM      4  N   UNL     1       6.000   5.373  17.904  0.00  0.00    +0.000 N 
ATOM      5  C   UNL     1       5.433   4.917  19.070  0.00  0.00    +0.000 C 
ATOM      6  O   UNL     1       5.657   3.797  19.525  0.00  0.00    +0.000 OA
ATOM      7  O   UNL     1       5.388   6.455  17.231  0.00  0.00    +0.000 OA
ATOM      8  C   UNL     1       5.430   6.235  15.877  0.00  0.00    +0.000 C 
ATOM      9  O   UNL     1       5.055   7.033  15.030  0.00  0.00    +0.000 OA
ENDROOT
BRANCH   5  10
ATOM     10  O   UNL     1       4.603   5.823  19.651  0.00  0.00    +0.000 OA
BRANCH  10  11
ATOM     11  C   UNL     1       3.301   5.944  19.061  0.00  0.00    +0.000 C 
BRANCH  11  12
ATOM     12  C   UNL     1       2.426   4.740  19.315  0.00  0.00    +0.000 A 
ATOM     13  C   UNL     1       2.054   4.389  20.622  0.00  0.00    +0.000 A 
ATOM     14  C   UNL     1       1.174   3.327  20.851  0.00  0.00    +0.000 A 
ATOM     15  C   UNL     1       0.668   2.598  19.778  0.00  0.00    +0.000 A 
ATOM     16  C   UNL     1       1.047   2.922  18.478  0.00  0.00    +0.000 A 
ATOM     17  C   UNL     1       1.926   3.983  18.246  0.00  0.00    +0.000 A 
ENDBRANCH  11  12
ENDBRANCH  10  11
ENDBRANCH   5  10
TORSDOF 3
ENDMDL
MODEL 7
REMARK VINA RESULT:      -6.8      2.621      5.826
REMARK  Name = 
REMARK  4 active torsions:
REMARK  status: ('A' for Active; 'I' for Inactive)
REMARK    1  A    between atoms: C_1  and  C_2
REMARK    2  A    between atoms: C_5  and  O_7
REMARK    3  A    between atoms: O_7  and  C_8
REMARK    4  A    between atoms: C_8  and  C_9
REMARK                            x       y       z     vdW  Elec       q    Type
REMARK                         _______ _______ _______ _____ _____    ______ ____
ROOT
ATOM      1  C   UNL     1       1.459   2.549  21.762  0.00  0.00    +0.000 C 
ATOM      2  C   UNL     1       1.404   3.572  20.642  0.00  0.00    +0.000 C 
ATOM      3  C   UNL     1       2.213   4.811  20.941  0.00  0.00    +0.000 C 
ATOM      4  N   UNL     1       2.739   5.247  19.674  0.00  0.00    +0.000 N 
ATOM      5  C   UNL     1       2.568   6.510  19.161  0.00  0.00    +0.000 C 
ATOM      6  O   UNL     1       2.215   7.465  19.849  0.00  0.00    +0.000 OA
ATOM      7  O   UNL     1       2.720   4.146  18.786  0.00  0.00    +0.000 OA
ATOM      8  C   UNL     1       2.045   3.102  19.365  0.00  0.00    +0.000 C 
ATOM      9  O   UNL     1       1.935   1.987  18.875  0.00  0.00    +0.000 OA
ENDROOT
BRANCH   5  10
ATOM     10  O   UNL     1       2.820   6.584  17.827  0.00  0.00    +0.000 OA
BRANCH  10  11
ATOM     11  C   UNL     1       4.053   7.217  17.459  0.00  0.00    +0.000 C 
BRANCH  11  12
ATOM     12  C   UNL     1       5.146   6.228  17.131  0.00  0.00    +0.000 A 
ATOM     13  C   UNL     1       5.260   5.690  15.840  0.00  0.00    +0.000 A 
ATOM     14  C   UNL     1       6.323   4.842  15.512  0.00  0.00    +0.000 A 
ATOM     15  C   UNL     1       7.274   4.513  16.475  0.00  0.00    +0.000 A 
ATOM     16  C   UNL     1       7.160   5.023  17.766  0.00  0.00    +0.000 A 
ATOM     17  C   UNL     1       6.099   5.871  18.095  0.00  0.00    +0.000 A 
ENDBRANCH  11  12
ENDBRANCH  10  11
ENDBRANCH   5  10
TORSDOF 3
ENDMDL
MODEL 8
REMARK VINA RESULT:      -6.8      2.595      5.882
REMARK  Name = 
REMARK  4 active torsions:
REMARK  status: ('A' for Active; 'I' for Inactive)
REMARK    1  A    between atoms: C_1  and  C_2
REMARK    2  A    between atoms: C_5  and  O_7
REMARK    3  A    between atoms: O_7  and  C_8
REMARK    4  A    between atoms: C_8  and  C_9
REMARK                            x       y       z     vdW  Elec       q    Type
REMARK                         _______ _______ _______ _____ _____    ______ ____
ROOT
ATOM      1  C   UNL     1       1.426   2.502  21.812  0.00  0.00    +0.000 C 
ATOM      2  C   UNL     1       1.347   3.546  20.714  0.00  0.00    +0.000 C 
ATOM      3  C   UNL     1       2.219   4.749  20.986  0.00  0.00    +0.000 C 
ATOM      4  N   UNL     1       2.687   5.188  19.696  0.00  0.00    +0.000 N 
ATOM      5  C   UNL     1       2.536   6.466  19.215  0.00  0.00    +0.000 C 
ATOM      6  O   UNL     1       2.260   7.420  19.938  0.00  0.00    +0.000 OA
ATOM      7  O   UNL     1       2.575   4.105  18.794  0.00  0.00    +0.000 OA
ATOM      8  C   UNL     1       1.895   3.076  19.395  0.00  0.00    +0.000 C 
ATOM      9  O   UNL     1       1.714   1.975  18.894  0.00  0.00    +0.000 OA
ENDROOT
BRANCH   5  10
ATOM     10  O   UNL     1       2.713   6.555  17.870  0.00  0.00    +0.000 OA
BRANCH  10  11
ATOM     11  C   UNL     1       3.893   7.248  17.441  0.00  0.00    +0.000 C 
BRANCH  11  12
ATOM     12  C   UNL     1       5.040   6.318  17.127  0.00  0.00    +0.000 A 
ATOM     13  C   UNL     1       6.330   6.583  17.612  0.00  0.00    +0.000 A 
ATOM     14  C   UNL     1       7.373   5.678  17.395  0.00  0.00    +0.000 A 
ATOM     15  C   UNL     1       7.142   4.506  16.678  0.00  0.00    +0.000 A 
ATOM     16  C   UNL     1       5.871   4.242  16.171  0.00  0.00    +0.000 A 
ATOM     17  C   UNL     1       4.827   5.145  16.388  0.00  0.00    +0.000 A 
ENDBRANCH  11  12
ENDBRANCH  10  11
ENDBRANCH   5  10
TORSDOF 3
ENDMDL
MODEL 9
REMARK VINA RESULT:      -6.6      2.694      3.030
REMARK  Name = 
REMARK  4 active torsions:
REMARK  status: ('A' for Active; 'I' for Inactive)
REMARK    1  A    between atoms: C_1  and  C_2
REMARK    2  A    between atoms: C_5  and  O_7
REMARK    3  A    between atoms: O_7  and  C_8
REMARK    4  A    between atoms: C_8  and  C_9
REMARK                            x       y       z     vdW  Elec       q    Type
REMARK                         _______ _______ _______ _____ _____    ______ ____
ROOT
ATOM      1  C   UNL     1       2.001   9.033  18.066  0.00  0.00    +0.000 C 
ATOM      2  C   UNL     1       2.407   7.574  17.956  0.00  0.00    +0.000 C 
ATOM      3  C   UNL     1       3.754   7.389  17.299  0.00  0.00    +0.000 C 
ATOM      4  N   UNL     1       4.347   6.246  17.944  0.00  0.00    +0.000 N 
ATOM      5  C   UNL     1       4.815   5.141  17.276  0.00  0.00    +0.000 C 
ATOM      6  O   UNL     1       5.047   5.142  16.070  0.00  0.00    +0.000 OA
ATOM      7  O   UNL     1       3.709   6.064  19.194  0.00  0.00    +0.000 OA
ATOM      8  C   UNL     1       2.633   6.910  19.286  0.00  0.00    +0.000 C 
ATOM      9  O   UNL     1       1.936   7.043  20.282  0.00  0.00    +0.000 OA
ENDROOT
BRANCH   5  10
ATOM     10  O   UNL     1       4.983   4.060  18.084  0.00  0.00    +0.000 OA
BRANCH  10  11
ATOM     11  C   UNL     1       3.986   3.036  17.970  0.00  0.00    +0.000 C 
BRANCH  11  12
ATOM     12  C   UNL     1       3.016   3.029  19.127  0.00  0.00    +0.000 A 
ATOM     13  C   UNL     1       1.654   3.296  18.920  0.00  0.00    +0.000 A 
ATOM     14  C   UNL     1       0.741   3.204  19.976  0.00  0.00    +0.000 A 
ATOM     15  C   UNL     1       1.183   2.859  21.251  0.00  0.00    +0.000 A 
ATOM     16  C   UNL     1       2.536   2.614  21.474  0.00  0.00    +0.000 A 
ATOM     17  C   UNL     1       3.449   2.704  20.421  0.00  0.00    +0.000 A 
ENDBRANCH  11  12
ENDBRANCH  10  11
ENDBRANCH   5  10
TORSDOF 3
ENDMDL
