MODEL 1
REMARK VINA RESULT:      -8.5      0.000      0.000
REMARK  Name = 
REMARK  9 active torsions:
REMARK  status: ('A' for Active; 'I' for Inactive)
REMARK    1  A    between atoms: C_1  and  N_2
REMARK    2  A    between atoms: N_2  and  C_3
REMARK    3  A    between atoms: N_2  and  C_4
REMARK    4  A    between atoms: C_4  and  C_5
REMARK    5  A    between atoms: C_5  and  C_6
REMARK    6  A    between atoms: C_19  and  C_20
REMARK    7  A    between atoms: C_20  and  C_21
REMARK    8  A    between atoms: C_21  and  C_22
REMARK    9  A    between atoms: C_22  and  O_24
REMARK                            x       y       z     vdW  Elec       q    Type
REMARK                         _______ _______ _______ _____ _____    ______ ____
ROOT
ATOM      1  C   UNL     1       2.388   7.133  19.415  0.00  0.00    +0.000 C 
ATOM      2  C   UNL     1       2.848   5.883  19.193  0.00  0.00    +0.000 C 
ATOM      3  C   UNL     1       2.338   4.732  19.953  0.00  0.00    +0.000 A 
ATOM      4  C   UNL     1       2.780   4.440  21.246  0.00  0.00    +0.000 A 
ATOM      5  C   UNL     1       2.259   3.338  21.918  0.00  0.00    +0.000 A 
ATOM      6  C   UNL     1       1.293   2.540  21.304  0.00  0.00    +0.000 A 
ATOM      7  C   UNL     1       0.902   2.792  19.986  0.00  0.00    +0.000 A 
ATOM      8  C   UNL     1       1.458   3.868  19.286  0.00  0.00    +0.000 A 
ATOM      9  C   UNL     1       1.208   4.103  17.815  0.00  0.00    +0.000 C 
ATOM     10  O   UNL     1       2.366   3.817  17.013  0.00  0.00    +0.000 OA
ATOM     11  C   UNL     1       3.482   4.618  17.101  0.00  0.00    +0.000 A 
ATOM     12  C   UNL     1       4.467   4.314  16.153  0.00  0.00    +0.000 A 
ATOM     13  C   UNL     1       5.699   4.981  16.147  0.00  0.00    +0.000 A 
ATOM     14  C   UNL     1       5.968   5.982  17.083  0.00  0.00    +0.000 A 
ATOM     15  C   UNL     1       4.970   6.317  18.004  0.00  0.00    +0.000 A 
ATOM     16  C   UNL     1       3.742   5.630  18.042  0.00  0.00    +0.000 A 
ENDROOT
BRANCH   1  17
ATOM     17  C   UNL     1       1.356   7.567  20.428  0.00  0.00    +0.000 C 
BRANCH  17  18
ATOM     18  C   UNL     1       1.014   9.070  20.373  0.00  0.00    +0.000 C 
BRANCH  18  20
ATOM     19  C   UNL     1      -0.236   9.360  22.456  0.00  0.00    +0.000 C 
ATOM     20  N   UNL     1      -0.261   9.483  20.996  0.00  0.00    +0.000 NA
ATOM     21  C   UNL     1      -0.549  10.879  20.636  0.00  0.00    +0.000 C 
ENDBRANCH  18  20
ENDBRANCH  17  18
ENDBRANCH   1  17
BRANCH  14  22
ATOM     22  C   UNL     1       7.307   6.684  17.120  0.00  0.00    +0.000 C 
BRANCH  22  23
ATOM     23  C   UNL     1       7.865   6.800  18.544  0.00  0.00    +0.000 C 
BRANCH  23  24
ATOM     24  C   UNL     1       8.066   5.446  19.173  0.00  0.00    +0.000 C 
ATOM     25  O   UNL     1       8.261   4.407  18.570  0.00  0.00    +0.000 OA
BRANCH  24  26
ATOM     26  O   UNL     1       8.013   5.498  20.527  0.00  0.00    +0.000 OA
ATOM     27  H   UNL     1       7.103   5.551  20.883  0.00  0.00    +0.000 HD
ENDBRANCH  24  26
ENDBRANCH  23  24
ENDBRANCH  22  23
ENDBRANCH  14  22
TORSDOF 7
ENDMDL
MODEL 2
REMARK VINA RESULT:      -8.1      1.326      1.649
REMARK  Name = 
REMARK  9 active torsions:
REMARK  status: ('A' for Active; 'I' for Inactive)
REMARK    1  A    between atoms: C_1  and  N_2
REMARK    2  A    between atoms: N_2  and  C_3
REMARK    3  A    between atoms: N_2  and  C_4
REMARK    4  A    between atoms: C_4  and  C_5
REMARK    5  A    between atoms: C_5  and  C_6
REMARK    6  A    between atoms: C_19  and  C_20
REMARK    7  A    between atoms: C_20  and  C_21
REMARK    8  A    between atoms: C_21  and  C_22
REMARK    9  A    between atoms: C_22  and  O_24
REMARK                            x       y       z     vdW  Elec       q    Type
REMARK                         _______ _______ _______ _____ _____    ______ ____
ROOT
ATOM      1  C   UNL     1       2.474   7.152  19.392  0.00  0.00    +0.000 C 
ATOM      2  C   UNL     1       2.929   5.895  19.200  0.00  0.00    +0.000 C 
ATOM      3  C   UNL     1       2.369   4.755  19.940  0.00  0.00    +0.000 A 
ATOM      4  C   UNL     1       2.742   4.466  21.255  0.00  0.00    +0.000 A 
ATOM      5  C   UNL     1       2.175   3.374  21.907  0.00  0.00    +0.000 A 
ATOM      6  C   UNL     1       1.232   2.584  21.250  0.00  0.00    +0.000 A 
ATOM      7  C   UNL     1       0.910   2.832  19.913  0.00  0.00    +0.000 A 
ATOM      8  C   UNL     1       1.513   3.897  19.235  0.00  0.00    +0.000 A 
ATOM      9  C   UNL     1       1.339   4.126  17.752  0.00  0.00    +0.000 C 
ATOM     10  O   UNL     1       2.533   3.821  17.011  0.00  0.00    +0.000 OA
ATOM     11  C   UNL     1       3.652   4.610  17.149  0.00  0.00    +0.000 A 
ATOM     12  C   UNL     1       4.680   4.288  16.253  0.00  0.00    +0.000 A 
ATOM     13  C   UNL     1       5.918   4.941  16.306  0.00  0.00    +0.000 A 
ATOM     14  C   UNL     1       6.152   5.945  17.248  0.00  0.00    +0.000 A 
ATOM     15  C   UNL     1       5.112   6.297  18.116  0.00  0.00    +0.000 A 
ATOM     16  C   UNL     1       3.877   5.624  18.096  0.00  0.00    +0.000 A 
ENDROOT
BRANCH   1  17
ATOM     17  C   UNL     1       1.397   7.604  20.350  0.00  0.00    +0.000 C 
BRANCH  17  18
ATOM     18  C   UNL     1       0.969   9.074  20.165  0.00  0.00    +0.000 C 
BRANCH  18  20
ATOM     19  C   UNL     1       0.542  11.295  21.097  0.00  0.00    +0.000 C 
ATOM     20  N   UNL     1       0.964   9.920  21.376  0.00  0.00    +0.000 NA
ATOM     21  C   UNL     1       0.062   9.333  22.377  0.00  0.00    +0.000 C 
ENDBRANCH  18  20
ENDBRANCH  17  18
ENDBRANCH   1  17
BRANCH  14  22
ATOM     22  C   UNL     1       7.496   6.631  17.348  0.00  0.00    +0.000 C 
BRANCH  22  23
ATOM     23  C   UNL     1       7.375   8.159  17.296  0.00  0.00    +0.000 C 
BRANCH  23  24
ATOM     24  C   UNL     1       8.365   8.825  18.216  0.00  0.00    +0.000 C 
ATOM     25  O   UNL     1       8.716   9.989  18.156  0.00  0.00    +0.000 OA
BRANCH  24  26
ATOM     26  O   UNL     1       8.843   7.974  19.157  0.00  0.00    +0.000 OA
ATOM     27  H   UNL     1       9.407   8.407  19.829  0.00  0.00    +0.000 HD
ENDBRANCH  24  26
ENDBRANCH  23  24
ENDBRANCH  22  23
ENDBRANCH  14  22
TORSDOF 7
ENDMDL
MODEL 3
REMARK VINA RESULT:      -8.0      2.116      2.530
REMARK  Name = 
REMARK  9 active torsions:
REMARK  status: ('A' for Active; 'I' for Inactive)
REMARK    1  A    between atoms: C_1  and  N_2
REMARK    2  A    between atoms: N_2  and  C_3
REMARK    3  A    between atoms: N_2  and  C_4
REMARK    4  A    between atoms: C_4  and  C_5
REMARK    5  A    between atoms: C_5  and  C_6
REMARK    6  A    between atoms: C_19  and  C_20
REMARK    7  A    between atoms: C_20  and  C_21
REMARK    8  A    between atoms: C_21  and  C_22
REMARK    9  A    between atoms: C_22  and  O_24
REMARK                            x       y       z     vdW  Elec       q    Type
REMARK                         _______ _______ _______ _____ _____    ______ ____
ROOT
ATOM      1  C   UNL     1       2.829   7.610  17.582  0.00  0.00    +0.000 C 
ATOM      2  C   UNL     1       3.366   6.475  18.079  0.00  0.00    +0.000 C 
ATOM      3  C   UNL     1       2.568   5.538  18.883  0.00  0.00    +0.000 A 
ATOM      4  C   UNL     1       2.303   5.758  20.237  0.00  0.00    +0.000 A 
ATOM      5  C   UNL     1       1.539   4.836  20.947  0.00  0.00    +0.000 A 
ATOM      6  C   UNL     1       1.033   3.707  20.302  0.00  0.00    +0.000 A 
ATOM      7  C   UNL     1       1.356   3.452  18.967  0.00  0.00    +0.000 A 
ATOM      8  C   UNL     1       2.164   4.348  18.260  0.00  0.00    +0.000 A 
ATOM      9  C   UNL     1       2.686   4.059  16.872  0.00  0.00    +0.000 C 
ATOM     10  O   UNL     1       4.097   3.783  16.867  0.00  0.00    +0.000 OA
ATOM     11  C   UNL     1       4.998   4.783  17.156  0.00  0.00    +0.000 A 
ATOM     12  C   UNL     1       6.333   4.409  16.960  0.00  0.00    +0.000 A 
ATOM     13  C   UNL     1       7.384   5.280  17.277  0.00  0.00    +0.000 A 
ATOM     14  C   UNL     1       7.121   6.555  17.783  0.00  0.00    +0.000 A 
ATOM     15  C   UNL     1       5.787   6.946  17.940  0.00  0.00    +0.000 A 
ATOM     16  C   UNL     1       4.724   6.068  17.658  0.00  0.00    +0.000 A 
ENDROOT
BRANCH   1  17
ATOM     17  C   UNL     1       1.416   8.114  17.760  0.00  0.00    +0.000 C 
BRANCH  17  18
ATOM     18  C   UNL     1       1.324   9.617  18.098  0.00  0.00    +0.000 C 
BRANCH  18  20
ATOM     19  C   UNL     1       0.634  11.152  19.874  0.00  0.00    +0.000 C 
ATOM     20  N   UNL     1       0.246  10.023  19.024  0.00  0.00    +0.000 NA
ATOM     21  C   UNL     1      -0.948  10.390  18.250  0.00  0.00    +0.000 C 
ENDBRANCH  18  20
ENDBRANCH  17  18
ENDBRANCH   1  17
BRANCH  14  22
ATOM     22  C   UNL     1       8.242   7.493  18.171  0.00  0.00    +0.000 C 
BRANCH  22  23
ATOM     23  C   UNL     1       7.931   8.952  17.816  0.00  0.00    +0.000 C 
BRANCH  23  24
ATOM     24  C   UNL     1       8.910   9.900  18.458  0.00  0.00    +0.000 C 
ATOM     25  O   UNL     1       9.411  10.871  17.921  0.00  0.00    +0.000 OA
BRANCH  24  26
ATOM     26  O   UNL     1       9.186   9.560  19.741  0.00  0.00    +0.000 OA
ATOM     27  H   UNL     1       9.665   8.711  19.828  0.00  0.00    +0.000 HD
ENDBRANCH  24  26
ENDBRANCH  23  24
ENDBRANCH  22  23
ENDBRANCH  14  22
TORSDOF 7
ENDMDL
MODEL 4
REMARK VINA RESULT:      -8.0      1.517      1.838
REMARK  Name = 
REMARK  9 active torsions:
REMARK  status: ('A' for Active; 'I' for Inactive)
REMARK    1  A    between atoms: C_1  and  N_2
REMARK    2  A    between atoms: N_2  and  C_3
REMARK    3  A    between atoms: N_2  and  C_4
REMARK    4  A    between atoms: C_4  and  C_5
REMARK    5  A    between atoms: C_5  and  C_6
REMARK    6  A    between atoms: C_19  and  C_20
REMARK    7  A    between atoms: C_20  and  C_21
REMARK    8  A    between atoms: C_21  and  C_22
REMARK    9  A    between atoms: C_22  and  O_24
REMARK                            x       y       z     vdW  Elec       q    Type
REMARK                         _______ _______ _______ _____ _____    ______ ____
ROOT
ATOM      1  C   UNL     1       2.515   7.167  19.566  0.00  0.00    +0.000 C 
ATOM      2  C   UNL     1       2.968   5.916  19.339  0.00  0.00    +0.000 C 
ATOM      3  C   UNL     1       2.354   4.748  19.989  0.00  0.00    +0.000 A 
ATOM      4  C   UNL     1       2.647   4.391  21.307  0.00  0.00    +0.000 A 
ATOM      5  C   UNL     1       2.032   3.276  21.870  0.00  0.00    +0.000 A 
ATOM      6  C   UNL     1       1.121   2.530  21.122  0.00  0.00    +0.000 A 
ATOM      7  C   UNL     1       0.880   2.848  19.782  0.00  0.00    +0.000 A 
ATOM      8  C   UNL     1       1.531   3.936  19.194  0.00  0.00    +0.000 A 
ATOM      9  C   UNL     1       1.447   4.240  17.716  0.00  0.00    +0.000 C 
ATOM     10  O   UNL     1       2.678   3.956  17.031  0.00  0.00    +0.000 OA
ATOM     11  C   UNL     1       3.795   4.722  17.272  0.00  0.00    +0.000 A 
ATOM     12  C   UNL     1       4.870   4.432  16.422  0.00  0.00    +0.000 A 
ATOM     13  C   UNL     1       6.110   5.065  16.578  0.00  0.00    +0.000 A 
ATOM     14  C   UNL     1       6.299   6.019  17.580  0.00  0.00    +0.000 A 
ATOM     15  C   UNL     1       5.214   6.341  18.404  0.00  0.00    +0.000 A 
ATOM     16  C   UNL     1       3.975   5.687  18.280  0.00  0.00    +0.000 A 
ENDROOT
BRANCH   1  17
ATOM     17  C   UNL     1       1.389   7.585  20.482  0.00  0.00    +0.000 C 
BRANCH  17  18
ATOM     18  C   UNL     1       1.098   9.101  20.468  0.00  0.00    +0.000 C 
BRANCH  18  20
ATOM     19  C   UNL     1      -0.656  10.561  19.587  0.00  0.00    +0.000 C 
ATOM     20  N   UNL     1       0.434   9.637  19.262  0.00  0.00    +0.000 NA
ATOM     21  C   UNL     1       1.425  10.335  18.431  0.00  0.00    +0.000 C 
ENDBRANCH  18  20
ENDBRANCH  17  18
ENDBRANCH   1  17
BRANCH  14  22
ATOM     22  C   UNL     1       7.641   6.682  17.792  0.00  0.00    +0.000 C 
BRANCH  22  23
ATOM     23  C   UNL     1       7.670   8.121  17.262  0.00  0.00    +0.000 C 
BRANCH  23  24
ATOM     24  C   UNL     1       8.345   9.055  18.233  0.00  0.00    +0.000 C 
ATOM     25  O   UNL     1       8.352  10.271  18.159  0.00  0.00    +0.000 OA
BRANCH  24  26
ATOM     26  O   UNL     1       8.965   8.389  19.238  0.00  0.00    +0.000 OA
ATOM     27  H   UNL     1       9.928   8.559  19.287  0.00  0.00    +0.000 HD
ENDBRANCH  24  26
ENDBRANCH  23  24
ENDBRANCH  22  23
ENDBRANCH  14  22
TORSDOF 7
ENDMDL
MODEL 5
REMARK VINA RESULT:      -7.6      3.629      7.431
REMARK  Name = 
REMARK  9 active torsions:
REMARK  status: ('A' for Active; 'I' for Inactive)
REMARK    1  A    between atoms: C_1  and  N_2
REMARK    2  A    between atoms: N_2  and  C_3
REMARK    3  A    between atoms: N_2  and  C_4
REMARK    4  A    between atoms: C_4  and  C_5
REMARK    5  A    between atoms: C_5  and  C_6
REMARK    6  A    between atoms: C_19  and  C_20
REMARK    7  A    between atoms: C_20  and  C_21
REMARK    8  A    between atoms: C_21  and  C_22
REMARK    9  A    between atoms: C_22  and  O_24
REMARK                            x       y       z     vdW  Elec       q    Type
REMARK                         _______ _______ _______ _____ _____    ______ ____
ROOT
ATOM      1  C   UNL     1       5.352   4.048  15.584  0.00  0.00    +0.000 C 
ATOM      2  C   UNL     1       5.147   4.738  16.727  0.00  0.00    +0.000 C 
ATOM      3  C   UNL     1       6.224   5.517  17.356  0.00  0.00    +0.000 A 
ATOM      4  C   UNL     1       7.213   4.918  18.141  0.00  0.00    +0.000 A 
ATOM      5  C   UNL     1       8.211   5.706  18.709  0.00  0.00    +0.000 A 
ATOM      6  C   UNL     1       8.223   7.083  18.483  0.00  0.00    +0.000 A 
ATOM      7  C   UNL     1       7.196   7.690  17.756  0.00  0.00    +0.000 A 
ATOM      8  C   UNL     1       6.163   6.911  17.224  0.00  0.00    +0.000 A 
ATOM      9  C   UNL     1       4.940   7.511  16.570  0.00  0.00    +0.000 C 
ATOM     10  O   UNL     1       3.762   7.366  17.382  0.00  0.00    +0.000 OA
ATOM     11  C   UNL     1       3.218   6.120  17.593  0.00  0.00    +0.000 A 
ATOM     12  C   UNL     1       1.991   6.150  18.269  0.00  0.00    +0.000 A 
ATOM     13  C   UNL     1       1.334   4.967  18.632  0.00  0.00    +0.000 A 
ATOM     14  C   UNL     1       1.883   3.723  18.313  0.00  0.00    +0.000 A 
ATOM     15  C   UNL     1       3.087   3.691  17.601  0.00  0.00    +0.000 A 
ATOM     16  C   UNL     1       3.774   4.871  17.261  0.00  0.00    +0.000 A 
ENDROOT
BRANCH   1  17
ATOM     17  C   UNL     1       6.636   3.928  14.800  0.00  0.00    +0.000 C 
BRANCH  17  18
ATOM     18  C   UNL     1       6.471   4.163  13.284  0.00  0.00    +0.000 C 
BRANCH  18  20
ATOM     19  C   UNL     1       4.706   3.344  11.802  0.00  0.00    +0.000 C 
ATOM     20  N   UNL     1       5.961   3.027  12.489  0.00  0.00    +0.000 NA
ATOM     21  C   UNL     1       6.970   2.637  11.495  0.00  0.00    +0.000 C 
ENDBRANCH  18  20
ENDBRANCH  17  18
ENDBRANCH   1  17
BRANCH  14  22
ATOM     22  C   UNL     1       1.210   2.436  18.734  0.00  0.00    +0.000 C 
BRANCH  22  23
ATOM     23  C   UNL     1       2.014   1.679  19.798  0.00  0.00    +0.000 C 
BRANCH  23  24
ATOM     24  C   UNL     1       1.951   2.370  21.135  0.00  0.00    +0.000 C 
ATOM     25  O   UNL     1       2.880   2.496  21.912  0.00  0.00    +0.000 OA
BRANCH  24  26
ATOM     26  O   UNL     1       0.715   2.861  21.401  0.00  0.00    +0.000 OA
ATOM     27  H   UNL     1       0.129   2.224  21.855  0.00  0.00    +0.000 HD
ENDBRANCH  24  26
ENDBRANCH  23  24
ENDBRANCH  22  23
ENDBRANCH  14  22
TORSDOF 7
ENDMDL
MODEL 6
REMARK VINA RESULT:      -7.5      2.982      5.569
REMARK  Name = 
REMARK  9 active torsions:
REMARK  status: ('A' for Active; 'I' for Inactive)
REMARK    1  A    between atoms: C_1  and  N_2
REMARK    2  A    between atoms: N_2  and  C_3
REMARK    3  A    between atoms: N_2  and  C_4
REMARK    4  A    between atoms: C_4  and  C_5
REMARK    5  A    between atoms: C_5  and  C_6
REMARK    6  A    between atoms: C_19  and  C_20
REMARK    7  A    between atoms: C_20  and  C_21
REMARK    8  A    between atoms: C_21  and  C_22
REMARK    9  A    between atoms: C_22  and  O_24
REMARK                            x       y       z     vdW  Elec       q    Type
REMARK                         _______ _______ _______ _____ _____    ______ ____
ROOT
ATOM      1  C   UNL     1       3.189   2.796  17.351  0.00  0.00    +0.000 C 
ATOM      2  C   UNL     1       3.778   4.011  17.311  0.00  0.00    +0.000 C 
ATOM      3  C   UNL     1       3.224   5.156  18.049  0.00  0.00    +0.000 A 
ATOM      4  C   UNL     1       2.141   5.896  17.570  0.00  0.00    +0.000 A 
ATOM      5  C   UNL     1       1.657   6.969  18.315  0.00  0.00    +0.000 A 
ATOM      6  C   UNL     1       2.248   7.290  19.537  0.00  0.00    +0.000 A 
ATOM      7  C   UNL     1       3.374   6.593  19.983  0.00  0.00    +0.000 A 
ATOM      8  C   UNL     1       3.896   5.546  19.216  0.00  0.00    +0.000 A 
ATOM      9  C   UNL     1       5.200   4.858  19.551  0.00  0.00    +0.000 C 
ATOM     10  O   UNL     1       6.248   5.200  18.628  0.00  0.00    +0.000 OA
ATOM     11  C   UNL     1       6.187   4.769  17.323  0.00  0.00    +0.000 A 
ATOM     12  C   UNL     1       7.347   5.042  16.587  0.00  0.00    +0.000 A 
ATOM     13  C   UNL     1       7.427   4.739  15.221  0.00  0.00    +0.000 A 
ATOM     14  C   UNL     1       6.352   4.139  14.563  0.00  0.00    +0.000 A 
ATOM     15  C   UNL     1       5.208   3.826  15.306  0.00  0.00    +0.000 A 
ATOM     16  C   UNL     1       5.102   4.158  16.669  0.00  0.00    +0.000 A 
ENDROOT
BRANCH   1  17
ATOM     17  C   UNL     1       1.928   2.409  18.086  0.00  0.00    +0.000 C 
BRANCH  17  18
ATOM     18  C   UNL     1       2.173   1.860  19.507  0.00  0.00    +0.000 C 
BRANCH  18  20
ATOM     19  C   UNL     1       2.377   3.002  21.661  0.00  0.00    +0.000 C 
ATOM     20  N   UNL     1       1.465   2.540  20.612  0.00  0.00    +0.000 NA
ATOM     21  C   UNL     1       0.722   3.690  20.078  0.00  0.00    +0.000 C 
ENDBRANCH  18  20
ENDBRANCH  17  18
ENDBRANCH   1  17
BRANCH  14  22
ATOM     22  C   UNL     1       6.404   3.843  13.081  0.00  0.00    +0.000 C 
BRANCH  22  23
ATOM     23  C   UNL     1       5.023   3.928  12.420  0.00  0.00    +0.000 C 
BRANCH  23  24
ATOM     24  C   UNL     1       4.786   2.775  11.479  0.00  0.00    +0.000 C 
ATOM     25  O   UNL     1       5.499   1.795  11.366  0.00  0.00    +0.000 OA
BRANCH  24  26
ATOM     26  O   UNL     1       3.658   2.937  10.745  0.00  0.00    +0.000 OA
ATOM     27  H   UNL     1       3.606   2.345   9.968  0.00  0.00    +0.000 HD
ENDBRANCH  24  26
ENDBRANCH  23  24
ENDBRANCH  22  23
ENDBRANCH  14  22
TORSDOF 7
ENDMDL
MODEL 7
REMARK VINA RESULT:      -7.4      3.382      6.912
REMARK  Name = 
REMARK  9 active torsions:
REMARK  status: ('A' for Active; 'I' for Inactive)
REMARK    1  A    between atoms: C_1  and  N_2
REMARK    2  A    between atoms: N_2  and  C_3
REMARK    3  A    between atoms: N_2  and  C_4
REMARK    4  A    between atoms: C_4  and  C_5
REMARK    5  A    between atoms: C_5  and  C_6
REMARK    6  A    between atoms: C_19  and  C_20
REMARK    7  A    between atoms: C_20  and  C_21
REMARK    8  A    between atoms: C_21  and  C_22
REMARK    9  A    between atoms: C_22  and  O_24
REMARK                            x       y       z     vdW  Elec       q    Type
REMARK                         _______ _______ _______ _____ _____    ______ ____
ROOT
ATOM      1  C   UNL     1       3.894   6.417  17.658  0.00  0.00    +0.000 C 
ATOM      2  C   UNL     1       2.758   6.216  18.360  0.00  0.00    +0.000 C 
ATOM      3  C   UNL     1       2.180   4.872  18.514  0.00  0.00    +0.000 A 
ATOM      4  C   UNL     1       1.420   4.270  17.509  0.00  0.00    +0.000 A 
ATOM      5  C   UNL     1       0.900   2.994  17.711  0.00  0.00    +0.000 A 
ATOM      6  C   UNL     1       1.151   2.322  18.908  0.00  0.00    +0.000 A 
ATOM      7  C   UNL     1       1.853   2.951  19.938  0.00  0.00    +0.000 A 
ATOM      8  C   UNL     1       2.336   4.252  19.762  0.00  0.00    +0.000 A 
ATOM      9  C   UNL     1       2.958   5.053  20.882  0.00  0.00    +0.000 C 
ATOM     10  O   UNL     1       2.104   6.120  21.328  0.00  0.00    +0.000 OA
ATOM     11  C   UNL     1       1.852   7.193  20.505  0.00  0.00    +0.000 A 
ATOM     12  C   UNL     1       1.135   8.223  21.128  0.00  0.00    +0.000 A 
ATOM     13  C   UNL     1       0.728   9.358  20.415  0.00  0.00    +0.000 A 
ATOM     14  C   UNL     1       1.044   9.497  19.062  0.00  0.00    +0.000 A 
ATOM     15  C   UNL     1       1.795   8.489  18.447  0.00  0.00    +0.000 A 
ATOM     16  C   UNL     1       2.180   7.329  19.144  0.00  0.00    +0.000 A 
ENDROOT
BRANCH   1  17
ATOM     17  C   UNL     1       4.720   5.385  16.929  0.00  0.00    +0.000 C 
BRANCH  17  18
ATOM     18  C   UNL     1       5.832   5.982  16.041  0.00  0.00    +0.000 C 
BRANCH  18  20
ATOM     19  C   UNL     1       7.478   7.096  17.468  0.00  0.00    +0.000 C 
ATOM     20  N   UNL     1       7.204   5.955  16.590  0.00  0.00    +0.000 NA
ATOM     21  C   UNL     1       7.402   4.709  17.343  0.00  0.00    +0.000 C 
ENDBRANCH  18  20
ENDBRANCH  17  18
ENDBRANCH   1  17
BRANCH  14  22
ATOM     22  C   UNL     1       0.576  10.694  18.264  0.00  0.00    +0.000 C 
BRANCH  22  23
ATOM     23  C   UNL     1      -0.820  11.167  18.686  0.00  0.00    +0.000 C 
BRANCH  23  24
ATOM     24  C   UNL     1      -1.858  10.825  17.649  0.00  0.00    +0.000 C 
ATOM     25  O   UNL     1      -2.581   9.845  17.666  0.00  0.00    +0.000 OA
BRANCH  24  26
ATOM     26  O   UNL     1      -1.916  11.749  16.659  0.00  0.00    +0.000 OA
ATOM     27  H   UNL     1      -2.081  12.659  16.980  0.00  0.00    +0.000 HD
ENDBRANCH  24  26
ENDBRANCH  23  24
ENDBRANCH  22  23
ENDBRANCH  14  22
TORSDOF 7
ENDMDL
MODEL 8
REMARK VINA RESULT:      -7.4      3.398      6.931
REMARK  Name = 
REMARK  9 active torsions:
REMARK  status: ('A' for Active; 'I' for Inactive)
REMARK    1  A    between atoms: C_1  and  N_2
REMARK    2  A    between atoms: N_2  and  C_3
REMARK    3  A    between atoms: N_2  and  C_4
REMARK    4  A    between atoms: C_4  and  C_5
REMARK    5  A    between atoms: C_5  and  C_6
REMARK    6  A    between atoms: C_19  and  C_20
REMARK    7  A    between atoms: C_20  and  C_21
REMARK    8  A    between atoms: C_21  and  C_22
REMARK    9  A    between atoms: C_22  and  O_24
REMARK                            x       y       z     vdW  Elec       q    Type
REMARK                         _______ _______ _______ _____ _____    ______ ____
ROOT
ATOM      1  C   UNL     1       3.966   6.487  18.100  0.00  0.00    +0.000 C 
ATOM      2  C   UNL     1       2.742   6.300  18.642  0.00  0.00    +0.000 C 
ATOM      3  C   UNL     1       2.125   4.967  18.700  0.00  0.00    +0.000 A 
ATOM      4  C   UNL     1       1.494   4.390  17.595  0.00  0.00    +0.000 A 
ATOM      5  C   UNL     1       0.930   3.123  17.710  0.00  0.00    +0.000 A 
ATOM      6  C   UNL     1       1.006   2.433  18.920  0.00  0.00    +0.000 A 
ATOM      7  C   UNL     1       1.576   3.038  20.043  0.00  0.00    +0.000 A 
ATOM      8  C   UNL     1       2.101   4.331  19.950  0.00  0.00    +0.000 A 
ATOM      9  C   UNL     1       2.583   5.107  21.153  0.00  0.00    +0.000 C 
ATOM     10  O   UNL     1       1.696   6.186  21.495  0.00  0.00    +0.000 OA
ATOM     11  C   UNL     1       1.576   7.273  20.660  0.00  0.00    +0.000 A 
ATOM     12  C   UNL     1       0.801   8.310  21.195  0.00  0.00    +0.000 A 
ATOM     13  C   UNL     1       0.513   9.460  20.449  0.00  0.00    +0.000 A 
ATOM     14  C   UNL     1       1.009   9.607  19.152  0.00  0.00    +0.000 A 
ATOM     15  C   UNL     1       1.818   8.591  18.630  0.00  0.00    +0.000 A 
ATOM     16  C   UNL     1       2.085   7.416  19.357  0.00  0.00    +0.000 A 
ENDROOT
BRANCH   1  17
ATOM     17  C   UNL     1       4.862   5.445  17.474  0.00  0.00    +0.000 C 
BRANCH  17  18
ATOM     18  C   UNL     1       5.655   4.603  18.495  0.00  0.00    +0.000 C 
BRANCH  18  20
ATOM     19  C   UNL     1       7.515   4.584  16.906  0.00  0.00    +0.000 C 
ATOM     20  N   UNL     1       7.121   4.552  18.317  0.00  0.00    +0.000 NA
ATOM     21  C   UNL     1       7.735   5.691  19.013  0.00  0.00    +0.000 C 
ENDBRANCH  18  20
ENDBRANCH  17  18
ENDBRANCH   1  17
BRANCH  14  22
ATOM     22  C   UNL     1       0.675  10.821  18.315  0.00  0.00    +0.000 C 
BRANCH  22  23
ATOM     23  C   UNL     1      -0.728  11.365  18.612  0.00  0.00    +0.000 C 
BRANCH  23  24
ATOM     24  C   UNL     1      -1.723  10.932  17.566  0.00  0.00    +0.000 C 
ATOM     25  O   UNL     1      -1.841   9.804  17.124  0.00  0.00    +0.000 OA
BRANCH  24  26
ATOM     26  O   UNL     1      -2.508  11.957  17.151  0.00  0.00    +0.000 OA
ATOM     27  H   UNL     1      -2.266  12.305  16.269  0.00  0.00    +0.000 HD
ENDBRANCH  24  26
ENDBRANCH  23  24
ENDBRANCH  22  23
ENDBRANCH  14  22
TORSDOF 7
ENDMDL
MODEL 9
REMARK VINA RESULT:      -7.4      3.341      5.712
REMARK  Name = 
REMARK  9 active torsions:
REMARK  status: ('A' for Active; 'I' for Inactive)
REMARK    1  A    between atoms: C_1  and  N_2
REMARK    2  A    between atoms: N_2  and  C_3
REMARK    3  A    between atoms: N_2  and  C_4
REMARK    4  A    between atoms: C_4  and  C_5
REMARK    5  A    between atoms: C_5  and  C_6
REMARK    6  A    between atoms: C_19  and  C_20
REMARK    7  A    between atoms: C_20  and  C_21
REMARK    8  A    between atoms: C_21  and  C_22
REMARK    9  A    between atoms: C_22  and  O_24
REMARK                            x       y       z     vdW  Elec       q    Type
REMARK                         _______ _______ _______ _____ _____    ______ ____
ROOT
ATOM      1  C   UNL     1       3.554   2.525  17.041  0.00  0.00    +0.000 C 
ATOM      2  C   UNL     1       4.046   3.781  16.972  0.00  0.00    +0.000 C 
ATOM      3  C   UNL     1       3.503   4.864  17.805  0.00  0.00    +0.000 A 
ATOM      4  C   UNL     1       2.322   5.533  17.478  0.00  0.00    +0.000 A 
ATOM      5  C   UNL     1       1.854   6.549  18.307  0.00  0.00    +0.000 A 
ATOM      6  C   UNL     1       2.561   6.885  19.463  0.00  0.00    +0.000 A 
ATOM      7  C   UNL     1       3.778   6.263  19.753  0.00  0.00    +0.000 A 
ATOM      8  C   UNL     1       4.279   5.276  18.898  0.00  0.00    +0.000 A 
ATOM      9  C   UNL     1       5.658   4.679  19.058  0.00  0.00    +0.000 C 
ATOM     10  O   UNL     1       6.564   5.118  18.032  0.00  0.00    +0.000 OA
ATOM     11  C   UNL     1       6.381   4.714  16.729  0.00  0.00    +0.000 A 
ATOM     12  C   UNL     1       7.424   5.090  15.873  0.00  0.00    +0.000 A 
ATOM     13  C   UNL     1       7.364   4.826  14.498  0.00  0.00    +0.000 A 
ATOM     14  C   UNL     1       6.264   4.162  13.950  0.00  0.00    +0.000 A 
ATOM     15  C   UNL     1       5.241   3.749  14.810  0.00  0.00    +0.000 A 
ATOM     16  C   UNL     1       5.272   4.040  16.186  0.00  0.00    +0.000 A 
ENDROOT
BRANCH   1  17
ATOM     17  C   UNL     1       2.419   2.028  17.904  0.00  0.00    +0.000 C 
BRANCH  17  18
ATOM     18  C   UNL     1       2.771   1.918  19.402  0.00  0.00    +0.000 C 
BRANCH  18  20
ATOM     19  C   UNL     1       2.256   2.911  21.578  0.00  0.00    +0.000 C 
ATOM     20  N   UNL     1       1.714   2.300  20.361  0.00  0.00    +0.000 NA
ATOM     21  C   UNL     1       0.792   3.246  19.717  0.00  0.00    +0.000 C 
ENDBRANCH  18  20
ENDBRANCH  17  18
ENDBRANCH   1  17
BRANCH  14  22
ATOM     22  C   UNL     1       6.163   3.906  12.463  0.00  0.00    +0.000 C 
BRANCH  22  23
ATOM     23  C   UNL     1       5.359   2.639  12.144  0.00  0.00    +0.000 C 
BRANCH  23  24
ATOM     24  C   UNL     1       6.213   1.595  11.474  0.00  0.00    +0.000 C 
ATOM     25  O   UNL     1       5.835   0.495  11.114  0.00  0.00    +0.000 OA
BRANCH  24  26
ATOM     26  O   UNL     1       7.490   2.014  11.297  0.00  0.00    +0.000 OA
ATOM     27  H   UNL     1       7.967   1.534  10.590  0.00  0.00    +0.000 HD
ENDBRANCH  24  26
ENDBRANCH  23  24
ENDBRANCH  22  23
ENDBRANCH  14  22
TORSDOF 7
ENDMDL
