MODEL 1
REMARK VINA RESULT:      -6.3      0.000      0.000
REMARK  Name = 
REMARK  2 active torsions:
REMARK  status: ('A' for Active; 'I' for Inactive)
REMARK    1  A    between atoms: C_5  and  O_6
REMARK    2  A    between atoms: O_6  and  C_7
REMARK                            x       y       z     vdW  Elec       q    Type
REMARK                         _______ _______ _______ _____ _____    ______ ____
ROOT
ATOM      1 CL   UNL     1       1.107   2.850  21.343  0.00  0.00    +0.000 Cl
ATOM      2  C   UNL     1       1.871   3.789  20.121  0.00  0.00    +0.000 A 
ATOM      3  C   UNL     1       2.929   4.633  20.456  0.00  0.00    +0.000 A 
ATOM      4  C   UNL     1       3.560   5.381  19.458  0.00  0.00    +0.000 A 
ATOM      5  C   UNL     1       3.137   5.280  18.130  0.00  0.00    +0.000 A 
ATOM      6  C   UNL     1       2.043   4.470  17.810  0.00  0.00    +0.000 A 
ATOM      7  C   UNL     1       1.424   3.707  18.804  0.00  0.00    +0.000 A 
ENDROOT
BRANCH   5   8
ATOM      8  O   UNL     1       3.807   6.069  17.227  0.00  0.00    +0.000 OA
BRANCH   8   9
ATOM      9  C   UNL     1       4.893   5.570  16.554  0.00  0.00    +0.000 A 
ATOM     10  C   UNL     1       4.927   4.352  15.879  0.00  0.00    +0.000 A 
ATOM     11  C   UNL     1       6.099   3.957  15.238  0.00  0.00    +0.000 A 
ATOM     12  C   UNL     1       7.212   4.777  15.333  0.00  0.00    +0.000 A 
ATOM     13  N   UNL     1       7.230   5.941  16.017  0.00  0.00    +0.000 NA
ATOM     14  C   UNL     1       6.071   6.305  16.617  0.00  0.00    +0.000 A 
ENDBRANCH   8   9
ENDBRANCH   5   8
TORSDOF 2
ENDMDL
MODEL 2
REMARK VINA RESULT:      -6.3      0.095      1.294
REMARK  Name = 
REMARK  2 active torsions:
REMARK  status: ('A' for Active; 'I' for Inactive)
REMARK    1  A    between atoms: C_5  and  O_6
REMARK    2  A    between atoms: O_6  and  C_7
REMARK                            x       y       z     vdW  Elec       q    Type
REMARK                         _______ _______ _______ _____ _____    ______ ____
ROOT
ATOM      1 CL   UNL     1       1.083   2.814  21.306  0.00  0.00    +0.000 Cl
ATOM      2  C   UNL     1       1.898   3.768  20.130  0.00  0.00    +0.000 A 
ATOM      3  C   UNL     1       1.444   3.781  18.812  0.00  0.00    +0.000 A 
ATOM      4  C   UNL     1       2.096   4.571  17.863  0.00  0.00    +0.000 A 
ATOM      5  C   UNL     1       3.195   5.350  18.232  0.00  0.00    +0.000 A 
ATOM      6  C   UNL     1       3.677   5.294  19.544  0.00  0.00    +0.000 A 
ATOM      7  C   UNL     1       3.013   4.519  20.499  0.00  0.00    +0.000 A 
ENDROOT
BRANCH   5   8
ATOM      8  O   UNL     1       3.780   6.077  17.223  0.00  0.00    +0.000 OA
BRANCH   8   9
ATOM      9  C   UNL     1       4.887   5.586  16.578  0.00  0.00    +0.000 A 
ATOM     10  C   UNL     1       4.943   4.374  15.893  0.00  0.00    +0.000 A 
ATOM     11  C   UNL     1       6.134   3.987  15.284  0.00  0.00    +0.000 A 
ATOM     12  C   UNL     1       7.242   4.809  15.418  0.00  0.00    +0.000 A 
ATOM     13  N   UNL     1       7.237   5.966  16.112  0.00  0.00    +0.000 NA
ATOM     14  C   UNL     1       6.060   6.323  16.682  0.00  0.00    +0.000 A 
ENDBRANCH   8   9
ENDBRANCH   5   8
TORSDOF 2
ENDMDL
MODEL 3
REMARK VINA RESULT:      -6.2      1.401      1.626
REMARK  Name = 
REMARK  2 active torsions:
REMARK  status: ('A' for Active; 'I' for Inactive)
REMARK    1  A    between atoms: C_5  and  O_6
REMARK    2  A    between atoms: O_6  and  C_7
REMARK                            x       y       z     vdW  Elec       q    Type
REMARK                         _______ _______ _______ _____ _____    ______ ____
ROOT
ATOM      1 CL   UNL     1       1.684   2.508  21.652  0.00  0.00    +0.000 Cl
ATOM      2  C   UNL     1       2.756   3.466  20.707  0.00  0.00    +0.000 A 
ATOM      3  C   UNL     1       2.502   4.826  20.536  0.00  0.00    +0.000 A 
ATOM      4  C   UNL     1       3.384   5.605  19.784  0.00  0.00    +0.000 A 
ATOM      5  C   UNL     1       4.520   5.027  19.211  0.00  0.00    +0.000 A 
ATOM      6  C   UNL     1       4.742   3.652  19.344  0.00  0.00    +0.000 A 
ATOM      7  C   UNL     1       3.870   2.876  20.113  0.00  0.00    +0.000 A 
ENDROOT
BRANCH   5   8
ATOM      8  O   UNL     1       5.315   5.871  18.474  0.00  0.00    +0.000 OA
BRANCH   8   9
ATOM      9  C   UNL     1       5.813   5.461  17.264  0.00  0.00    +0.000 A 
ATOM     10  C   UNL     1       5.078   5.369  16.084  0.00  0.00    +0.000 A 
ATOM     11  C   UNL     1       5.704   4.931  14.920  0.00  0.00    +0.000 A 
ATOM     12  C   UNL     1       7.037   4.558  14.987  0.00  0.00    +0.000 A 
ATOM     13  N   UNL     1       7.768   4.589  16.121  0.00  0.00    +0.000 NA
ATOM     14  C   UNL     1       7.135   5.034  17.234  0.00  0.00    +0.000 A 
ENDBRANCH   8   9
ENDBRANCH   5   8
TORSDOF 2
ENDMDL
MODEL 4
REMARK VINA RESULT:      -6.2      1.400      1.844
REMARK  Name = 
REMARK  2 active torsions:
REMARK  status: ('A' for Active; 'I' for Inactive)
REMARK    1  A    between atoms: C_5  and  O_6
REMARK    2  A    between atoms: O_6  and  C_7
REMARK                            x       y       z     vdW  Elec       q    Type
REMARK                         _______ _______ _______ _____ _____    ______ ____
ROOT
ATOM      1 CL   UNL     1       1.273   2.451  21.804  0.00  0.00    +0.000 Cl
ATOM      2  C   UNL     1       2.032   2.877  20.320  0.00  0.00    +0.000 A 
ATOM      3  C   UNL     1       3.417   2.773  20.195  0.00  0.00    +0.000 A 
ATOM      4  C   UNL     1       4.028   3.102  18.984  0.00  0.00    +0.000 A 
ATOM      5  C   UNL     1       3.257   3.528  17.899  0.00  0.00    +0.000 A 
ATOM      6  C   UNL     1       1.875   3.679  18.047  0.00  0.00    +0.000 A 
ATOM      7  C   UNL     1       1.259   3.331  19.253  0.00  0.00    +0.000 A 
ENDROOT
BRANCH   5   8
ATOM      8  O   UNL     1       3.953   3.847  16.758  0.00  0.00    +0.000 OA
BRANCH   8   9
ATOM      9  C   UNL     1       4.990   4.743  16.816  0.00  0.00    +0.000 A 
ATOM     10  C   UNL     1       4.866   6.093  17.138  0.00  0.00    +0.000 A 
ATOM     11  C   UNL     1       6.001   6.900  17.156  0.00  0.00    +0.000 A 
ATOM     12  C   UNL     1       7.218   6.335  16.807  0.00  0.00    +0.000 A 
ATOM     13  N   UNL     1       7.369   5.044  16.445  0.00  0.00    +0.000 NA
ATOM     14  C   UNL     1       6.249   4.281  16.451  0.00  0.00    +0.000 A 
ENDBRANCH   8   9
ENDBRANCH   5   8
TORSDOF 2
ENDMDL
MODEL 5
REMARK VINA RESULT:      -6.1      1.432      1.548
REMARK  Name = 
REMARK  2 active torsions:
REMARK  status: ('A' for Active; 'I' for Inactive)
REMARK    1  A    between atoms: C_5  and  O_6
REMARK    2  A    between atoms: O_6  and  C_7
REMARK                            x       y       z     vdW  Elec       q    Type
REMARK                         _______ _______ _______ _____ _____    ______ ____
ROOT
ATOM      1 CL   UNL     1       0.400   2.682  19.638  0.00  0.00    +0.000 Cl
ATOM      2  C   UNL     1       1.922   3.328  19.163  0.00  0.00    +0.000 A 
ATOM      3  C   UNL     1       3.095   2.647  19.484  0.00  0.00    +0.000 A 
ATOM      4  C   UNL     1       4.328   3.164  19.081  0.00  0.00    +0.000 A 
ATOM      5  C   UNL     1       4.387   4.356  18.354  0.00  0.00    +0.000 A 
ATOM      6  C   UNL     1       3.211   5.061  18.079  0.00  0.00    +0.000 A 
ATOM      7  C   UNL     1       1.975   4.534  18.465  0.00  0.00    +0.000 A 
ENDROOT
BRANCH   5   8
ATOM      8  O   UNL     1       5.647   4.793  18.021  0.00  0.00    +0.000 OA
BRANCH   8   9
ATOM      9  C   UNL     1       6.066   4.744  16.716  0.00  0.00    +0.000 A 
ATOM     10  C   UNL     1       5.583   3.862  15.751  0.00  0.00    +0.000 A 
ATOM     11  C   UNL     1       6.099   3.913  14.458  0.00  0.00    +0.000 A 
ATOM     12  C   UNL     1       7.113   4.818  14.187  0.00  0.00    +0.000 A 
ATOM     13  N   UNL     1       7.637   5.655  15.107  0.00  0.00    +0.000 NA
ATOM     14  C   UNL     1       7.105   5.592  16.352  0.00  0.00    +0.000 A 
ENDBRANCH   8   9
ENDBRANCH   5   8
TORSDOF 2
ENDMDL
MODEL 6
REMARK VINA RESULT:      -6.1      3.532      5.477
REMARK  Name = 
REMARK  2 active torsions:
REMARK  status: ('A' for Active; 'I' for Inactive)
REMARK    1  A    between atoms: C_5  and  O_6
REMARK    2  A    between atoms: O_6  and  C_7
REMARK                            x       y       z     vdW  Elec       q    Type
REMARK                         _______ _______ _______ _____ _____    ______ ____
ROOT
ATOM      1 CL   UNL     1       7.836   8.376  17.593  0.00  0.00    +0.000 Cl
ATOM      2  C   UNL     1       6.932   6.921  17.430  0.00  0.00    +0.000 A 
ATOM      3  C   UNL     1       5.625   6.968  16.949  0.00  0.00    +0.000 A 
ATOM      4  C   UNL     1       4.899   5.783  16.800  0.00  0.00    +0.000 A 
ATOM      5  C   UNL     1       5.482   4.556  17.126  0.00  0.00    +0.000 A 
ATOM      6  C   UNL     1       6.776   4.521  17.656  0.00  0.00    +0.000 A 
ATOM      7  C   UNL     1       7.510   5.703  17.786  0.00  0.00    +0.000 A 
ENDROOT
BRANCH   5   8
ATOM      8  O   UNL     1       4.682   3.451  16.963  0.00  0.00    +0.000 OA
BRANCH   8   9
ATOM      9  C   UNL     1       3.646   3.222  17.832  0.00  0.00    +0.000 A 
ATOM     10  C   UNL     1       2.295   3.371  17.526  0.00  0.00    +0.000 A 
ATOM     11  C   UNL     1       1.338   3.111  18.504  0.00  0.00    +0.000 A 
ATOM     12  C   UNL     1       1.770   2.753  19.772  0.00  0.00    +0.000 A 
ATOM     13  N   UNL     1       3.070   2.645  20.117  0.00  0.00    +0.000 NA
ATOM     14  C   UNL     1       3.977   2.889  19.140  0.00  0.00    +0.000 A 
ENDBRANCH   8   9
ENDBRANCH   5   8
TORSDOF 2
ENDMDL
MODEL 7
REMARK VINA RESULT:      -6.1      3.558      5.413
REMARK  Name = 
REMARK  2 active torsions:
REMARK  status: ('A' for Active; 'I' for Inactive)
REMARK    1  A    between atoms: C_5  and  O_6
REMARK    2  A    between atoms: O_6  and  C_7
REMARK                            x       y       z     vdW  Elec       q    Type
REMARK                         _______ _______ _______ _____ _____    ______ ____
ROOT
ATOM      1 CL   UNL     1       7.799   8.305  17.595  0.00  0.00    +0.000 Cl
ATOM      2  C   UNL     1       6.851   6.881  17.418  0.00  0.00    +0.000 A 
ATOM      3  C   UNL     1       7.434   5.631  17.617  0.00  0.00    +0.000 A 
ATOM      4  C   UNL     1       6.657   4.477  17.492  0.00  0.00    +0.000 A 
ATOM      5  C   UNL     1       5.299   4.575  17.173  0.00  0.00    +0.000 A 
ATOM      6  C   UNL     1       4.733   5.829  16.925  0.00  0.00    +0.000 A 
ATOM      7  C   UNL     1       5.505   6.985  17.070  0.00  0.00    +0.000 A 
ENDROOT
BRANCH   5   8
ATOM      8  O   UNL     1       4.625   3.383  17.053  0.00  0.00    +0.000 OA
BRANCH   8   9
ATOM      9  C   UNL     1       3.612   3.078  17.926  0.00  0.00    +0.000 A 
ATOM     10  C   UNL     1       2.259   3.036  17.599  0.00  0.00    +0.000 A 
ATOM     11  C   UNL     1       1.327   2.717  18.584  0.00  0.00    +0.000 A 
ATOM     12  C   UNL     1       1.781   2.493  19.875  0.00  0.00    +0.000 A 
ATOM     13  N   UNL     1       3.078   2.571  20.237  0.00  0.00    +0.000 NA
ATOM     14  C   UNL     1       3.962   2.869  19.254  0.00  0.00    +0.000 A 
ENDBRANCH   8   9
ENDBRANCH   5   8
TORSDOF 2
ENDMDL
MODEL 8
REMARK VINA RESULT:      -6.1      3.606      5.658
REMARK  Name = 
REMARK  2 active torsions:
REMARK  status: ('A' for Active; 'I' for Inactive)
REMARK    1  A    between atoms: C_5  and  O_6
REMARK    2  A    between atoms: O_6  and  C_7
REMARK                            x       y       z     vdW  Elec       q    Type
REMARK                         _______ _______ _______ _____ _____    ______ ____
ROOT
ATOM      1 CL   UNL     1       7.819   7.733  17.600  0.00  0.00    +0.000 Cl
ATOM      2  C   UNL     1       6.683   6.447  17.721  0.00  0.00    +0.000 A 
ATOM      3  C   UNL     1       6.732   5.579  18.810  0.00  0.00    +0.000 A 
ATOM      4  C   UNL     1       5.797   4.547  18.916  0.00  0.00    +0.000 A 
ATOM      5  C   UNL     1       4.812   4.389  17.937  0.00  0.00    +0.000 A 
ATOM      6  C   UNL     1       4.799   5.231  16.821  0.00  0.00    +0.000 A 
ATOM      7  C   UNL     1       5.722   6.276  16.725  0.00  0.00    +0.000 A 
ENDROOT
BRANCH   5   8
ATOM      8  O   UNL     1       3.951   3.333  18.120  0.00  0.00    +0.000 OA
BRANCH   8   9
ATOM      9  C   UNL     1       3.033   3.366  19.139  0.00  0.00    +0.000 A 
ATOM     10  C   UNL     1       1.874   4.139  19.150  0.00  0.00    +0.000 A 
ATOM     11  C   UNL     1       1.026   4.086  20.253  0.00  0.00    +0.000 A 
ATOM     12  C   UNL     1       1.391   3.291  21.329  0.00  0.00    +0.000 A 
ATOM     13  N   UNL     1       2.528   2.566  21.373  0.00  0.00    +0.000 NA
ATOM     14  C   UNL     1       3.325   2.627  20.279  0.00  0.00    +0.000 A 
ENDBRANCH   8   9
ENDBRANCH   5   8
TORSDOF 2
ENDMDL
MODEL 9
REMARK VINA RESULT:      -6.1      3.459      5.740
REMARK  Name = 
REMARK  2 active torsions:
REMARK  status: ('A' for Active; 'I' for Inactive)
REMARK    1  A    between atoms: C_5  and  O_6
REMARK    2  A    between atoms: O_6  and  C_7
REMARK                            x       y       z     vdW  Elec       q    Type
REMARK                         _______ _______ _______ _____ _____    ______ ____
ROOT
ATOM      1 CL   UNL     1       7.135   4.889  14.268  0.00  0.00    +0.000 Cl
ATOM      2  C   UNL     1       6.422   5.051  15.825  0.00  0.00    +0.000 A 
ATOM      3  C   UNL     1       5.172   5.654  15.955  0.00  0.00    +0.000 A 
ATOM      4  C   UNL     1       4.587   5.768  17.219  0.00  0.00    +0.000 A 
ATOM      5  C   UNL     1       5.247   5.274  18.346  0.00  0.00    +0.000 A 
ATOM      6  C   UNL     1       6.523   4.716  18.215  0.00  0.00    +0.000 A 
ATOM      7  C   UNL     1       7.101   4.584  16.949  0.00  0.00    +0.000 A 
ENDROOT
BRANCH   5   8
ATOM      8  O   UNL     1       4.599   5.451  19.545  0.00  0.00    +0.000 OA
BRANCH   8   9
ATOM      9  C   UNL     1       3.460   4.737  19.820  0.00  0.00    +0.000 A 
ATOM     10  C   UNL     1       2.248   5.289  20.230  0.00  0.00    +0.000 A 
ATOM     11  C   UNL     1       1.165   4.450  20.482  0.00  0.00    +0.000 A 
ATOM     12  C   UNL     1       1.347   3.082  20.357  0.00  0.00    +0.000 A 
ATOM     13  N   UNL     1       2.518   2.510  20.007  0.00  0.00    +0.000 NA
ATOM     14  C   UNL     1       3.549   3.352  19.754  0.00  0.00    +0.000 A 
ENDBRANCH   8   9
ENDBRANCH   5   8
TORSDOF 2
ENDMDL
