MODEL 1
REMARK VINA RESULT:      -7.3      0.000      0.000
REMARK  Name = 
REMARK  8 active torsions:
REMARK  status: ('A' for Active; 'I' for Inactive)
REMARK    1  A    between atoms: C_1  and  O_2
REMARK    2  A    between atoms: O_2  and  C_3
REMARK    3  A    between atoms: C_8  and  N_9
REMARK    4  A    between atoms: N_9  and  C_10
REMARK    5  A    between atoms: C_10  and  C_11
REMARK    6  A    between atoms: C_14  and  C_15
REMARK    7  A    between atoms: N_17  and  C_18
REMARK    8  A    between atoms: N_17  and  C_19
REMARK                            x       y       z     vdW  Elec       q    Type
REMARK                         _______ _______ _______ _____ _____    ______ ____
ROOT
ATOM      1  C   UNL     1       3.270   3.638  17.443  0.00  0.00    +0.000 C 
ENDROOT
BRANCH   1   2
ATOM      2  C   UNL     1       2.847   4.826  18.279  0.00  0.00    +0.000 A 
ATOM      3  C   UNL     1       2.942   6.123  17.762  0.00  0.00    +0.000 A 
ATOM      4  C   UNL     1       2.540   7.221  18.528  0.00  0.00    +0.000 A 
ATOM      5  C   UNL     1       2.027   7.057  19.827  0.00  0.00    +0.000 A 
ATOM      6  C   UNL     1       1.885   5.756  20.316  0.00  0.00    +0.000 A 
ATOM      7  C   UNL     1       2.331   4.655  19.569  0.00  0.00    +0.000 A 
BRANCH   5   8
ATOM      8  C   UNL     1       1.551   8.293  20.524  0.00  0.00    +0.000 C 
ATOM      9  O   UNL     1       1.537   8.231  21.758  0.00  0.00    +0.000 OA
ATOM     10  N   UNL     1       1.118   9.450  19.858  0.00  0.00    +0.000 N 
ATOM     11  C   UNL     1       0.816   9.603  18.443  0.00  0.00    +0.000 C 
ATOM     12  C   UNL     1       0.566  10.514  20.693  0.00  0.00    +0.000 C 
ENDBRANCH   5   8
ENDBRANCH   1   2
BRANCH   1  13
ATOM     13  N   UNL     1       4.697   3.423  17.578  0.00  0.00    +0.000 N 
ATOM     14  H   UNL     1       5.002   2.482  17.338  0.00  0.00    +0.000 HD
BRANCH  13  20
ATOM     15  C   UNL     1       6.737   4.928  15.135  0.00  0.00    +0.000 A 
ATOM     16  N   UNL     1       7.544   5.798  15.753  0.00  0.00    +0.000 NA
ATOM     17  C   UNL     1       7.366   5.905  17.081  0.00  0.00    +0.000 A 
ATOM     18  C   UNL     1       6.434   5.188  17.799  0.00  0.00    +0.000 A 
ATOM     19 CL   UNL     1       6.380   5.453  19.496  0.00  0.00    +0.000 Cl
ATOM     20  C   UNL     1       5.636   4.307  17.070  0.00  0.00    +0.000 A 
ATOM     21  N   UNL     1       5.790   4.185  15.732  0.00  0.00    +0.000 NA
BRANCH  15  23
ATOM     22  C   UNL     1       6.111   3.635  13.295  0.00  0.00    +0.000 C 
ATOM     23  O   UNL     1       6.853   4.753  13.771  0.00  0.00    +0.000 OA
ENDBRANCH  15  23
ENDBRANCH  13  20
ENDBRANCH   1  13
TORSDOF 5
ENDMDL
MODEL 2
REMARK VINA RESULT:      -7.3      1.975      2.732
REMARK  Name = 
REMARK  8 active torsions:
REMARK  status: ('A' for Active; 'I' for Inactive)
REMARK    1  A    between atoms: C_1  and  O_2
REMARK    2  A    between atoms: O_2  and  C_3
REMARK    3  A    between atoms: C_8  and  N_9
REMARK    4  A    between atoms: N_9  and  C_10
REMARK    5  A    between atoms: C_10  and  C_11
REMARK    6  A    between atoms: C_14  and  C_15
REMARK    7  A    between atoms: N_17  and  C_18
REMARK    8  A    between atoms: N_17  and  C_19
REMARK                            x       y       z     vdW  Elec       q    Type
REMARK                         _______ _______ _______ _____ _____    ______ ____
ROOT
ATOM      1  C   UNL     1       4.086   3.619  18.765  0.00  0.00    +0.000 C 
ENDROOT
BRANCH   1   2
ATOM      2  C   UNL     1       3.353   4.887  19.143  0.00  0.00    +0.000 A 
ATOM      3  C   UNL     1       2.640   4.959  20.345  0.00  0.00    +0.000 A 
ATOM      4  C   UNL     1       1.972   6.134  20.703  0.00  0.00    +0.000 A 
ATOM      5  C   UNL     1       2.002   7.272  19.877  0.00  0.00    +0.000 A 
ATOM      6  C   UNL     1       2.760   7.211  18.705  0.00  0.00    +0.000 A 
ATOM      7  C   UNL     1       3.393   6.019  18.319  0.00  0.00    +0.000 A 
BRANCH   5   8
ATOM      8  C   UNL     1       1.323   8.500  20.397  0.00  0.00    +0.000 C 
ATOM      9  O   UNL     1       1.136   8.523  21.618  0.00  0.00    +0.000 OA
ATOM     10  N   UNL     1       0.890   9.559  19.584  0.00  0.00    +0.000 N 
ATOM     11  C   UNL     1       0.782   9.582  18.133  0.00  0.00    +0.000 C 
ATOM     12  C   UNL     1       0.131  10.618  20.244  0.00  0.00    +0.000 C 
ENDBRANCH   5   8
ENDBRANCH   1   2
BRANCH   1  13
ATOM     13  N   UNL     1       5.515   3.820  18.888  0.00  0.00    +0.000 N 
ATOM     14  H   UNL     1       6.046   2.964  19.034  0.00  0.00    +0.000 HD
BRANCH  13  20
ATOM     15  C   UNL     1       7.579   6.488  17.877  0.00  0.00    +0.000 A 
ATOM     16  N   UNL     1       7.645   6.473  16.541  0.00  0.00    +0.000 NA
ATOM     17  C   UNL     1       6.970   5.477  15.942  0.00  0.00    +0.000 A 
ATOM     18  C   UNL     1       6.245   4.517  16.615  0.00  0.00    +0.000 A 
ATOM     19 CL   UNL     1       5.432   3.339  15.664  0.00  0.00    +0.000 Cl
ATOM     20  C   UNL     1       6.236   4.611  18.007  0.00  0.00    +0.000 A 
ATOM     21  N   UNL     1       6.912   5.600  18.634  0.00  0.00    +0.000 NA
BRANCH  15  23
ATOM     22  C   UNL     1       8.120   8.757  17.959  0.00  0.00    +0.000 C 
ATOM     23  O   UNL     1       8.241   7.478  18.573  0.00  0.00    +0.000 OA
ENDBRANCH  15  23
ENDBRANCH  13  20
ENDBRANCH   1  13
TORSDOF 5
ENDMDL
MODEL 3
REMARK VINA RESULT:      -7.3      1.627      2.294
REMARK  Name = 
REMARK  8 active torsions:
REMARK  status: ('A' for Active; 'I' for Inactive)
REMARK    1  A    between atoms: C_1  and  O_2
REMARK    2  A    between atoms: O_2  and  C_3
REMARK    3  A    between atoms: C_8  and  N_9
REMARK    4  A    between atoms: N_9  and  C_10
REMARK    5  A    between atoms: C_10  and  C_11
REMARK    6  A    between atoms: C_14  and  C_15
REMARK    7  A    between atoms: N_17  and  C_18
REMARK    8  A    between atoms: N_17  and  C_19
REMARK                            x       y       z     vdW  Elec       q    Type
REMARK                         _______ _______ _______ _____ _____    ______ ____
ROOT
ATOM      1  C   UNL     1       3.261   6.077  17.932  0.00  0.00    +0.000 C 
ENDROOT
BRANCH   1   2
ATOM      2  C   UNL     1       2.516   7.185  18.643  0.00  0.00    +0.000 A 
ATOM      3  C   UNL     1       2.091   8.317  17.938  0.00  0.00    +0.000 A 
ATOM      4  C   UNL     1       1.392   9.336  18.590  0.00  0.00    +0.000 A 
ATOM      5  C   UNL     1       1.090   9.253  19.961  0.00  0.00    +0.000 A 
ATOM      6  C   UNL     1       1.469   8.097  20.647  0.00  0.00    +0.000 A 
ATOM      7  C   UNL     1       2.213   7.092  20.007  0.00  0.00    +0.000 A 
BRANCH   5   8
ATOM      8  C   UNL     1       0.265  10.361  20.538  0.00  0.00    +0.000 C 
ATOM      9  O   UNL     1       0.111  11.342  19.802  0.00  0.00    +0.000 OA
ATOM     10  N   UNL     1      -0.288  10.337  21.827  0.00  0.00    +0.000 N 
ATOM     11  C   UNL     1       0.011   9.407  22.907  0.00  0.00    +0.000 C 
ATOM     12  C   UNL     1      -0.955  11.557  22.273  0.00  0.00    +0.000 C 
ENDBRANCH   5   8
ENDBRANCH   1   2
BRANCH   1  13
ATOM     13  N   UNL     1       4.334   6.637  17.136  0.00  0.00    +0.000 N 
ATOM     14  H   UNL     1       4.571   7.599  17.372  0.00  0.00    +0.000 HD
BRANCH  13  20
ATOM     15  C   UNL     1       6.888   5.140  15.229  0.00  0.00    +0.000 A 
ATOM     16  N   UNL     1       7.729   4.533  16.074  0.00  0.00    +0.000 NA
ATOM     17  C   UNL     1       7.429   4.662  17.378  0.00  0.00    +0.000 A 
ATOM     18  C   UNL     1       6.342   5.359  17.858  0.00  0.00    +0.000 A 
ATOM     19 CL   UNL     1       6.119   5.387  19.562  0.00  0.00    +0.000 Cl
ATOM     20  C   UNL     1       5.523   5.962  16.903  0.00  0.00    +0.000 A 
ATOM     21  N   UNL     1       5.806   5.852  15.586  0.00  0.00    +0.000 NA
BRANCH  15  23
ATOM     22  C   UNL     1       6.419   3.979  13.260  0.00  0.00    +0.000 C 
ATOM     23  O   UNL     1       7.120   5.057  13.872  0.00  0.00    +0.000 OA
ENDBRANCH  15  23
ENDBRANCH  13  20
ENDBRANCH   1  13
TORSDOF 5
ENDMDL
MODEL 4
REMARK VINA RESULT:      -7.3      4.212      8.363
REMARK  Name = 
REMARK  8 active torsions:
REMARK  status: ('A' for Active; 'I' for Inactive)
REMARK    1  A    between atoms: C_1  and  O_2
REMARK    2  A    between atoms: O_2  and  C_3
REMARK    3  A    between atoms: C_8  and  N_9
REMARK    4  A    between atoms: N_9  and  C_10
REMARK    5  A    between atoms: C_10  and  C_11
REMARK    6  A    between atoms: C_14  and  C_15
REMARK    7  A    between atoms: N_17  and  C_18
REMARK    8  A    between atoms: N_17  and  C_19
REMARK                            x       y       z     vdW  Elec       q    Type
REMARK                         _______ _______ _______ _____ _____    ______ ____
ROOT
ATOM      1  C   UNL     1       0.456  10.739  19.672  0.00  0.00    +0.000 C 
ENDROOT
BRANCH   1   2
ATOM      2  C   UNL     1       1.211   9.494  19.261  0.00  0.00    +0.000 A 
ATOM      3  C   UNL     1       1.737   9.382  17.968  0.00  0.00    +0.000 A 
ATOM      4  C   UNL     1       2.446   8.239  17.589  0.00  0.00    +0.000 A 
ATOM      5  C   UNL     1       2.657   7.179  18.488  0.00  0.00    +0.000 A 
ATOM      6  C   UNL     1       2.177   7.321  19.792  0.00  0.00    +0.000 A 
ATOM      7  C   UNL     1       1.424   8.446  20.163  0.00  0.00    +0.000 A 
BRANCH   5   8
ATOM      8  C   UNL     1       3.500   6.042  18.003  0.00  0.00    +0.000 C 
ATOM      9  O   UNL     1       4.681   6.321  17.771  0.00  0.00    +0.000 OA
ATOM     10  N   UNL     1       3.014   4.743  17.787  0.00  0.00    +0.000 N 
ATOM     11  C   UNL     1       1.626   4.306  17.746  0.00  0.00    +0.000 C 
ATOM     12  C   UNL     1       3.946   3.789  17.189  0.00  0.00    +0.000 C 
ENDBRANCH   5   8
ENDBRANCH   1   2
BRANCH   1  13
ATOM     13  N   UNL     1      -0.160  11.348  18.511  0.00  0.00    +0.000 N 
ATOM     14  H   UNL     1       0.372  11.238  17.650  0.00  0.00    +0.000 HD
BRANCH  13  20
ATOM     15  C   UNL     1      -2.930  10.224  16.650  0.00  0.00    +0.000 A 
ATOM     16  N   UNL     1      -4.032  10.751  17.196  0.00  0.00    +0.000 NA
ATOM     17  C   UNL     1      -3.828  11.515  18.283  0.00  0.00    +0.000 A 
ATOM     18  C   UNL     1      -2.590  11.768  18.832  0.00  0.00    +0.000 A 
ATOM     19 CL   UNL     1      -2.539  12.790  20.212  0.00  0.00    +0.000 Cl
ATOM     20  C   UNL     1      -1.499  11.173  18.198  0.00  0.00    +0.000 A 
ATOM     21  N   UNL     1      -1.678  10.395  17.106  0.00  0.00    +0.000 NA
BRANCH  15  23
ATOM     22  C   UNL     1      -3.410  10.166  14.367  0.00  0.00    +0.000 C 
ATOM     23  O   UNL     1      -3.047   9.428  15.529  0.00  0.00    +0.000 OA
ENDBRANCH  15  23
ENDBRANCH  13  20
ENDBRANCH   1  13
TORSDOF 5
ENDMDL
MODEL 5
REMARK VINA RESULT:      -7.2      0.259      1.054
REMARK  Name = 
REMARK  8 active torsions:
REMARK  status: ('A' for Active; 'I' for Inactive)
REMARK    1  A    between atoms: C_1  and  O_2
REMARK    2  A    between atoms: O_2  and  C_3
REMARK    3  A    between atoms: C_8  and  N_9
REMARK    4  A    between atoms: N_9  and  C_10
REMARK    5  A    between atoms: C_10  and  C_11
REMARK    6  A    between atoms: C_14  and  C_15
REMARK    7  A    between atoms: N_17  and  C_18
REMARK    8  A    between atoms: N_17  and  C_19
REMARK                            x       y       z     vdW  Elec       q    Type
REMARK                         _______ _______ _______ _____ _____    ______ ____
ROOT
ATOM      1  C   UNL     1       3.382   3.374  17.754  0.00  0.00    +0.000 C 
ENDROOT
BRANCH   1   2
ATOM      2  C   UNL     1       2.891   4.639  18.424  0.00  0.00    +0.000 A 
ATOM      3  C   UNL     1       2.415   4.602  19.740  0.00  0.00    +0.000 A 
ATOM      4  C   UNL     1       1.973   5.770  20.366  0.00  0.00    +0.000 A 
ATOM      5  C   UNL     1       1.999   7.010  19.701  0.00  0.00    +0.000 A 
ATOM      6  C   UNL     1       2.525   7.048  18.408  0.00  0.00    +0.000 A 
ATOM      7  C   UNL     1       2.926   5.870  17.759  0.00  0.00    +0.000 A 
BRANCH   5   8
ATOM      8  C   UNL     1       1.580   8.208  20.494  0.00  0.00    +0.000 C 
ATOM      9  O   UNL     1       1.589   8.059  21.721  0.00  0.00    +0.000 OA
ATOM     10  N   UNL     1       1.174   9.423  19.922  0.00  0.00    +0.000 N 
ATOM     11  C   UNL     1       0.848   9.686  18.527  0.00  0.00    +0.000 C 
ATOM     12  C   UNL     1       0.676  10.443  20.841  0.00  0.00    +0.000 C 
ENDBRANCH   5   8
ENDBRANCH   1   2
BRANCH   1  13
ATOM     13  N   UNL     1       4.822   3.275  17.884  0.00  0.00    +0.000 N 
ATOM     14  H   UNL     1       5.190   2.336  17.745  0.00  0.00    +0.000 HD
BRANCH  13  20
ATOM     15  C   UNL     1       6.725   4.625  15.247  0.00  0.00    +0.000 A 
ATOM     16  N   UNL     1       7.473   5.616  15.746  0.00  0.00    +0.000 NA
ATOM     17  C   UNL     1       7.300   5.865  17.056  0.00  0.00    +0.000 A 
ATOM     18  C   UNL     1       6.429   5.172  17.868  0.00  0.00    +0.000 A 
ATOM     19 CL   UNL     1       6.372   5.628  19.524  0.00  0.00    +0.000 Cl
ATOM     20  C   UNL     1       5.690   4.157  17.260  0.00  0.00    +0.000 A 
ATOM     21  N   UNL     1       5.840   3.892  15.943  0.00  0.00    +0.000 NA
BRANCH  15  23
ATOM     22  C   UNL     1       5.651   3.725  13.380  0.00  0.00    +0.000 C 
ATOM     23  O   UNL     1       6.841   4.301  13.911  0.00  0.00    +0.000 OA
ENDBRANCH  15  23
ENDBRANCH  13  20
ENDBRANCH   1  13
TORSDOF 5
ENDMDL
MODEL 6
REMARK VINA RESULT:      -7.2      2.018      3.033
REMARK  Name = 
REMARK  8 active torsions:
REMARK  status: ('A' for Active; 'I' for Inactive)
REMARK    1  A    between atoms: C_1  and  O_2
REMARK    2  A    between atoms: O_2  and  C_3
REMARK    3  A    between atoms: C_8  and  N_9
REMARK    4  A    between atoms: N_9  and  C_10
REMARK    5  A    between atoms: C_10  and  C_11
REMARK    6  A    between atoms: C_14  and  C_15
REMARK    7  A    between atoms: N_17  and  C_18
REMARK    8  A    between atoms: N_17  and  C_19
REMARK                            x       y       z     vdW  Elec       q    Type
REMARK                         _______ _______ _______ _____ _____    ______ ____
ROOT
ATOM      1  C   UNL     1       2.908   5.428  19.192  0.00  0.00    +0.000 C 
ENDROOT
BRANCH   1   2
ATOM      2  C   UNL     1       2.280   6.784  19.430  0.00  0.00    +0.000 A 
ATOM      3  C   UNL     1       1.741   7.103  20.681  0.00  0.00    +0.000 A 
ATOM      4  C   UNL     1       1.172   8.360  20.908  0.00  0.00    +0.000 A 
ATOM      5  C   UNL     1       1.130   9.335  19.896  0.00  0.00    +0.000 A 
ATOM      6  C   UNL     1       1.718   9.029  18.666  0.00  0.00    +0.000 A 
ATOM      7  C   UNL     1       2.248   7.753  18.420  0.00  0.00    +0.000 A 
BRANCH   5   8
ATOM      8  C   UNL     1       0.573  10.673  20.272  0.00  0.00    +0.000 C 
ATOM      9  O   UNL     1       1.146  11.238  21.209  0.00  0.00    +0.000 OA
ATOM     10  N   UNL     1      -0.536  11.263  19.647  0.00  0.00    +0.000 N 
ATOM     11  C   UNL     1      -1.480  10.639  18.732  0.00  0.00    +0.000 C 
ATOM     12  C   UNL     1      -1.022  12.512  20.227  0.00  0.00    +0.000 C 
ENDBRANCH   5   8
ENDBRANCH   1   2
BRANCH   1  13
ATOM     13  N   UNL     1       4.352   5.540  19.233  0.00  0.00    +0.000 N 
ATOM     14  H   UNL     1       4.779   5.129  20.061  0.00  0.00    +0.000 HD
BRANCH  13  20
ATOM     15  C   UNL     1       6.864   6.026  16.815  0.00  0.00    +0.000 A 
ATOM     16  N   UNL     1       6.818   4.996  15.961  0.00  0.00    +0.000 NA
ATOM     17  C   UNL     1       5.894   4.059  16.239  0.00  0.00    +0.000 A 
ATOM     18  C   UNL     1       5.033   4.114  17.313  0.00  0.00    +0.000 A 
ATOM     19 CL   UNL     1       3.908   2.826  17.481  0.00  0.00    +0.000 Cl
ATOM     20  C   UNL     1       5.156   5.224  18.149  0.00  0.00    +0.000 A 
ATOM     21  N   UNL     1       6.082   6.177  17.896  0.00  0.00    +0.000 NA
BRANCH  15  23
ATOM     22  C   UNL     1       7.723   8.049  17.600  0.00  0.00    +0.000 C 
ATOM     23  O   UNL     1       7.782   7.034  16.603  0.00  0.00    +0.000 OA
ENDBRANCH  15  23
ENDBRANCH  13  20
ENDBRANCH   1  13
TORSDOF 5
ENDMDL
MODEL 7
REMARK VINA RESULT:      -7.2      2.467      3.477
REMARK  Name = 
REMARK  8 active torsions:
REMARK  status: ('A' for Active; 'I' for Inactive)
REMARK    1  A    between atoms: C_1  and  O_2
REMARK    2  A    between atoms: O_2  and  C_3
REMARK    3  A    between atoms: C_8  and  N_9
REMARK    4  A    between atoms: N_9  and  C_10
REMARK    5  A    between atoms: C_10  and  C_11
REMARK    6  A    between atoms: C_14  and  C_15
REMARK    7  A    between atoms: N_17  and  C_18
REMARK    8  A    between atoms: N_17  and  C_19
REMARK                            x       y       z     vdW  Elec       q    Type
REMARK                         _______ _______ _______ _____ _____    ______ ____
ROOT
ATOM      1  C   UNL     1       2.985   6.384  19.092  0.00  0.00    +0.000 C 
ENDROOT
BRANCH   1   2
ATOM      2  C   UNL     1       2.224   7.691  19.121  0.00  0.00    +0.000 A 
ATOM      3  C   UNL     1       2.069   8.445  17.952  0.00  0.00    +0.000 A 
ATOM      4  C   UNL     1       1.355   9.646  17.974  0.00  0.00    +0.000 A 
ATOM      5  C   UNL     1       0.770  10.127  19.159  0.00  0.00    +0.000 A 
ATOM      6  C   UNL     1       0.882   9.343  20.309  0.00  0.00    +0.000 A 
ATOM      7  C   UNL     1       1.638   8.160  20.303  0.00  0.00    +0.000 A 
BRANCH   5   8
ATOM      8  C   UNL     1      -0.041  11.380  19.049  0.00  0.00    +0.000 C 
ATOM      9  O   UNL     1      -1.225  11.217  18.735  0.00  0.00    +0.000 OA
ATOM     10  N   UNL     1       0.476  12.668  19.255  0.00  0.00    +0.000 N 
ATOM     11  C   UNL     1       1.874  13.060  19.362  0.00  0.00    +0.000 C 
ATOM     12  C   UNL     1      -0.425  13.784  18.981  0.00  0.00    +0.000 C 
ENDBRANCH   5   8
ENDBRANCH   1   2
BRANCH   1  13
ATOM     13  N   UNL     1       3.449   6.114  17.746  0.00  0.00    +0.000 N 
ATOM     14  H   UNL     1       3.192   6.826  17.065  0.00  0.00    +0.000 HD
BRANCH  13  20
ATOM     15  C   UNL     1       6.855   6.530  16.958  0.00  0.00    +0.000 A 
ATOM     16  N   UNL     1       7.379   5.317  16.747  0.00  0.00    +0.000 NA
ATOM     17  C   UNL     1       6.531   4.287  16.911  0.00  0.00    +0.000 A 
ATOM     18  C   UNL     1       5.207   4.422  17.267  0.00  0.00    +0.000 A 
ATOM     19 CL   UNL     1       4.282   2.980  17.404  0.00  0.00    +0.000 Cl
ATOM     20  C   UNL     1       4.750   5.724  17.469  0.00  0.00    +0.000 A 
ATOM     21  N   UNL     1       5.585   6.777  17.317  0.00  0.00    +0.000 NA
BRANCH  15  23
ATOM     22  C   UNL     1       8.079   8.187  18.056  0.00  0.00    +0.000 C 
ATOM     23  O   UNL     1       7.655   7.644  16.809  0.00  0.00    +0.000 OA
ENDBRANCH  15  23
ENDBRANCH  13  20
ENDBRANCH   1  13
TORSDOF 5
ENDMDL
MODEL 8
REMARK VINA RESULT:      -7.1      2.937      4.518
REMARK  Name = 
REMARK  8 active torsions:
REMARK  status: ('A' for Active; 'I' for Inactive)
REMARK    1  A    between atoms: C_1  and  O_2
REMARK    2  A    between atoms: O_2  and  C_3
REMARK    3  A    between atoms: C_8  and  N_9
REMARK    4  A    between atoms: N_9  and  C_10
REMARK    5  A    between atoms: C_10  and  C_11
REMARK    6  A    between atoms: C_14  and  C_15
REMARK    7  A    between atoms: N_17  and  C_18
REMARK    8  A    between atoms: N_17  and  C_19
REMARK                            x       y       z     vdW  Elec       q    Type
REMARK                         _______ _______ _______ _____ _____    ______ ____
ROOT
ATOM      1  C   UNL     1       2.624   7.354  18.937  0.00  0.00    +0.000 C 
ENDROOT
BRANCH   1   2
ATOM      2  C   UNL     1       1.680   8.497  19.242  0.00  0.00    +0.000 A 
ATOM      3  C   UNL     1       1.280   9.372  18.226  0.00  0.00    +0.000 A 
ATOM      4  C   UNL     1       0.398  10.421  18.501  0.00  0.00    +0.000 A 
ATOM      5  C   UNL     1      -0.115  10.623  19.795  0.00  0.00    +0.000 A 
ATOM      6  C   UNL     1       0.245   9.713  20.792  0.00  0.00    +0.000 A 
ATOM      7  C   UNL     1       1.167   8.687  20.530  0.00  0.00    +0.000 A 
BRANCH   5   8
ATOM      8  C   UNL     1      -1.115  11.724  19.958  0.00  0.00    +0.000 C 
ATOM      9  O   UNL     1      -2.169  11.578  19.331  0.00  0.00    +0.000 OA
ATOM     10  N   UNL     1      -0.897  12.871  20.739  0.00  0.00    +0.000 N 
ATOM     11  C   UNL     1       0.358  13.331  21.314  0.00  0.00    +0.000 C 
ATOM     12  C   UNL     1      -1.928  13.903  20.682  0.00  0.00    +0.000 C 
ENDBRANCH   5   8
ENDBRANCH   1   2
BRANCH   1  13
ATOM     13  N   UNL     1       2.488   6.322  19.945  0.00  0.00    +0.000 N 
ATOM     14  H   UNL     1       1.525   6.082  20.171  0.00  0.00    +0.000 HD
BRANCH  13  20
ATOM     15  C   UNL     1       5.231   4.226  19.247  0.00  0.00    +0.000 A 
ATOM     16  N   UNL     1       4.870   2.969  19.533  0.00  0.00    +0.000 NA
ATOM     17  C   UNL     1       3.626   2.824  20.022  0.00  0.00    +0.000 A 
ATOM     18  C   UNL     1       2.748   3.865  20.229  0.00  0.00    +0.000 A 
ATOM     19 CL   UNL     1       1.192   3.467  20.841  0.00  0.00    +0.000 Cl
ATOM     20  C   UNL     1       3.212   5.140  19.905  0.00  0.00    +0.000 A 
ATOM     21  N   UNL     1       4.461   5.314  19.418  0.00  0.00    +0.000 NA
BRANCH  15  23
ATOM     22  C   UNL     1       6.502   4.553  17.318  0.00  0.00    +0.000 C 
ATOM     23  O   UNL     1       6.490   4.467  18.739  0.00  0.00    +0.000 OA
ENDBRANCH  15  23
ENDBRANCH  13  20
ENDBRANCH   1  13
TORSDOF 5
ENDMDL
MODEL 9
REMARK VINA RESULT:      -7.1      2.814      4.671
REMARK  Name = 
REMARK  8 active torsions:
REMARK  status: ('A' for Active; 'I' for Inactive)
REMARK    1  A    between atoms: C_1  and  O_2
REMARK    2  A    between atoms: O_2  and  C_3
REMARK    3  A    between atoms: C_8  and  N_9
REMARK    4  A    between atoms: N_9  and  C_10
REMARK    5  A    between atoms: C_10  and  C_11
REMARK    6  A    between atoms: C_14  and  C_15
REMARK    7  A    between atoms: N_17  and  C_18
REMARK    8  A    between atoms: N_17  and  C_19
REMARK                            x       y       z     vdW  Elec       q    Type
REMARK                         _______ _______ _______ _____ _____    ______ ____
ROOT
ATOM      1  C   UNL     1       2.262   7.457  19.302  0.00  0.00    +0.000 C 
ENDROOT
BRANCH   1   2
ATOM      2  C   UNL     1       1.415   8.528  19.955  0.00  0.00    +0.000 A 
ATOM      3  C   UNL     1       0.883   8.325  21.233  0.00  0.00    +0.000 A 
ATOM      4  C   UNL     1       0.111   9.317  21.844  0.00  0.00    +0.000 A 
ATOM      5  C   UNL     1      -0.148  10.541  21.201  0.00  0.00    +0.000 A 
ATOM      6  C   UNL     1       0.431  10.757  19.948  0.00  0.00    +0.000 A 
ATOM      7  C   UNL     1       1.168   9.746  19.312  0.00  0.00    +0.000 A 
BRANCH   5   8
ATOM      8  C   UNL     1      -0.916  11.562  21.981  0.00  0.00    +0.000 C 
ATOM      9  O   UNL     1      -0.667  11.600  23.190  0.00  0.00    +0.000 OA
ATOM     10  N   UNL     1      -1.877  12.416  21.418  0.00  0.00    +0.000 N 
ATOM     11  C   UNL     1      -2.482  12.329  20.097  0.00  0.00    +0.000 C 
ATOM     12  C   UNL     1      -2.622  13.261  22.348  0.00  0.00    +0.000 C 
ENDBRANCH   5   8
ENDBRANCH   1   2
BRANCH   1  13
ATOM     13  N   UNL     1       2.639   6.460  20.283  0.00  0.00    +0.000 N 
ATOM     14  H   UNL     1       1.934   6.291  20.999  0.00  0.00    +0.000 HD
BRANCH  13  20
ATOM     15  C   UNL     1       5.070   4.214  19.084  0.00  0.00    +0.000 A 
ATOM     16  N   UNL     1       4.506   3.003  19.004  0.00  0.00    +0.000 NA
ATOM     17  C   UNL     1       3.227   2.935  19.410  0.00  0.00    +0.000 A 
ATOM     18  C   UNL     1       2.505   4.010  19.881  0.00  0.00    +0.000 A 
ATOM     19 CL   UNL     1       0.872   3.720  20.331  0.00  0.00    +0.000 Cl
ATOM     20  C   UNL     1       3.176   5.232  19.931  0.00  0.00    +0.000 A 
ATOM     21  N   UNL     1       4.465   5.325  19.534  0.00  0.00    +0.000 NA
BRANCH  15  23
ATOM     22  C   UNL     1       6.510   4.552  17.278  0.00  0.00    +0.000 C 
ATOM     23  O   UNL     1       6.381   4.374  18.685  0.00  0.00    +0.000 OA
ENDBRANCH  15  23
ENDBRANCH  13  20
ENDBRANCH   1  13
TORSDOF 5
ENDMDL
