MODEL 1
REMARK VINA RESULT:      -8.9      0.000      0.000
REMARK  Name = 
REMARK  3 active torsions:
REMARK  status: ('A' for Active; 'I' for Inactive)
REMARK    1  A    between atoms: C_1  and  C_2
REMARK    2  A    between atoms: C_2  and  C_3
REMARK    3  A    between atoms: C_13  and  C_14
REMARK                            x       y       z     vdW  Elec       q    Type
REMARK                         _______ _______ _______ _____ _____    ______ ____
ROOT
ATOM      1  C   UNL     1       5.415   5.492  15.199  0.00  0.00    +0.000 C 
ATOM      2  C   UNL     1       5.352   4.939  16.639  0.00  0.00    +0.000 C 
ATOM      3  C   UNL     1       6.799   4.548  17.028  0.00  0.00    +0.000 C 
ATOM      4  C   UNL     1       4.439   3.701  16.629  0.00  0.00    +0.000 C 
ATOM      5  N   UNL     1       4.657   2.881  17.793  0.00  0.00    +0.000 N 
ATOM      6  C   UNL     1       4.472   3.261  19.090  0.00  0.00    +0.000 C 
ATOM      7  O   UNL     1       4.833   2.504  19.986  0.00  0.00    +0.000 OA
ATOM      8  C   UNL     1       3.783   4.506  19.328  0.00  0.00    +0.000 A 
ATOM      9  C   UNL     1       2.842   4.676  20.329  0.00  0.00    +0.000 A 
ATOM     10  C   UNL     1       2.283   5.962  20.206  0.00  0.00    +0.000 A 
ATOM     11  C   UNL     1       1.257   6.632  20.880  0.00  0.00    +0.000 A 
ATOM     12  C   UNL     1       0.972   7.929  20.480  0.00  0.00    +0.000 A 
ATOM     13  C   UNL     1       1.714   8.506  19.450  0.00  0.00    +0.000 A 
ATOM     14  N   UNL     1       2.725   7.891  18.744  0.00  0.00    +0.000 NA
ATOM     15  C   UNL     1       2.950   6.614  19.168  0.00  0.00    +0.000 A 
ATOM     16  N   UNL     1       3.875   5.710  18.648  0.00  0.00    +0.000 N 
ATOM     17  C   UNL     1       4.815   6.055  17.588  0.00  0.00    +0.000 C 
ATOM     18  H   UNL     1       5.131   1.991  17.699  0.00  0.00    +0.000 HD
ENDROOT
BRANCH  13  19
ATOM     19  C   UNL     1       1.355   9.926  19.081  0.00  0.00    +0.000 C 
ATOM     20  O   UNL     1       1.792  10.385  18.029  0.00  0.00    +0.000 OA
ATOM     21  N   UNL     1       0.552  10.584  19.993  0.00  0.00    +0.000 N 
ATOM     22  C   UNL     1       0.186  11.901  19.809  0.00  0.00    +0.000 A 
ATOM     23  N   UNL     1       0.487  12.710  18.818  0.00  0.00    +0.000 NA
ATOM     24  C   UNL     1      -0.073  13.925  19.116  0.00  0.00    +0.000 A 
ATOM     25  C   UNL     1      -0.041  15.132  18.402  0.00  0.00    +0.000 A 
ATOM     26  C   UNL     1      -0.686  16.242  18.952  0.00  0.00    +0.000 A 
ATOM     27 CL   UNL     1      -0.656  17.744  18.108  0.00  0.00    +0.000 Cl
ATOM     28  C   UNL     1      -1.352  16.162  20.179  0.00  0.00    +0.000 A 
ATOM     29  C   UNL     1      -1.404  14.961  20.897  0.00  0.00    +0.000 A 
ATOM     30  C   UNL     1      -0.751  13.865  20.329  0.00  0.00    +0.000 A 
ATOM     31  N   UNL     1      -0.588  12.564  20.735  0.00  0.00    +0.000 N 
ATOM     32  H   UNL     1       0.271  10.061  20.811  0.00  0.00    +0.000 HD
ATOM     33  H   UNL     1      -0.961  12.159  21.578  0.00  0.00    +0.000 HD
ENDBRANCH  13  19
TORSDOF 1
ENDMDL
MODEL 2
REMARK VINA RESULT:      -8.7      4.016      9.984
REMARK  Name = 
REMARK  3 active torsions:
REMARK  status: ('A' for Active; 'I' for Inactive)
REMARK    1  A    between atoms: C_1  and  C_2
REMARK    2  A    between atoms: C_2  and  C_3
REMARK    3  A    between atoms: C_13  and  C_14
REMARK                            x       y       z     vdW  Elec       q    Type
REMARK                         _______ _______ _______ _____ _____    ______ ____
ROOT
ATOM      1  C   UNL     1       5.081  15.359  18.034  0.00  0.00    +0.000 C 
ATOM      2  C   UNL     1       3.580  15.712  18.098  0.00  0.00    +0.000 C 
ATOM      3  C   UNL     1       3.307  16.705  16.942  0.00  0.00    +0.000 C 
ATOM      4  C   UNL     1       3.310  16.376  19.459  0.00  0.00    +0.000 C 
ATOM      5  N   UNL     1       2.074  17.115  19.445  0.00  0.00    +0.000 N 
ATOM      6  C   UNL     1       0.831  16.600  19.218  0.00  0.00    +0.000 C 
ATOM      7  O   UNL     1      -0.115  17.370  19.094  0.00  0.00    +0.000 OA
ATOM      8  C   UNL     1       0.696  15.163  19.220  0.00  0.00    +0.000 A 
ATOM      9  C   UNL     1      -0.372  14.501  19.800  0.00  0.00    +0.000 A 
ATOM     10  C   UNL     1      -0.133  13.115  19.730  0.00  0.00    +0.000 A 
ATOM     11  C   UNL     1      -0.818  11.996  20.213  0.00  0.00    +0.000 A 
ATOM     12  C   UNL     1      -0.273  10.749  19.944  0.00  0.00    +0.000 A 
ATOM     13  C   UNL     1       0.907  10.663  19.204  0.00  0.00    +0.000 A 
ATOM     14  N   UNL     1       1.629  11.729  18.715  0.00  0.00    +0.000 NA
ATOM     15  C   UNL     1       1.057  12.929  19.024  0.00  0.00    +0.000 A 
ATOM     16  N   UNL     1       1.545  14.195  18.709  0.00  0.00    +0.000 N 
ATOM     17  C   UNL     1       2.744  14.409  17.906  0.00  0.00    +0.000 C 
ATOM     18  H   UNL     1       2.095  18.128  19.447  0.00  0.00    +0.000 HD
ENDROOT
BRANCH  13  19
ATOM     19  C   UNL     1       1.430   9.271  18.939  0.00  0.00    +0.000 C 
ATOM     20  O   UNL     1       1.783   8.988  17.797  0.00  0.00    +0.000 OA
ATOM     21  N   UNL     1       1.454   8.434  20.038  0.00  0.00    +0.000 N 
ATOM     22  C   UNL     1       1.860   7.121  19.932  0.00  0.00    +0.000 A 
ATOM     23  N   UNL     1       2.280   6.471  18.869  0.00  0.00    +0.000 NA
ATOM     24  C   UNL     1       2.522   5.181  19.265  0.00  0.00    +0.000 A 
ATOM     25  C   UNL     1       2.969   4.078  18.523  0.00  0.00    +0.000 A 
ATOM     26  C   UNL     1       3.111   2.853  19.178  0.00  0.00    +0.000 A 
ATOM     27 CL   UNL     1       3.646   1.475  18.293  0.00  0.00    +0.000 Cl
ATOM     28  C   UNL     1       2.821   2.719  20.539  0.00  0.00    +0.000 A 
ATOM     29  C   UNL     1       2.386   3.814  21.297  0.00  0.00    +0.000 A 
ATOM     30  C   UNL     1       2.249   5.028  20.621  0.00  0.00    +0.000 A 
ATOM     31  N   UNL     1       1.853   6.279  21.021  0.00  0.00    +0.000 N 
ATOM     32  H   UNL     1       1.133   8.824  20.913  0.00  0.00    +0.000 HD
ATOM     33  H   UNL     1       1.587   6.541  21.957  0.00  0.00    +0.000 HD
ENDBRANCH  13  19
TORSDOF 1
ENDMDL
MODEL 3
REMARK VINA RESULT:      -8.7      6.337      7.491
REMARK  Name = 
REMARK  3 active torsions:
REMARK  status: ('A' for Active; 'I' for Inactive)
REMARK    1  A    between atoms: C_1  and  C_2
REMARK    2  A    between atoms: C_2  and  C_3
REMARK    3  A    between atoms: C_13  and  C_14
REMARK                            x       y       z     vdW  Elec       q    Type
REMARK                         _______ _______ _______ _____ _____    ______ ____
ROOT
ATOM      1  C   UNL     1       2.584   4.154  21.867  0.00  0.00    +0.000 C 
ATOM      2  C   UNL     1       2.391   3.800  20.377  0.00  0.00    +0.000 C 
ATOM      3  C   UNL     1       0.884   3.982  20.069  0.00  0.00    +0.000 C 
ATOM      4  C   UNL     1       2.811   2.333  20.182  0.00  0.00    +0.000 C 
ATOM      5  N   UNL     1       2.273   1.793  18.961  0.00  0.00    +0.000 N 
ATOM      6  C   UNL     1       2.527   2.248  17.700  0.00  0.00    +0.000 C 
ATOM      7  O   UNL     1       1.887   1.780  16.763  0.00  0.00    +0.000 OA
ATOM      8  C   UNL     1       3.598   3.200  17.538  0.00  0.00    +0.000 A 
ATOM      9  C   UNL     1       4.496   3.163  16.486  0.00  0.00    +0.000 A 
ATOM     10  C   UNL     1       5.476   4.152  16.696  0.00  0.00    +0.000 A 
ATOM     11  C   UNL     1       6.642   4.510  16.014  0.00  0.00    +0.000 A 
ATOM     12  C   UNL     1       7.380   5.568  16.522  0.00  0.00    +0.000 A 
ATOM     13  C   UNL     1       6.929   6.230  17.665  0.00  0.00    +0.000 A 
ATOM     14  N   UNL     1       5.797   5.914  18.383  0.00  0.00    +0.000 NA
ATOM     15  C   UNL     1       5.122   4.856  17.848  0.00  0.00    +0.000 A 
ATOM     16  N   UNL     1       3.961   4.266  18.345  0.00  0.00    +0.000 N 
ATOM     17  C   UNL     1       3.245   4.776  19.509  0.00  0.00    +0.000 C 
ATOM     18  H   UNL     1       1.521   1.115  19.000  0.00  0.00    +0.000 HD
ENDROOT
BRANCH  13  19
ATOM     19  C   UNL     1       7.778   7.382  18.149  0.00  0.00    +0.000 C 
ATOM     20  O   UNL     1       8.601   7.167  19.036  0.00  0.00    +0.000 OA
ATOM     21  N   UNL     1       7.532   8.593  17.532  0.00  0.00    +0.000 N 
ATOM     22  C   UNL     1       8.199   9.740  17.908  0.00  0.00    +0.000 A 
ATOM     23  N   UNL     1       9.123   9.891  18.830  0.00  0.00    +0.000 NA
ATOM     24  C   UNL     1       9.438  11.225  18.857  0.00  0.00    +0.000 A 
ATOM     25  C   UNL     1      10.351  11.920  19.665  0.00  0.00    +0.000 A 
ATOM     26  C   UNL     1      10.461  13.302  19.499  0.00  0.00    +0.000 A 
ATOM     27 CL   UNL     1      11.563  14.188  20.484  0.00  0.00    +0.000 Cl
ATOM     28  C   UNL     1       9.692  13.984  18.553  0.00  0.00    +0.000 A 
ATOM     29  C   UNL     1       8.785  13.303  17.730  0.00  0.00    +0.000 A 
ATOM     30  C   UNL     1       8.690  11.922  17.915  0.00  0.00    +0.000 A 
ATOM     31  N   UNL     1       7.929  10.952  17.314  0.00  0.00    +0.000 N 
ATOM     32  H   UNL     1       6.822   8.600  16.813  0.00  0.00    +0.000 HD
ATOM     33  H   UNL     1       7.270  11.099  16.566  0.00  0.00    +0.000 HD
ENDBRANCH  13  19
TORSDOF 1
ENDMDL
MODEL 4
REMARK VINA RESULT:      -8.6      3.629      9.987
REMARK  Name = 
REMARK  3 active torsions:
REMARK  status: ('A' for Active; 'I' for Inactive)
REMARK    1  A    between atoms: C_1  and  C_2
REMARK    2  A    between atoms: C_2  and  C_3
REMARK    3  A    between atoms: C_13  and  C_14
REMARK                            x       y       z     vdW  Elec       q    Type
REMARK                         _______ _______ _______ _____ _____    ______ ____
ROOT
ATOM      1  C   UNL     1       0.791  15.754  20.412  0.00  0.00    +0.000 C 
ATOM      2  C   UNL     1      -0.364  14.987  21.089  0.00  0.00    +0.000 C 
ATOM      3  C   UNL     1      -1.674  15.711  20.688  0.00  0.00    +0.000 C 
ATOM      4  C   UNL     1      -0.150  15.055  22.611  0.00  0.00    +0.000 C 
ATOM      5  N   UNL     1      -1.364  14.758  23.324  0.00  0.00    +0.000 N 
ATOM      6  C   UNL     1      -2.064  13.587  23.269  0.00  0.00    +0.000 C 
ATOM      7  O   UNL     1      -3.158  13.526  23.820  0.00  0.00    +0.000 OA
ATOM      8  C   UNL     1      -1.428  12.461  22.629  0.00  0.00    +0.000 A 
ATOM      9  C   UNL     1      -1.501  11.168  23.117  0.00  0.00    +0.000 A 
ATOM     10  C   UNL     1      -0.677  10.343  22.328  0.00  0.00    +0.000 A 
ATOM     11  C   UNL     1      -0.313   8.995  22.402  0.00  0.00    +0.000 A 
ATOM     12  C   UNL     1       0.539   8.509  21.423  0.00  0.00    +0.000 A 
ATOM     13  C   UNL     1       0.980   9.366  20.413  0.00  0.00    +0.000 A 
ATOM     14  N   UNL     1       0.664  10.701  20.297  0.00  0.00    +0.000 NA
ATOM     15  C   UNL     1      -0.161  11.128  21.296  0.00  0.00    +0.000 A 
ATOM     16  N   UNL     1      -0.642  12.422  21.489  0.00  0.00    +0.000 N 
ATOM     17  C   UNL     1      -0.373  13.517  20.564  0.00  0.00    +0.000 C 
ATOM     18  H   UNL     1      -1.861  15.500  23.802  0.00  0.00    +0.000 HD
ENDROOT
BRANCH  13  19
ATOM     19  C   UNL     1       1.894   8.760  19.374  0.00  0.00    +0.000 C 
ATOM     20  O   UNL     1       2.219   9.448  18.410  0.00  0.00    +0.000 OA
ATOM     21  N   UNL     1       2.277   7.455  19.619  0.00  0.00    +0.000 N 
ATOM     22  C   UNL     1       3.070   6.760  18.730  0.00  0.00    +0.000 A 
ATOM     23  N   UNL     1       3.581   7.167  17.589  0.00  0.00    +0.000 NA
ATOM     24  C   UNL     1       4.254   6.098  17.055  0.00  0.00    +0.000 A 
ATOM     25  C   UNL     1       4.962   5.990  15.849  0.00  0.00    +0.000 A 
ATOM     26  C   UNL     1       5.542   4.760  15.531  0.00  0.00    +0.000 A 
ATOM     27 CL   UNL     1       6.409   4.589  14.052  0.00  0.00    +0.000 Cl
ATOM     28  C   UNL     1       5.428   3.660  16.387  0.00  0.00    +0.000 A 
ATOM     29  C   UNL     1       4.734   3.756  17.600  0.00  0.00    +0.000 A 
ATOM     30  C   UNL     1       4.161   4.994  17.896  0.00  0.00    +0.000 A 
ATOM     31  N   UNL     1       3.424   5.450  18.959  0.00  0.00    +0.000 N 
ATOM     32  H   UNL     1       1.925   7.029  20.465  0.00  0.00    +0.000 HD
ATOM     33  H   UNL     1       3.170   4.913  19.773  0.00  0.00    +0.000 HD
ENDBRANCH  13  19
TORSDOF 1
ENDMDL
MODEL 5
REMARK VINA RESULT:      -8.6      3.793     10.338
REMARK  Name = 
REMARK  3 active torsions:
REMARK  status: ('A' for Active; 'I' for Inactive)
REMARK    1  A    between atoms: C_1  and  C_2
REMARK    2  A    between atoms: C_2  and  C_3
REMARK    3  A    between atoms: C_13  and  C_14
REMARK                            x       y       z     vdW  Elec       q    Type
REMARK                         _______ _______ _______ _____ _____    ______ ____
ROOT
ATOM      1  C   UNL     1       0.530  16.418  19.810  0.00  0.00    +0.000 C 
ATOM      2  C   UNL     1      -0.656  15.885  20.642  0.00  0.00    +0.000 C 
ATOM      3  C   UNL     1      -1.925  16.600  20.116  0.00  0.00    +0.000 C 
ATOM      4  C   UNL     1      -0.399  16.247  22.115  0.00  0.00    +0.000 C 
ATOM      5  N   UNL     1      -1.613  16.184  22.888  0.00  0.00    +0.000 N 
ATOM      6  C   UNL     1      -2.387  15.077  23.081  0.00  0.00    +0.000 C 
ATOM      7  O   UNL     1      -3.470  15.204  23.645  0.00  0.00    +0.000 OA
ATOM      8  C   UNL     1      -1.841  13.804  22.678  0.00  0.00    +0.000 A 
ATOM      9  C   UNL     1      -1.985  12.645  23.421  0.00  0.00    +0.000 A 
ATOM     10  C   UNL     1      -1.236  11.623  22.809  0.00  0.00    +0.000 A 
ATOM     11  C   UNL     1      -0.957  10.297  23.153  0.00  0.00    +0.000 A 
ATOM     12  C   UNL     1      -0.163   9.565  22.285  0.00  0.00    +0.000 A 
ATOM     13  C   UNL     1       0.307  10.166  21.117  0.00  0.00    +0.000 A 
ATOM     14  N   UNL     1       0.075  11.468  20.732  0.00  0.00    +0.000 NA
ATOM     15  C   UNL     1      -0.696  12.144  21.632  0.00  0.00    +0.000 A 
ATOM     16  N   UNL     1      -1.087  13.480  21.562  0.00  0.00    +0.000 N 
ATOM     17  C   UNL     1      -0.772  14.343  20.429  0.00  0.00    +0.000 C 
ATOM     18  H   UNL     1      -2.049  17.040  23.209  0.00  0.00    +0.000 HD
ENDROOT
BRANCH  13  19
ATOM     19  C   UNL     1       1.154   9.300  20.213  0.00  0.00    +0.000 C 
ATOM     20  O   UNL     1       1.453   9.732  19.103  0.00  0.00    +0.000 OA
ATOM     21  N   UNL     1       1.512   8.075  20.742  0.00  0.00    +0.000 N 
ATOM     22  C   UNL     1       2.243   7.162  20.010  0.00  0.00    +0.000 A 
ATOM     23  N   UNL     1       2.711   7.273  18.787  0.00  0.00    +0.000 NA
ATOM     24  C   UNL     1       3.328   6.084  18.492  0.00  0.00    +0.000 A 
ATOM     25  C   UNL     1       3.976   5.672  17.318  0.00  0.00    +0.000 A 
ATOM     26  C   UNL     1       4.506   4.380  17.275  0.00  0.00    +0.000 A 
ATOM     27 CL   UNL     1       5.298   3.837  15.845  0.00  0.00    +0.000 Cl
ATOM     28  C   UNL     1       4.403   3.515  18.368  0.00  0.00    +0.000 A 
ATOM     29  C   UNL     1       3.769   3.917  19.551  0.00  0.00    +0.000 A 
ATOM     30  C   UNL     1       3.245   5.211  19.571  0.00  0.00    +0.000 A 
ATOM     31  N   UNL     1       2.571   5.929  20.526  0.00  0.00    +0.000 N 
ATOM     32  H   UNL     1       1.189   7.871  21.678  0.00  0.00    +0.000 HD
ATOM     33  H   UNL     1       2.341   5.607  21.452  0.00  0.00    +0.000 HD
ENDBRANCH  13  19
TORSDOF 1
ENDMDL
MODEL 6
REMARK VINA RESULT:      -8.6      4.122     10.014
REMARK  Name = 
REMARK  3 active torsions:
REMARK  status: ('A' for Active; 'I' for Inactive)
REMARK    1  A    between atoms: C_1  and  C_2
REMARK    2  A    between atoms: C_2  and  C_3
REMARK    3  A    between atoms: C_13  and  C_14
REMARK                            x       y       z     vdW  Elec       q    Type
REMARK                         _______ _______ _______ _____ _____    ______ ____
ROOT
ATOM      1  C   UNL     1       5.283  15.187  20.552  0.00  0.00    +0.000 C 
ATOM      2  C   UNL     1       4.042  15.700  19.791  0.00  0.00    +0.000 C 
ATOM      3  C   UNL     1       4.536  16.811  18.831  0.00  0.00    +0.000 C 
ATOM      4  C   UNL     1       3.058  16.274  20.825  0.00  0.00    +0.000 C 
ATOM      5  N   UNL     1       2.095  17.146  20.204  0.00  0.00    +0.000 N 
ATOM      6  C   UNL     1       1.195  16.794  19.240  0.00  0.00    +0.000 C 
ATOM      7  O   UNL     1       0.532  17.674  18.700  0.00  0.00    +0.000 OA
ATOM      8  C   UNL     1       1.023  15.387  18.973  0.00  0.00    +0.000 A 
ATOM      9  C   UNL     1      -0.210  14.802  18.742  0.00  0.00    +0.000 A 
ATOM     10  C   UNL     1      -0.035  13.409  18.638  0.00  0.00    +0.000 A 
ATOM     11  C   UNL     1      -0.920  12.337  18.487  0.00  0.00    +0.000 A 
ATOM     12  C   UNL     1      -0.375  11.065  18.415  0.00  0.00    +0.000 A 
ATOM     13  C   UNL     1       1.010  10.909  18.482  0.00  0.00    +0.000 A 
ATOM     14  N   UNL     1       1.927  11.924  18.641  0.00  0.00    +0.000 NA
ATOM     15  C   UNL     1       1.334  13.150  18.724  0.00  0.00    +0.000 A 
ATOM     16  N   UNL     1       1.968  14.376  18.917  0.00  0.00    +0.000 N 
ATOM     17  C   UNL     1       3.419  14.520  18.983  0.00  0.00    +0.000 C 
ATOM     18  H   UNL     1       2.154  18.146  20.352  0.00  0.00    +0.000 HD
ENDROOT
BRANCH  13  19
ATOM     19  C   UNL     1       1.529   9.494  18.382  0.00  0.00    +0.000 C 
ATOM     20  O   UNL     1       1.935   9.097  17.292  0.00  0.00    +0.000 OA
ATOM     21  N   UNL     1       1.490   8.769  19.557  0.00  0.00    +0.000 N 
ATOM     22  C   UNL     1       1.886   7.449  19.602  0.00  0.00    +0.000 A 
ATOM     23  N   UNL     1       2.349   6.695  18.630  0.00  0.00    +0.000 NA
ATOM     24  C   UNL     1       2.557   5.449  19.163  0.00  0.00    +0.000 A 
ATOM     25  C   UNL     1       3.027   4.275  18.556  0.00  0.00    +0.000 A 
ATOM     26  C   UNL     1       3.122   3.120  19.336  0.00  0.00    +0.000 A 
ATOM     27 CL   UNL     1       3.684   1.658  18.618  0.00  0.00    +0.000 Cl
ATOM     28  C   UNL     1       2.765   3.124  20.687  0.00  0.00    +0.000 A 
ATOM     29  C   UNL     1       2.305   4.291  21.311  0.00  0.00    +0.000 A 
ATOM     30  C   UNL     1       2.216   5.432  20.512  0.00  0.00    +0.000 A 
ATOM     31  N   UNL     1       1.816   6.720  20.767  0.00  0.00    +0.000 N 
ATOM     32  H   UNL     1       1.131   9.246  20.373  0.00  0.00    +0.000 HD
ATOM     33  H   UNL     1       1.507   7.075  21.657  0.00  0.00    +0.000 HD
ENDBRANCH  13  19
TORSDOF 1
ENDMDL
MODEL 7
REMARK VINA RESULT:      -8.5      3.953      9.964
REMARK  Name = 
REMARK  3 active torsions:
REMARK  status: ('A' for Active; 'I' for Inactive)
REMARK    1  A    between atoms: C_1  and  C_2
REMARK    2  A    between atoms: C_2  and  C_3
REMARK    3  A    between atoms: C_13  and  C_14
REMARK                            x       y       z     vdW  Elec       q    Type
REMARK                         _______ _______ _______ _____ _____    ______ ____
ROOT
ATOM      1  C   UNL     1       4.925  15.087  18.404  0.00  0.00    +0.000 C 
ATOM      2  C   UNL     1       3.439  15.450  18.197  0.00  0.00    +0.000 C 
ATOM      3  C   UNL     1       3.346  16.183  16.836  0.00  0.00    +0.000 C 
ATOM      4  C   UNL     1       3.016  16.382  19.346  0.00  0.00    +0.000 C 
ATOM      5  N   UNL     1       1.815  17.106  19.017  0.00  0.00    +0.000 N 
ATOM      6  C   UNL     1       0.597  16.558  18.740  0.00  0.00    +0.000 C 
ATOM      7  O   UNL     1      -0.303  17.289  18.337  0.00  0.00    +0.000 OA
ATOM      8  C   UNL     1       0.419  15.154  19.018  0.00  0.00    +0.000 A 
ATOM      9  C   UNL     1      -0.734  14.629  19.575  0.00  0.00    +0.000 A 
ATOM     10  C   UNL     1      -0.529  13.258  19.822  0.00  0.00    +0.000 A 
ATOM     11  C   UNL     1      -1.304  12.265  20.430  0.00  0.00    +0.000 A 
ATOM     12  C   UNL     1      -0.767  10.988  20.496  0.00  0.00    +0.000 A 
ATOM     13  C   UNL     1       0.495  10.748  19.952  0.00  0.00    +0.000 A 
ATOM     14  N   UNL     1       1.305  11.687  19.354  0.00  0.00    +0.000 NA
ATOM     15  C   UNL     1       0.735  12.926  19.333  0.00  0.00    +0.000 A 
ATOM     16  N   UNL     1       1.297  14.098  18.832  0.00  0.00    +0.000 N 
ATOM     17  C   UNL     1       2.595  14.138  18.167  0.00  0.00    +0.000 C 
ATOM     18  H   UNL     1       1.866  18.097  18.815  0.00  0.00    +0.000 HD
ENDROOT
BRANCH  13  19
ATOM     19  C   UNL     1       1.005   9.329  20.049  0.00  0.00    +0.000 C 
ATOM     20  O   UNL     1       0.773   8.694  21.074  0.00  0.00    +0.000 OA
ATOM     21  N   UNL     1       1.705   8.880  18.945  0.00  0.00    +0.000 N 
ATOM     22  C   UNL     1       2.271   7.623  18.915  0.00  0.00    +0.000 A 
ATOM     23  N   UNL     1       2.246   6.686  19.837  0.00  0.00    +0.000 NA
ATOM     24  C   UNL     1       2.988   5.639  19.355  0.00  0.00    +0.000 A 
ATOM     25  C   UNL     1       3.292   4.402  19.943  0.00  0.00    +0.000 A 
ATOM     26  C   UNL     1       4.101   3.513  19.233  0.00  0.00    +0.000 A 
ATOM     27 CL   UNL     1       4.503   1.990  19.932  0.00  0.00    +0.000 Cl
ATOM     28  C   UNL     1       4.597   3.835  17.966  0.00  0.00    +0.000 A 
ATOM     29  C   UNL     1       4.292   5.061  17.360  0.00  0.00    +0.000 A 
ATOM     30  C   UNL     1       3.484   5.934  18.089  0.00  0.00    +0.000 A 
ATOM     31  N   UNL     1       2.995   7.189  17.828  0.00  0.00    +0.000 N 
ATOM     32  H   UNL     1       1.805   9.528  18.176  0.00  0.00    +0.000 HD
ATOM     33  H   UNL     1       3.148   7.717  16.984  0.00  0.00    +0.000 HD
ENDBRANCH  13  19
TORSDOF 1
ENDMDL
MODEL 8
REMARK VINA RESULT:      -8.4      2.720      3.758
REMARK  Name = 
REMARK  3 active torsions:
REMARK  status: ('A' for Active; 'I' for Inactive)
REMARK    1  A    between atoms: C_1  and  C_2
REMARK    2  A    between atoms: C_2  and  C_3
REMARK    3  A    between atoms: C_13  and  C_14
REMARK                            x       y       z     vdW  Elec       q    Type
REMARK                         _______ _______ _______ _____ _____    ______ ____
ROOT
ATOM      1  C   UNL     1       2.329   2.867  21.646  0.00  0.00    +0.000 C 
ATOM      2  C   UNL     1       2.619   3.124  20.152  0.00  0.00    +0.000 C 
ATOM      3  C   UNL     1       2.008   1.935  19.370  0.00  0.00    +0.000 C 
ATOM      4  C   UNL     1       4.146   3.168  19.968  0.00  0.00    +0.000 C 
ATOM      5  N   UNL     1       4.513   2.970  18.590  0.00  0.00    +0.000 N 
ATOM      6  C   UNL     1       4.158   3.767  17.541  0.00  0.00    +0.000 C 
ATOM      7  O   UNL     1       4.424   3.398  16.401  0.00  0.00    +0.000 OA
ATOM      8  C   UNL     1       3.560   5.043  17.847  0.00  0.00    +0.000 A 
ATOM      9  C   UNL     1       3.862   6.209  17.165  0.00  0.00    +0.000 A 
ATOM     10  C   UNL     1       3.199   7.281  17.791  0.00  0.00    +0.000 A 
ATOM     11  C   UNL     1       3.200   8.664  17.585  0.00  0.00    +0.000 A 
ATOM     12  C   UNL     1       2.400   9.434  18.414  0.00  0.00    +0.000 A 
ATOM     13  C   UNL     1       1.630   8.808  19.396  0.00  0.00    +0.000 A 
ATOM     14  N   UNL     1       1.598   7.455  19.652  0.00  0.00    +0.000 NA
ATOM     15  C   UNL     1       2.417   6.750  18.818  0.00  0.00    +0.000 A 
ATOM     16  N   UNL     1       2.641   5.375  18.830  0.00  0.00    +0.000 N 
ATOM     17  C   UNL     1       1.939   4.462  19.726  0.00  0.00    +0.000 C 
ATOM     18  H   UNL     1       4.942   2.098  18.305  0.00  0.00    +0.000 HD
ENDROOT
BRANCH  13  19
ATOM     19  C   UNL     1       0.772   9.712  20.250  0.00  0.00    +0.000 C 
ATOM     20  O   UNL     1       1.010   9.774  21.454  0.00  0.00    +0.000 OA
ATOM     21  N   UNL     1      -0.222  10.390  19.573  0.00  0.00    +0.000 N 
ATOM     22  C   UNL     1      -1.110  11.212  20.234  0.00  0.00    +0.000 A 
ATOM     23  N   UNL     1      -1.172  11.497  21.516  0.00  0.00    +0.000 NA
ATOM     24  C   UNL     1      -2.255  12.321  21.685  0.00  0.00    +0.000 A 
ATOM     25  C   UNL     1      -2.773  12.900  22.853  0.00  0.00    +0.000 A 
ATOM     26  C   UNL     1      -3.918  13.693  22.745  0.00  0.00    +0.000 A 
ATOM     27 CL   UNL     1      -4.588  14.410  24.161  0.00  0.00    +0.000 Cl
ATOM     28  C   UNL     1      -4.537  13.912  21.511  0.00  0.00    +0.000 A 
ATOM     29  C   UNL     1      -4.024  13.350  20.334  0.00  0.00    +0.000 A 
ATOM     30  C   UNL     1      -2.880  12.560  20.466  0.00  0.00    +0.000 A 
ATOM     31  N   UNL     1      -2.120  11.863  19.562  0.00  0.00    +0.000 N 
ATOM     32  H   UNL     1      -0.282  10.233  18.576  0.00  0.00    +0.000 HD
ATOM     33  H   UNL     1      -2.278  11.820  18.568  0.00  0.00    +0.000 HD
ENDBRANCH  13  19
TORSDOF 1
ENDMDL
MODEL 9
REMARK VINA RESULT:      -8.4      2.554      3.680
REMARK  Name = 
REMARK  3 active torsions:
REMARK  status: ('A' for Active; 'I' for Inactive)
REMARK    1  A    between atoms: C_1  and  C_2
REMARK    2  A    between atoms: C_2  and  C_3
REMARK    3  A    between atoms: C_13  and  C_14
REMARK                            x       y       z     vdW  Elec       q    Type
REMARK                         _______ _______ _______ _____ _____    ______ ____
ROOT
ATOM      1  C   UNL     1       2.343   2.656  21.628  0.00  0.00    +0.000 C 
ATOM      2  C   UNL     1       2.594   2.968  20.138  0.00  0.00    +0.000 C 
ATOM      3  C   UNL     1       1.979   1.799  19.329  0.00  0.00    +0.000 C 
ATOM      4  C   UNL     1       4.115   3.038  19.920  0.00  0.00    +0.000 C 
ATOM      5  N   UNL     1       4.452   2.893  18.527  0.00  0.00    +0.000 N 
ATOM      6  C   UNL     1       4.063   3.721  17.515  0.00  0.00    +0.000 C 
ATOM      7  O   UNL     1       4.305   3.396  16.357  0.00  0.00    +0.000 OA
ATOM      8  C   UNL     1       3.456   4.978  17.880  0.00  0.00    +0.000 A 
ATOM      9  C   UNL     1       3.727   6.171  17.232  0.00  0.00    +0.000 A 
ATOM     10  C   UNL     1       3.066   7.212  17.911  0.00  0.00    +0.000 A 
ATOM     11  C   UNL     1       3.045   8.601  17.752  0.00  0.00    +0.000 A 
ATOM     12  C   UNL     1       2.255   9.331  18.627  0.00  0.00    +0.000 A 
ATOM     13  C   UNL     1       1.517   8.661  19.603  0.00  0.00    +0.000 A 
ATOM     14  N   UNL     1       1.508   7.300  19.813  0.00  0.00    +0.000 NA
ATOM     15  C   UNL     1       2.315   6.636  18.936  0.00  0.00    +0.000 A 
ATOM     16  N   UNL     1       2.556   5.264  18.895  0.00  0.00    +0.000 N 
ATOM     17  C   UNL     1       1.888   4.311  19.775  0.00  0.00    +0.000 C 
ATOM     18  H   UNL     1       4.885   2.037  18.202  0.00  0.00    +0.000 HD
ENDROOT
BRANCH  13  19
ATOM     19  C   UNL     1       0.669   9.523  20.509  0.00  0.00    +0.000 C 
ATOM     20  O   UNL     1      -0.250   8.992  21.127  0.00  0.00    +0.000 OA
ATOM     21  N   UNL     1       1.021  10.859  20.547  0.00  0.00    +0.000 N 
ATOM     22  C   UNL     1       0.303  11.770  21.292  0.00  0.00    +0.000 A 
ATOM     23  N   UNL     1      -0.748  11.566  22.054  0.00  0.00    +0.000 NA
ATOM     24  C   UNL     1      -1.123  12.791  22.545  0.00  0.00    +0.000 A 
ATOM     25  C   UNL     1      -2.187  13.135  23.391  0.00  0.00    +0.000 A 
ATOM     26  C   UNL     1      -2.359  14.481  23.723  0.00  0.00    +0.000 A 
ATOM     27 CL   UNL     1      -3.663  14.941  24.750  0.00  0.00    +0.000 Cl
ATOM     28  C   UNL     1      -1.496  15.466  23.233  0.00  0.00    +0.000 A 
ATOM     29  C   UNL     1      -0.421  15.136  22.397  0.00  0.00    +0.000 A 
ATOM     30  C   UNL     1      -0.271  13.785  22.077  0.00  0.00    +0.000 A 
ATOM     31  N   UNL     1       0.636  13.106  21.304  0.00  0.00    +0.000 N 
ATOM     32  H   UNL     1       1.811  11.137  19.980  0.00  0.00    +0.000 HD
ATOM     33  H   UNL     1       1.414  13.515  20.811  0.00  0.00    +0.000 HD
ENDBRANCH  13  19
TORSDOF 1
ENDMDL
