MODEL 1
REMARK VINA RESULT:      -8.8      0.000      0.000
REMARK  Name = 
REMARK  10 active torsions:
REMARK  status: ('A' for Active; 'I' for Inactive)
REMARK    1  A    between atoms: C_1  and  C_2
REMARK    2  A    between atoms: C_2  and  C_3
REMARK    3  A    between atoms: C_2  and  C_4
REMARK    4  A    between atoms: C_2  and  C_5
REMARK    5  A    between atoms: C_8  and  C_9
REMARK    6  A    between atoms: N_11  and  C_12
REMARK    7  A    between atoms: C_12  and  N_14
REMARK    8  A    between atoms: N_14  and  N_15
REMARK    9  A    between atoms: C_16  and  C_18
REMARK   10  A    between atoms: C_22  and  N_23
REMARK                            x       y       z     vdW  Elec       q    Type
REMARK                         _______ _______ _______ _____ _____    ______ ____
ROOT
ATOM      1  C   UNL     1       4.173   3.490  18.637  0.00  0.00    +0.000 C 
ATOM      2  S   UNL     1       3.725   1.893  18.765  0.00  0.00    +0.000 S 
ENDROOT
BRANCH   1   5
ATOM      3  C   UNL     1       3.325   5.822  18.277  0.00  0.00    +0.000 C 
ATOM      4  O   UNL     1       3.694   5.947  17.109  0.00  0.00    +0.000 OA
ATOM      5  N   UNL     1       3.452   4.633  18.986  0.00  0.00    +0.000 N 
ATOM      6  H   UNL     1       3.122   4.591  19.931  0.00  0.00    +0.000 HD
BRANCH   3  10
ATOM      7  C   UNL     1       1.091   9.224  19.853  0.00  0.00    +0.000 A 
ATOM      8  C   UNL     1       1.589   9.158  18.543  0.00  0.00    +0.000 A 
ATOM      9  C   UNL     1       2.308   8.051  18.085  0.00  0.00    +0.000 A 
ATOM     10  C   UNL     1       2.593   6.963  18.917  0.00  0.00    +0.000 A 
ATOM     11  C   UNL     1       2.142   7.021  20.240  0.00  0.00    +0.000 A 
ATOM     12  C   UNL     1       1.408   8.141  20.697  0.00  0.00    +0.000 A 
BRANCH   7  14
ATOM     13  C   UNL     1      -0.997  10.599  19.359  0.00  0.00    +0.000 C 
ATOM     14  C   UNL     1       0.221  10.422  20.301  0.00  0.00    +0.000 C 
ATOM     15  C   UNL     1       1.032  11.734  20.287  0.00  0.00    +0.000 C 
ATOM     16  C   UNL     1      -0.348  10.246  21.729  0.00  0.00    +0.000 C 
ENDBRANCH   7  14
ENDBRANCH   3  10
ENDBRANCH   1   5
BRANCH   1  17
ATOM     17  N   UNL     1       5.430   3.804  18.145  0.00  0.00    +0.000 N 
ATOM     18  H   UNL     1       5.971   4.520  18.633  0.00  0.00    +0.000 HD
BRANCH  17  19
ATOM     19  N   UNL     1       5.643   3.712  16.756  0.00  0.00    +0.000 N 
ATOM     20  C   UNL     1       6.473   4.631  16.142  0.00  0.00    +0.000 C 
ATOM     21  O   UNL     1       7.060   5.524  16.744  0.00  0.00    +0.000 OA
ATOM     22  H   UNL     1       5.153   2.974  16.258  0.00  0.00    +0.000 HD
BRANCH  20  23
ATOM     23  C   UNL     1       6.665   4.464  14.679  0.00  0.00    +0.000 A 
ATOM     24  C   UNL     1       7.655   5.248  14.062  0.00  0.00    +0.000 A 
ATOM     25  C   UNL     1       7.870   5.166  12.683  0.00  0.00    +0.000 A 
ATOM     26  C   UNL     1       7.089   4.314  11.905  0.00  0.00    +0.000 A 
ATOM     27  C   UNL     1       6.097   3.536  12.518  0.00  0.00    +0.000 A 
ATOM     28  C   UNL     1       5.883   3.598  13.907  0.00  0.00    +0.000 A 
BRANCH  27  29
ATOM     29  N   UNL     1       5.261   2.656  11.689  0.00  0.00    +0.000 N 
ATOM     30  O   UNL     1       5.719   1.552  11.375  0.00  0.00    +0.000 OA
ATOM     31  O   UNL     1       4.139   3.074  11.366  0.00  0.00    +0.000 OA
ENDBRANCH  27  29
ENDBRANCH  20  23
ENDBRANCH  17  19
ENDBRANCH   1  17
TORSDOF 7
ENDMDL
MODEL 2
REMARK VINA RESULT:      -8.5      0.991      1.443
REMARK  Name = 
REMARK  10 active torsions:
REMARK  status: ('A' for Active; 'I' for Inactive)
REMARK    1  A    between atoms: C_1  and  C_2
REMARK    2  A    between atoms: C_2  and  C_3
REMARK    3  A    between atoms: C_2  and  C_4
REMARK    4  A    between atoms: C_2  and  C_5
REMARK    5  A    between atoms: C_8  and  C_9
REMARK    6  A    between atoms: N_11  and  C_12
REMARK    7  A    between atoms: C_12  and  N_14
REMARK    8  A    between atoms: N_14  and  N_15
REMARK    9  A    between atoms: C_16  and  C_18
REMARK   10  A    between atoms: C_22  and  N_23
REMARK                            x       y       z     vdW  Elec       q    Type
REMARK                         _______ _______ _______ _____ _____    ______ ____
ROOT
ATOM      1  C   UNL     1       3.239   3.569  18.215  0.00  0.00    +0.000 C 
ATOM      2  S   UNL     1       2.421   2.121  18.206  0.00  0.00    +0.000 S 
ENDROOT
BRANCH   1   5
ATOM      3  C   UNL     1       3.251   5.885  19.178  0.00  0.00    +0.000 C 
ATOM      4  O   UNL     1       4.371   5.840  19.686  0.00  0.00    +0.000 OA
ATOM      5  N   UNL     1       2.736   4.860  18.393  0.00  0.00    +0.000 N 
ATOM      6  H   UNL     1       1.822   4.961  17.996  0.00  0.00    +0.000 HD
BRANCH   3  10
ATOM      7  C   UNL     1       0.897   9.560  19.244  0.00  0.00    +0.000 A 
ATOM      8  C   UNL     1       1.577   9.090  18.110  0.00  0.00    +0.000 A 
ATOM      9  C   UNL     1       2.327   7.911  18.139  0.00  0.00    +0.000 A 
ATOM     10  C   UNL     1       2.462   7.154  19.307  0.00  0.00    +0.000 A 
ATOM     11  C   UNL     1       1.827   7.622  20.462  0.00  0.00    +0.000 A 
ATOM     12  C   UNL     1       1.062   8.812  20.426  0.00  0.00    +0.000 A 
BRANCH   7  14
ATOM     13  C   UNL     1      -0.659  11.121  20.524  0.00  0.00    +0.000 C 
ATOM     14  C   UNL     1       0.002  10.817  19.154  0.00  0.00    +0.000 C 
ATOM     15  C   UNL     1      -1.121  10.628  18.113  0.00  0.00    +0.000 C 
ATOM     16  C   UNL     1       0.792  12.086  18.756  0.00  0.00    +0.000 C 
ENDBRANCH   7  14
ENDBRANCH   3  10
ENDBRANCH   1   5
BRANCH   1  17
ATOM     17  N   UNL     1       4.616   3.572  18.051  0.00  0.00    +0.000 N 
ATOM     18  H   UNL     1       5.174   4.133  18.697  0.00  0.00    +0.000 HD
BRANCH  17  19
ATOM     19  N   UNL     1       5.131   3.437  16.748  0.00  0.00    +0.000 N 
ATOM     20  C   UNL     1       5.430   4.576  16.024  0.00  0.00    +0.000 C 
ATOM     21  O   UNL     1       5.289   5.713  16.459  0.00  0.00    +0.000 OA
ATOM     22  H   UNL     1       5.243   2.493  16.388  0.00  0.00    +0.000 HD
BRANCH  20  23
ATOM     23  C   UNL     1       5.984   4.358  14.663  0.00  0.00    +0.000 A 
ATOM     24  C   UNL     1       7.107   5.118  14.293  0.00  0.00    +0.000 A 
ATOM     25  C   UNL     1       7.665   4.988  13.017  0.00  0.00    +0.000 A 
ATOM     26  C   UNL     1       7.097   4.113  12.094  0.00  0.00    +0.000 A 
ATOM     27  C   UNL     1       5.972   3.359  12.459  0.00  0.00    +0.000 A 
ATOM     28  C   UNL     1       5.414   3.469  13.746  0.00  0.00    +0.000 A 
BRANCH  27  29
ATOM     29  N   UNL     1       5.364   2.454  11.475  0.00  0.00    +0.000 N 
ATOM     30  O   UNL     1       4.236   2.736  11.052  0.00  0.00    +0.000 OA
ATOM     31  O   UNL     1       6.026   1.468  11.120  0.00  0.00    +0.000 OA
ENDBRANCH  27  29
ENDBRANCH  20  23
ENDBRANCH  17  19
ENDBRANCH   1  17
TORSDOF 7
ENDMDL
MODEL 3
REMARK VINA RESULT:      -8.5      0.807      1.033
REMARK  Name = 
REMARK  10 active torsions:
REMARK  status: ('A' for Active; 'I' for Inactive)
REMARK    1  A    between atoms: C_1  and  C_2
REMARK    2  A    between atoms: C_2  and  C_3
REMARK    3  A    between atoms: C_2  and  C_4
REMARK    4  A    between atoms: C_2  and  C_5
REMARK    5  A    between atoms: C_8  and  C_9
REMARK    6  A    between atoms: N_11  and  C_12
REMARK    7  A    between atoms: C_12  and  N_14
REMARK    8  A    between atoms: N_14  and  N_15
REMARK    9  A    between atoms: C_16  and  C_18
REMARK   10  A    between atoms: C_22  and  N_23
REMARK                            x       y       z     vdW  Elec       q    Type
REMARK                         _______ _______ _______ _____ _____    ______ ____
ROOT
ATOM      1  C   UNL     1       4.735   3.911  18.813  0.00  0.00    +0.000 C 
ATOM      2  S   UNL     1       4.228   2.339  19.007  0.00  0.00    +0.000 S 
ENDROOT
BRANCH   1   5
ATOM      3  C   UNL     1       2.863   5.545  18.476  0.00  0.00    +0.000 C 
ATOM      4  O   UNL     1       2.155   4.831  17.766  0.00  0.00    +0.000 OA
ATOM      5  N   UNL     1       4.039   5.094  19.064  0.00  0.00    +0.000 N 
ATOM      6  H   UNL     1       4.566   5.720  19.643  0.00  0.00    +0.000 HD
BRANCH   3  10
ATOM      7  C   UNL     1       1.337   9.572  19.189  0.00  0.00    +0.000 A 
ATOM      8  C   UNL     1       1.817   9.128  17.947  0.00  0.00    +0.000 A 
ATOM      9  C   UNL     1       2.306   7.831  17.768  0.00  0.00    +0.000 A 
ATOM     10  C   UNL     1       2.367   6.916  18.824  0.00  0.00    +0.000 A 
ATOM     11  C   UNL     1       1.933   7.346  20.083  0.00  0.00    +0.000 A 
ATOM     12  C   UNL     1       1.431   8.658  20.257  0.00  0.00    +0.000 A 
BRANCH   7  14
ATOM     13  C   UNL     1      -0.650  11.058  18.608  0.00  0.00    +0.000 C 
ATOM     14  C   UNL     1       0.719  10.982  19.332  0.00  0.00    +0.000 C 
ATOM     15  C   UNL     1       1.642  12.058  18.723  0.00  0.00    +0.000 C 
ATOM     16  C   UNL     1       0.461  11.375  20.805  0.00  0.00    +0.000 C 
ENDBRANCH   7  14
ENDBRANCH   3  10
ENDBRANCH   1   5
BRANCH   1  17
ATOM     17  N   UNL     1       6.024   4.158  18.363  0.00  0.00    +0.000 N 
ATOM     18  H   UNL     1       6.551   4.910  18.810  0.00  0.00    +0.000 HD
BRANCH  17  19
ATOM     19  N   UNL     1       6.310   3.928  17.004  0.00  0.00    +0.000 N 
ATOM     20  C   UNL     1       6.027   4.918  16.082  0.00  0.00    +0.000 C 
ATOM     21  O   UNL     1       5.552   6.008  16.381  0.00  0.00    +0.000 OA
ATOM     22  H   UNL     1       6.700   3.022  16.758  0.00  0.00    +0.000 HD
BRANCH  20  23
ATOM     23  C   UNL     1       6.369   4.613  14.670  0.00  0.00    +0.000 A 
ATOM     24  C   UNL     1       7.485   5.267  14.119  0.00  0.00    +0.000 A 
ATOM     25  C   UNL     1       7.848   5.052  12.785  0.00  0.00    +0.000 A 
ATOM     26  C   UNL     1       7.093   4.197  11.986  0.00  0.00    +0.000 A 
ATOM     27  C   UNL     1       5.977   3.548  12.533  0.00  0.00    +0.000 A 
ATOM     28  C   UNL     1       5.611   3.744  13.877  0.00  0.00    +0.000 A 
BRANCH  27  29
ATOM     29  N   UNL     1       5.171   2.665  11.679  0.00  0.00    +0.000 N 
ATOM     30  O   UNL     1       4.051   3.060  11.334  0.00  0.00    +0.000 OA
ATOM     31  O   UNL     1       5.670   1.580  11.348  0.00  0.00    +0.000 OA
ENDBRANCH  27  29
ENDBRANCH  20  23
ENDBRANCH  17  19
ENDBRANCH   1  17
TORSDOF 7
ENDMDL
MODEL 4
REMARK VINA RESULT:      -8.4      0.899      1.464
REMARK  Name = 
REMARK  10 active torsions:
REMARK  status: ('A' for Active; 'I' for Inactive)
REMARK    1  A    between atoms: C_1  and  C_2
REMARK    2  A    between atoms: C_2  and  C_3
REMARK    3  A    between atoms: C_2  and  C_4
REMARK    4  A    between atoms: C_2  and  C_5
REMARK    5  A    between atoms: C_8  and  C_9
REMARK    6  A    between atoms: N_11  and  C_12
REMARK    7  A    between atoms: C_12  and  N_14
REMARK    8  A    between atoms: N_14  and  N_15
REMARK    9  A    between atoms: C_16  and  C_18
REMARK   10  A    between atoms: C_22  and  N_23
REMARK                            x       y       z     vdW  Elec       q    Type
REMARK                         _______ _______ _______ _____ _____    ______ ____
ROOT
ATOM      1  C   UNL     1       3.290   3.462  18.249  0.00  0.00    +0.000 C 
ATOM      2  S   UNL     1       2.459   2.041  18.488  0.00  0.00    +0.000 S 
ENDROOT
BRANCH   1   5
ATOM      3  C   UNL     1       3.280   5.847  19.024  0.00  0.00    +0.000 C 
ATOM      4  O   UNL     1       4.345   5.819  19.640  0.00  0.00    +0.000 OA
ATOM      5  N   UNL     1       2.812   4.773  18.275  0.00  0.00    +0.000 N 
ATOM      6  H   UNL     1       1.943   4.862  17.785  0.00  0.00    +0.000 HD
BRANCH   3  10
ATOM      7  C   UNL     1       1.112   9.632  19.191  0.00  0.00    +0.000 A 
ATOM      8  C   UNL     1       1.215   8.744  20.273  0.00  0.00    +0.000 A 
ATOM      9  C   UNL     1       1.913   7.537  20.170  0.00  0.00    +0.000 A 
ATOM     10  C   UNL     1       2.521   7.139  18.975  0.00  0.00    +0.000 A 
ATOM     11  C   UNL     1       2.398   7.987  17.869  0.00  0.00    +0.000 A 
ATOM     12  C   UNL     1       1.698   9.212  17.980  0.00  0.00    +0.000 A 
BRANCH   7  14
ATOM     13  C   UNL     1       1.273  12.139  18.761  0.00  0.00    +0.000 C 
ATOM     14  C   UNL     1       0.412  10.999  19.365  0.00  0.00    +0.000 C 
ATOM     15  C   UNL     1       0.175  11.318  20.856  0.00  0.00    +0.000 C 
ATOM     16  C   UNL     1      -0.961  11.062  18.655  0.00  0.00    +0.000 C 
ENDBRANCH   7  14
ENDBRANCH   3  10
ENDBRANCH   1   5
BRANCH   1  17
ATOM     17  N   UNL     1       4.655   3.417  18.007  0.00  0.00    +0.000 N 
ATOM     18  H   UNL     1       5.273   3.907  18.656  0.00  0.00    +0.000 HD
BRANCH  17  19
ATOM     19  N   UNL     1       5.093   3.352  16.671  0.00  0.00    +0.000 N 
ATOM     20  C   UNL     1       5.718   4.452  16.115  0.00  0.00    +0.000 C 
ATOM     21  O   UNL     1       5.936   5.491  16.729  0.00  0.00    +0.000 OA
ATOM     22  H   UNL     1       4.907   2.492  16.162  0.00  0.00    +0.000 HD
BRANCH  20  23
ATOM     23  C   UNL     1       6.166   4.307  14.707  0.00  0.00    +0.000 A 
ATOM     24  C   UNL     1       7.231   5.120  14.280  0.00  0.00    +0.000 A 
ATOM     25  C   UNL     1       7.686   5.060  12.959  0.00  0.00    +0.000 A 
ATOM     26  C   UNL     1       7.073   4.202  12.049  0.00  0.00    +0.000 A 
ATOM     27  C   UNL     1       6.007   3.395  12.472  0.00  0.00    +0.000 A 
ATOM     28  C   UNL     1       5.552   3.435  13.802  0.00  0.00    +0.000 A 
BRANCH  27  29
ATOM     29  N   UNL     1       5.349   2.509  11.502  0.00  0.00    +0.000 N 
ATOM     30  O   UNL     1       5.942   1.475  11.170  0.00  0.00    +0.000 OA
ATOM     31  O   UNL     1       4.233   2.848  11.084  0.00  0.00    +0.000 OA
ENDBRANCH  27  29
ENDBRANCH  20  23
ENDBRANCH  17  19
ENDBRANCH   1  17
TORSDOF 7
ENDMDL
MODEL 5
REMARK VINA RESULT:      -8.4      1.087      1.472
REMARK  Name = 
REMARK  10 active torsions:
REMARK  status: ('A' for Active; 'I' for Inactive)
REMARK    1  A    between atoms: C_1  and  C_2
REMARK    2  A    between atoms: C_2  and  C_3
REMARK    3  A    between atoms: C_2  and  C_4
REMARK    4  A    between atoms: C_2  and  C_5
REMARK    5  A    between atoms: C_8  and  C_9
REMARK    6  A    between atoms: N_11  and  C_12
REMARK    7  A    between atoms: C_12  and  N_14
REMARK    8  A    between atoms: N_14  and  N_15
REMARK    9  A    between atoms: C_16  and  C_18
REMARK   10  A    between atoms: C_22  and  N_23
REMARK                            x       y       z     vdW  Elec       q    Type
REMARK                         _______ _______ _______ _____ _____    ______ ____
ROOT
ATOM      1  C   UNL     1       4.069   3.823  18.506  0.00  0.00    +0.000 C 
ATOM      2  S   UNL     1       3.330   2.334  18.563  0.00  0.00    +0.000 S 
ENDROOT
BRANCH   1   5
ATOM      3  C   UNL     1       2.778   5.491  19.863  0.00  0.00    +0.000 C 
ATOM      4  O   UNL     1       2.663   4.812  20.883  0.00  0.00    +0.000 OA
ATOM      5  N   UNL     1       3.525   5.083  18.763  0.00  0.00    +0.000 N 
ATOM      6  H   UNL     1       3.590   5.686  17.967  0.00  0.00    +0.000 HD
BRANCH   3  10
ATOM      7  C   UNL     1       1.057   9.489  19.537  0.00  0.00    +0.000 A 
ATOM      8  C   UNL     1       1.790   8.870  18.513  0.00  0.00    +0.000 A 
ATOM      9  C   UNL     1       2.331   7.591  18.666  0.00  0.00    +0.000 A 
ATOM     10  C   UNL     1       2.193   6.872  19.858  0.00  0.00    +0.000 A 
ATOM     11  C   UNL     1       1.501   7.482  20.909  0.00  0.00    +0.000 A 
ATOM     12  C   UNL     1       0.948   8.775  20.747  0.00  0.00    +0.000 A 
BRANCH   7  14
ATOM     13  C   UNL     1       1.411  11.871  18.703  0.00  0.00    +0.000 C 
ATOM     14  C   UNL     1       0.394  10.866  19.303  0.00  0.00    +0.000 C 
ATOM     15  C   UNL     1      -0.140  11.458  20.624  0.00  0.00    +0.000 C 
ATOM     16  C   UNL     1      -0.793  10.798  18.314  0.00  0.00    +0.000 C 
ENDBRANCH   7  14
ENDBRANCH   3  10
ENDBRANCH   1   5
BRANCH   1  17
ATOM     17  N   UNL     1       5.416   3.900  18.188  0.00  0.00    +0.000 N 
ATOM     18  H   UNL     1       6.000   4.543  18.726  0.00  0.00    +0.000 HD
BRANCH  17  19
ATOM     19  N   UNL     1       5.796   3.699  16.847  0.00  0.00    +0.000 N 
ATOM     20  C   UNL     1       5.769   4.771  15.975  0.00  0.00    +0.000 C 
ATOM     21  O   UNL     1       5.450   5.907  16.305  0.00  0.00    +0.000 OA
ATOM     22  H   UNL     1       6.057   2.756  16.574  0.00  0.00    +0.000 HD
BRANCH  20  23
ATOM     23  C   UNL     1       6.198   4.490  14.581  0.00  0.00    +0.000 A 
ATOM     24  C   UNL     1       7.314   5.190  14.093  0.00  0.00    +0.000 A 
ATOM     25  C   UNL     1       7.756   4.999  12.780  0.00  0.00    +0.000 A 
ATOM     26  C   UNL     1       7.078   4.121  11.937  0.00  0.00    +0.000 A 
ATOM     27  C   UNL     1       5.960   3.426  12.420  0.00  0.00    +0.000 A 
ATOM     28  C   UNL     1       5.517   3.598  13.744  0.00  0.00    +0.000 A 
BRANCH  27  29
ATOM     29  N   UNL     1       5.235   2.519  11.520  0.00  0.00    +0.000 N 
ATOM     30  O   UNL     1       4.147   2.899  11.071  0.00  0.00    +0.000 OA
ATOM     31  O   UNL     1       5.766   1.430  11.258  0.00  0.00    +0.000 OA
ENDBRANCH  27  29
ENDBRANCH  20  23
ENDBRANCH  17  19
ENDBRANCH   1  17
TORSDOF 7
ENDMDL
MODEL 6
REMARK VINA RESULT:      -8.3      0.675      1.046
REMARK  Name = 
REMARK  10 active torsions:
REMARK  status: ('A' for Active; 'I' for Inactive)
REMARK    1  A    between atoms: C_1  and  C_2
REMARK    2  A    between atoms: C_2  and  C_3
REMARK    3  A    between atoms: C_2  and  C_4
REMARK    4  A    between atoms: C_2  and  C_5
REMARK    5  A    between atoms: C_8  and  C_9
REMARK    6  A    between atoms: N_11  and  C_12
REMARK    7  A    between atoms: C_12  and  N_14
REMARK    8  A    between atoms: N_14  and  N_15
REMARK    9  A    between atoms: C_16  and  C_18
REMARK   10  A    between atoms: C_22  and  N_23
REMARK                            x       y       z     vdW  Elec       q    Type
REMARK                         _______ _______ _______ _____ _____    ______ ____
ROOT
ATOM      1  C   UNL     1       4.592   3.655  18.843  0.00  0.00    +0.000 C 
ATOM      2  S   UNL     1       4.091   2.086  19.070  0.00  0.00    +0.000 S 
ENDROOT
BRANCH   1   5
ATOM      3  C   UNL     1       2.868   5.408  18.351  0.00  0.00    +0.000 C 
ATOM      4  O   UNL     1       2.281   4.806  17.452  0.00  0.00    +0.000 OA
ATOM      5  N   UNL     1       3.900   4.841  19.090  0.00  0.00    +0.000 N 
ATOM      6  H   UNL     1       4.330   5.378  19.819  0.00  0.00    +0.000 HD
BRANCH   3  10
ATOM      7  C   UNL     1       1.270   9.375  19.223  0.00  0.00    +0.000 A 
ATOM      8  C   UNL     1       1.614   8.940  17.934  0.00  0.00    +0.000 A 
ATOM      9  C   UNL     1       2.132   7.662  17.704  0.00  0.00    +0.000 A 
ATOM     10  C   UNL     1       2.360   6.762  18.750  0.00  0.00    +0.000 A 
ATOM     11  C   UNL     1       2.064   7.185  20.050  0.00  0.00    +0.000 A 
ATOM     12  C   UNL     1       1.533   8.477  20.277  0.00  0.00    +0.000 A 
BRANCH   7  14
ATOM     13  C   UNL     1       1.630  11.897  19.148  0.00  0.00    +0.000 C 
ATOM     14  C   UNL     1       0.615  10.760  19.433  0.00  0.00    +0.000 C 
ATOM     15  C   UNL     1       0.109  10.922  20.881  0.00  0.00    +0.000 C 
ATOM     16  C   UNL     1      -0.590  11.000  18.493  0.00  0.00    +0.000 C 
ENDBRANCH   7  14
ENDBRANCH   3  10
ENDBRANCH   1   5
BRANCH   1  17
ATOM     17  N   UNL     1       5.871   3.896  18.364  0.00  0.00    +0.000 N 
ATOM     18  H   UNL     1       6.431   4.611  18.832  0.00  0.00    +0.000 HD
BRANCH  17  19
ATOM     19  N   UNL     1       6.108   3.733  16.986  0.00  0.00    +0.000 N 
ATOM     20  C   UNL     1       6.269   4.855  16.195  0.00  0.00    +0.000 C 
ATOM     21  O   UNL     1       6.237   6.001  16.629  0.00  0.00    +0.000 OA
ATOM     22  H   UNL     1       6.130   2.782  16.627  0.00  0.00    +0.000 HD
BRANCH  20  23
ATOM     23  C   UNL     1       6.531   4.607  14.754  0.00  0.00    +0.000 A 
ATOM     24  C   UNL     1       7.596   5.307  14.161  0.00  0.00    +0.000 A 
ATOM     25  C   UNL     1       7.882   5.147  12.801  0.00  0.00    +0.000 A 
ATOM     26  C   UNL     1       7.098   4.301  12.019  0.00  0.00    +0.000 A 
ATOM     27  C   UNL     1       6.032   3.607  12.608  0.00  0.00    +0.000 A 
ATOM     28  C   UNL     1       5.746   3.748  13.978  0.00  0.00    +0.000 A 
BRANCH  27  29
ATOM     29  N   UNL     1       5.195   2.734  11.774  0.00  0.00    +0.000 N 
ATOM     30  O   UNL     1       5.681   1.665  11.388  0.00  0.00    +0.000 OA
ATOM     31  O   UNL     1       4.046   3.122  11.517  0.00  0.00    +0.000 OA
ENDBRANCH  27  29
ENDBRANCH  20  23
ENDBRANCH  17  19
ENDBRANCH   1  17
TORSDOF 7
ENDMDL
MODEL 7
REMARK VINA RESULT:      -8.1      2.699      3.791
REMARK  Name = 
REMARK  10 active torsions:
REMARK  status: ('A' for Active; 'I' for Inactive)
REMARK    1  A    between atoms: C_1  and  C_2
REMARK    2  A    between atoms: C_2  and  C_3
REMARK    3  A    between atoms: C_2  and  C_4
REMARK    4  A    between atoms: C_2  and  C_5
REMARK    5  A    between atoms: C_8  and  C_9
REMARK    6  A    between atoms: N_11  and  C_12
REMARK    7  A    between atoms: C_12  and  N_14
REMARK    8  A    between atoms: N_14  and  N_15
REMARK    9  A    between atoms: C_16  and  C_18
REMARK   10  A    between atoms: C_22  and  N_23
REMARK                            x       y       z     vdW  Elec       q    Type
REMARK                         _______ _______ _______ _____ _____    ______ ____
ROOT
ATOM      1  C   UNL     1       1.858   3.421  20.216  0.00  0.00    +0.000 C 
ATOM      2  S   UNL     1       1.551   2.628  21.646  0.00  0.00    +0.000 S 
ENDROOT
BRANCH   1   5
ATOM      3  C   UNL     1       2.535   5.817  19.919  0.00  0.00    +0.000 C 
ATOM      4  O   UNL     1       3.747   5.658  20.059  0.00  0.00    +0.000 OA
ATOM      5  N   UNL     1       1.633   4.759  19.890  0.00  0.00    +0.000 N 
ATOM      6  H   UNL     1       0.659   4.952  19.760  0.00  0.00    +0.000 HD
BRANCH   3  10
ATOM      7  C   UNL     1       1.076   9.900  19.415  0.00  0.00    +0.000 A 
ATOM      8  C   UNL     1       0.932   9.161  20.599  0.00  0.00    +0.000 A 
ATOM      9  C   UNL     1       1.408   7.852  20.712  0.00  0.00    +0.000 A 
ATOM     10  C   UNL     1       2.026   7.200  19.640  0.00  0.00    +0.000 A 
ATOM     11  C   UNL     1       2.146   7.899  18.435  0.00  0.00    +0.000 A 
ATOM     12  C   UNL     1       1.670   9.228  18.328  0.00  0.00    +0.000 A 
BRANCH   7  14
ATOM     13  C   UNL     1      -0.692  11.514  18.540  0.00  0.00    +0.000 C 
ATOM     14  C   UNL     1       0.622  11.376  19.352  0.00  0.00    +0.000 C 
ATOM     15  C   UNL     1       1.694  12.260  18.681  0.00  0.00    +0.000 C 
ATOM     16  C   UNL     1       0.339  11.974  20.751  0.00  0.00    +0.000 C 
ENDBRANCH   7  14
ENDBRANCH   3  10
ENDBRANCH   1   5
BRANCH   1  17
ATOM     17  N   UNL     1       2.436   2.725  19.166  0.00  0.00    +0.000 N 
ATOM     18  H   UNL     1       2.374   1.706  19.173  0.00  0.00    +0.000 HD
BRANCH  17  19
ATOM     19  N   UNL     1       3.588   3.267  18.563  0.00  0.00    +0.000 N 
ATOM     20  C   UNL     1       3.546   3.609  17.224  0.00  0.00    +0.000 C 
ATOM     21  O   UNL     1       2.548   3.487  16.523  0.00  0.00    +0.000 OA
ATOM     22  H   UNL     1       4.415   3.364  19.145  0.00  0.00    +0.000 HD
BRANCH  20  23
ATOM     23  C   UNL     1       4.791   4.190  16.659  0.00  0.00    +0.000 A 
ATOM     24  C   UNL     1       5.245   3.677  15.432  0.00  0.00    +0.000 A 
ATOM     25  C   UNL     1       6.426   4.154  14.855  0.00  0.00    +0.000 A 
ATOM     26  C   UNL     1       7.173   5.134  15.505  0.00  0.00    +0.000 A 
ATOM     27  C   UNL     1       6.725   5.642  16.733  0.00  0.00    +0.000 A 
ATOM     28  C   UNL     1       5.530   5.182  17.314  0.00  0.00    +0.000 A 
BRANCH  27  29
ATOM     29  N   UNL     1       7.529   6.658  17.426  0.00  0.00    +0.000 N 
ATOM     30  O   UNL     1       7.946   6.391  18.558  0.00  0.00    +0.000 OA
ATOM     31  O   UNL     1       7.748   7.720  16.824  0.00  0.00    +0.000 OA
ENDBRANCH  27  29
ENDBRANCH  20  23
ENDBRANCH  17  19
ENDBRANCH   1  17
TORSDOF 7
ENDMDL
MODEL 8
REMARK VINA RESULT:      -8.0      2.069      3.050
REMARK  Name = 
REMARK  10 active torsions:
REMARK  status: ('A' for Active; 'I' for Inactive)
REMARK    1  A    between atoms: C_1  and  C_2
REMARK    2  A    between atoms: C_2  and  C_3
REMARK    3  A    between atoms: C_2  and  C_4
REMARK    4  A    between atoms: C_2  and  C_5
REMARK    5  A    between atoms: C_8  and  C_9
REMARK    6  A    between atoms: N_11  and  C_12
REMARK    7  A    between atoms: C_12  and  N_14
REMARK    8  A    between atoms: N_14  and  N_15
REMARK    9  A    between atoms: C_16  and  C_18
REMARK   10  A    between atoms: C_22  and  N_23
REMARK                            x       y       z     vdW  Elec       q    Type
REMARK                         _______ _______ _______ _____ _____    ______ ____
ROOT
ATOM      1  C   UNL     1       1.957   3.291  20.248  0.00  0.00    +0.000 C 
ATOM      2  S   UNL     1       1.709   2.548  21.715  0.00  0.00    +0.000 S 
ENDROOT
BRANCH   1   5
ATOM      3  C   UNL     1       2.638   5.678  19.886  0.00  0.00    +0.000 C 
ATOM      4  O   UNL     1       3.852   5.519  20.021  0.00  0.00    +0.000 OA
ATOM      5  N   UNL     1       1.734   4.622  19.890  0.00  0.00    +0.000 N 
ATOM      6  H   UNL     1       0.759   4.815  19.764  0.00  0.00    +0.000 HD
BRANCH   3  10
ATOM      7  C   UNL     1       1.172   9.746  19.294  0.00  0.00    +0.000 A 
ATOM      8  C   UNL     1       0.988   9.016  20.478  0.00  0.00    +0.000 A 
ATOM      9  C   UNL     1       1.468   7.710  20.619  0.00  0.00    +0.000 A 
ATOM     10  C   UNL     1       2.131   7.054  19.577  0.00  0.00    +0.000 A 
ATOM     11  C   UNL     1       2.292   7.745  18.371  0.00  0.00    +0.000 A 
ATOM     12  C   UNL     1       1.811   9.069  18.236  0.00  0.00    +0.000 A 
BRANCH   7  14
ATOM     13  C   UNL     1       0.532  11.828  20.616  0.00  0.00    +0.000 C 
ATOM     14  C   UNL     1       0.710  11.218  19.202  0.00  0.00    +0.000 C 
ATOM     15  C   UNL     1      -0.638  11.333  18.459  0.00  0.00    +0.000 C 
ATOM     16  C   UNL     1       1.725  12.118  18.459  0.00  0.00    +0.000 C 
ENDBRANCH   7  14
ENDBRANCH   3  10
ENDBRANCH   1   5
BRANCH   1  17
ATOM     17  N   UNL     1       2.477   2.556  19.194  0.00  0.00    +0.000 N 
ATOM     18  H   UNL     1       2.292   1.551  19.174  0.00  0.00    +0.000 HD
BRANCH  17  19
ATOM     19  N   UNL     1       3.701   2.968  18.634  0.00  0.00    +0.000 N 
ATOM     20  C   UNL     1       3.703   3.547  17.379  0.00  0.00    +0.000 C 
ATOM     21  O   UNL     1       2.688   3.745  16.721  0.00  0.00    +0.000 OA
ATOM     22  H   UNL     1       4.542   2.800  19.180  0.00  0.00    +0.000 HD
BRANCH  20  23
ATOM     23  C   UNL     1       5.027   3.973  16.858  0.00  0.00    +0.000 A 
ATOM     24  C   UNL     1       5.997   4.363  17.797  0.00  0.00    +0.000 A 
ATOM     25  C   UNL     1       7.256   4.805  17.378  0.00  0.00    +0.000 A 
ATOM     26  C   UNL     1       7.552   4.877  16.019  0.00  0.00    +0.000 A 
ATOM     27  C   UNL     1       6.584   4.494  15.080  0.00  0.00    +0.000 A 
ATOM     28  C   UNL     1       5.320   4.032  15.491  0.00  0.00    +0.000 A 
BRANCH  27  29
ATOM     29  N   UNL     1       6.893   4.593  13.647  0.00  0.00    +0.000 N 
ATOM     30  O   UNL     1       7.756   5.408  13.298  0.00  0.00    +0.000 OA
ATOM     31  O   UNL     1       6.276   3.844  12.876  0.00  0.00    +0.000 OA
ENDBRANCH  27  29
ENDBRANCH  20  23
ENDBRANCH  17  19
ENDBRANCH   1  17
TORSDOF 7
ENDMDL
MODEL 9
REMARK VINA RESULT:      -7.9      1.419      1.861
REMARK  Name = 
REMARK  10 active torsions:
REMARK  status: ('A' for Active; 'I' for Inactive)
REMARK    1  A    between atoms: C_1  and  C_2
REMARK    2  A    between atoms: C_2  and  C_3
REMARK    3  A    between atoms: C_2  and  C_4
REMARK    4  A    between atoms: C_2  and  C_5
REMARK    5  A    between atoms: C_8  and  C_9
REMARK    6  A    between atoms: N_11  and  C_12
REMARK    7  A    between atoms: C_12  and  N_14
REMARK    8  A    between atoms: N_14  and  N_15
REMARK    9  A    between atoms: C_16  and  C_18
REMARK   10  A    between atoms: C_22  and  N_23
REMARK                            x       y       z     vdW  Elec       q    Type
REMARK                         _______ _______ _______ _____ _____    ______ ____
ROOT
ATOM      1  C   UNL     1       5.836   5.291  18.808  0.00  0.00    +0.000 C 
ATOM      2  S   UNL     1       7.410   5.391  19.336  0.00  0.00    +0.000 S 
ENDROOT
BRANCH   1   5
ATOM      3  C   UNL     1       3.457   6.043  19.065  0.00  0.00    +0.000 C 
ATOM      4  O   UNL     1       2.979   4.953  19.379  0.00  0.00    +0.000 OA
ATOM      5  N   UNL     1       4.821   6.246  18.889  0.00  0.00    +0.000 N 
ATOM      6  H   UNL     1       5.151   7.161  18.646  0.00  0.00    +0.000 HD
BRANCH   3  10
ATOM      7  C   UNL     1       0.842   9.536  19.174  0.00  0.00    +0.000 A 
ATOM      8  C   UNL     1       1.089   8.712  20.283  0.00  0.00    +0.000 A 
ATOM      9  C   UNL     1       1.927   7.597  20.198  0.00  0.00    +0.000 A 
ATOM     10  C   UNL     1       2.542   7.229  18.996  0.00  0.00    +0.000 A 
ATOM     11  C   UNL     1       2.280   8.010  17.866  0.00  0.00    +0.000 A 
ATOM     12  C   UNL     1       1.436   9.142  17.959  0.00  0.00    +0.000 A 
BRANCH   7  14
ATOM     13  C   UNL     1       0.768  12.062  18.849  0.00  0.00    +0.000 C 
ATOM     14  C   UNL     1      -0.017  10.812  19.323  0.00  0.00    +0.000 C 
ATOM     15  C   UNL     1      -0.430  11.037  20.793  0.00  0.00    +0.000 C 
ATOM     16  C   UNL     1      -1.314  10.762  18.481  0.00  0.00    +0.000 C 
ENDBRANCH   7  14
ENDBRANCH   3  10
ENDBRANCH   1   5
BRANCH   1  17
ATOM     17  N   UNL     1       5.406   4.137  18.171  0.00  0.00    +0.000 N 
ATOM     18  H   UNL     1       5.233   3.309  18.744  0.00  0.00    +0.000 HD
BRANCH  17  19
ATOM     19  N   UNL     1       5.854   3.895  16.859  0.00  0.00    +0.000 N 
ATOM     20  C   UNL     1       5.570   4.819  15.872  0.00  0.00    +0.000 C 
ATOM     21  O   UNL     1       4.959   5.863  16.075  0.00  0.00    +0.000 OA
ATOM     22  H   UNL     1       6.357   3.027  16.692  0.00  0.00    +0.000 HD
BRANCH  20  23
ATOM     23  C   UNL     1       6.087   4.507  14.515  0.00  0.00    +0.000 A 
ATOM     24  C   UNL     1       7.212   5.223  14.070  0.00  0.00    +0.000 A 
ATOM     25  C   UNL     1       7.735   5.004  12.792  0.00  0.00    +0.000 A 
ATOM     26  C   UNL     1       7.132   4.081  11.941  0.00  0.00    +0.000 A 
ATOM     27  C   UNL     1       6.006   3.369  12.381  0.00  0.00    +0.000 A 
ATOM     28  C   UNL     1       5.482   3.570  13.670  0.00  0.00    +0.000 A 
BRANCH  27  29
ATOM     29  N   UNL     1       5.361   2.414  11.471  0.00  0.00    +0.000 N 
ATOM     30  O   UNL     1       5.978   1.381  11.185  0.00  0.00    +0.000 OA
ATOM     31  O   UNL     1       4.228   2.699  11.054  0.00  0.00    +0.000 OA
ENDBRANCH  27  29
ENDBRANCH  20  23
ENDBRANCH  17  19
ENDBRANCH   1  17
TORSDOF 7
ENDMDL
