MODEL 1
REMARK VINA RESULT:      -8.6      0.000      0.000
REMARK  Name = 
REMARK  5 active torsions:
REMARK  status: ('A' for Active; 'I' for Inactive)
REMARK    1  A    between atoms: C_2  and  C_3
REMARK    2  A    between atoms: C_5  and  C_6
REMARK    3  A    between atoms: C_13  and  C_14
REMARK    4  A    between atoms: C_14  and  N_15
REMARK    5  A    between atoms: C_17  and  C_18
REMARK                            x       y       z     vdW  Elec       q    Type
REMARK                         _______ _______ _______ _____ _____    ______ ____
ROOT
ATOM      1  C   UNL     1       0.068  10.263  19.646  0.00  0.00    +0.000 A 
ATOM      2  C   UNL     1      -0.337  10.768  20.828  0.00  0.00    +0.000 A 
ATOM      3  F   UNL     1      -1.093  11.884  20.888  0.00  0.00    +0.000 F 
ATOM      4  C   UNL     1      -0.039  10.131  22.074  0.00  0.00    +0.000 A 
ATOM      5  C   UNL     1       0.646   8.987  22.096  0.00  0.00    +0.000 A 
ATOM      6  C   UNL     1       1.192   8.435  20.828  0.00  0.00    +0.000 A 
ATOM      7  N   UNL     1       1.911   7.356  20.913  0.00  0.00    +0.000 NA
ATOM      8  C   UNL     1       2.449   6.845  19.761  0.00  0.00    +0.000 A 
ATOM      9  C   UNL     1       2.342   7.467  18.583  0.00  0.00    +0.000 A 
ATOM     10  C   UNL     1       1.594   8.731  18.499  0.00  0.00    +0.000 A 
ATOM     11  O   UNL     1       1.686   9.362  17.447  0.00  0.00    +0.000 OA
ATOM     12  N   UNL     1       0.913   9.124  19.647  0.00  0.00    +0.000 N 
ENDROOT
BRANCH   1  15
ATOM     13  C   UNL     1      -1.845  10.637  17.982  0.00  0.00    +0.000 C 
ATOM     14  C   UNL     1      -1.319  12.018  18.263  0.00  0.00    +0.000 C 
ATOM     15  C   UNL     1      -0.378  10.839  18.346  0.00  0.00    +0.000 C 
BRANCH  13  17
ATOM     16  N   UNL     1      -2.520   9.960  15.571  0.00  0.00    +0.000 NA
ATOM     17  C   UNL     1      -2.197  10.270  16.644  0.00  0.00    +0.000 C 
ENDBRANCH  13  17
ENDBRANCH   1  15
BRANCH   8  18
ATOM     18  C   UNL     1       3.267   5.579  19.895  0.00  0.00    +0.000 C 
BRANCH  18  19
ATOM     19  N   UNL     1       3.960   5.239  18.659  0.00  0.00    +0.000 N 
ATOM     20  N   UNL     1       5.269   5.580  18.530  0.00  0.00    +0.000 NA
ATOM     21  C   UNL     1       5.608   5.166  17.289  0.00  0.00    +0.000 A 
ATOM     22  C   UNL     1       4.508   4.528  16.649  0.00  0.00    +0.000 A 
ATOM     23  C   UNL     1       3.489   4.591  17.558  0.00  0.00    +0.000 A 
ATOM     24 CL   UNL     1       1.888   4.034  17.452  0.00  0.00    +0.000 Cl
BRANCH  21  25
ATOM     25  C   UNL     1       6.971   5.386  16.686  0.00  0.00    +0.000 C 
ATOM     26  F   UNL     1       7.556   6.553  17.064  0.00  0.00    +0.000 F 
ATOM     27  F   UNL     1       7.834   4.388  17.022  0.00  0.00    +0.000 F 
ATOM     28  F   UNL     1       6.913   5.398  15.326  0.00  0.00    +0.000 F 
ENDBRANCH  21  25
ENDBRANCH  18  19
ENDBRANCH   8  18
TORSDOF 5
ENDMDL
MODEL 2
REMARK VINA RESULT:      -8.4      2.940      3.375
REMARK  Name = 
REMARK  5 active torsions:
REMARK  status: ('A' for Active; 'I' for Inactive)
REMARK    1  A    between atoms: C_2  and  C_3
REMARK    2  A    between atoms: C_5  and  C_6
REMARK    3  A    between atoms: C_13  and  C_14
REMARK    4  A    between atoms: C_14  and  N_15
REMARK    5  A    between atoms: C_17  and  C_18
REMARK                            x       y       z     vdW  Elec       q    Type
REMARK                         _______ _______ _______ _____ _____    ______ ____
ROOT
ATOM      1  C   UNL     1       0.056  10.121  19.842  0.00  0.00    +0.000 A 
ATOM      2  C   UNL     1      -0.256  10.080  21.153  0.00  0.00    +0.000 A 
ATOM      3  F   UNL     1      -1.160  10.930  21.681  0.00  0.00    +0.000 F 
ATOM      4  C   UNL     1       0.307   9.111  22.043  0.00  0.00    +0.000 A 
ATOM      5  C   UNL     1       1.158   8.193  21.584  0.00  0.00    +0.000 A 
ATOM      6  C   UNL     1       1.603   8.248  20.166  0.00  0.00    +0.000 A 
ATOM      7  N   UNL     1       2.486   7.373  19.789  0.00  0.00    +0.000 NA
ATOM      8  C   UNL     1       2.933   7.423  18.494  0.00  0.00    +0.000 A 
ATOM      9  C   UNL     1       2.569   8.391  17.647  0.00  0.00    +0.000 A 
ATOM     10  C   UNL     1       1.629   9.429  18.098  0.00  0.00    +0.000 A 
ATOM     11  O   UNL     1       1.476  10.399  17.358  0.00  0.00    +0.000 OA
ATOM     12  N   UNL     1       1.060   9.244  19.355  0.00  0.00    +0.000 N 
ENDROOT
BRANCH   1  15
ATOM     13  C   UNL     1      -1.977  10.520  18.333  0.00  0.00    +0.000 C 
ATOM     14  C   UNL     1      -1.943  11.719  19.240  0.00  0.00    +0.000 C 
ATOM     15  C   UNL     1      -0.649  11.024  18.890  0.00  0.00    +0.000 C 
BRANCH  13  17
ATOM     16  N   UNL     1      -2.471  10.841  15.808  0.00  0.00    +0.000 NA
ATOM     17  C   UNL     1      -2.270  10.690  16.943  0.00  0.00    +0.000 C 
ENDBRANCH  13  17
ENDBRANCH   1  15
BRANCH   8  18
ATOM     18  C   UNL     1       3.948   6.379  18.084  0.00  0.00    +0.000 C 
BRANCH  18  19
ATOM     19  N   UNL     1       3.363   5.046  18.000  0.00  0.00    +0.000 N 
ATOM     20  N   UNL     1       2.356   4.721  18.852  0.00  0.00    +0.000 NA
ATOM     21  C   UNL     1       2.057   3.439  18.552  0.00  0.00    +0.000 A 
ATOM     22  C   UNL     1       2.863   2.967  17.477  0.00  0.00    +0.000 A 
ATOM     23  C   UNL     1       3.669   4.024  17.155  0.00  0.00    +0.000 A 
ATOM     24 CL   UNL     1       4.879   4.160  15.971  0.00  0.00    +0.000 Cl
BRANCH  21  25
ATOM     25  C   UNL     1       1.019   2.635  19.292  0.00  0.00    +0.000 C 
ATOM     26  F   UNL     1       0.174   1.950  18.479  0.00  0.00    +0.000 F 
ATOM     27  F   UNL     1       1.592   1.721  20.122  0.00  0.00    +0.000 F 
ATOM     28  F   UNL     1       0.246   3.433  20.079  0.00  0.00    +0.000 F 
ENDBRANCH  21  25
ENDBRANCH  18  19
ENDBRANCH   8  18
TORSDOF 5
ENDMDL
MODEL 3
REMARK VINA RESULT:      -8.3      0.729      1.151
REMARK  Name = 
REMARK  5 active torsions:
REMARK  status: ('A' for Active; 'I' for Inactive)
REMARK    1  A    between atoms: C_2  and  C_3
REMARK    2  A    between atoms: C_5  and  C_6
REMARK    3  A    between atoms: C_13  and  C_14
REMARK    4  A    between atoms: C_14  and  N_15
REMARK    5  A    between atoms: C_17  and  C_18
REMARK                            x       y       z     vdW  Elec       q    Type
REMARK                         _______ _______ _______ _____ _____    ______ ____
ROOT
ATOM      1  C   UNL     1       0.003  10.278  19.614  0.00  0.00    +0.000 A 
ATOM      2  C   UNL     1      -0.415  10.770  20.798  0.00  0.00    +0.000 A 
ATOM      3  F   UNL     1      -1.200  11.866  20.860  0.00  0.00    +0.000 F 
ATOM      4  C   UNL     1      -0.098  10.140  22.043  0.00  0.00    +0.000 A 
ATOM      5  C   UNL     1       0.618   9.015  22.063  0.00  0.00    +0.000 A 
ATOM      6  C   UNL     1       1.177   8.479  20.793  0.00  0.00    +0.000 A 
ATOM      7  N   UNL     1       1.925   7.420  20.877  0.00  0.00    +0.000 NA
ATOM      8  C   UNL     1       2.475   6.926  19.723  0.00  0.00    +0.000 A 
ATOM      9  C   UNL     1       2.350   7.546  18.546  0.00  0.00    +0.000 A 
ATOM     10  C   UNL     1       1.569   8.789  18.464  0.00  0.00    +0.000 A 
ATOM     11  O   UNL     1       1.642   9.423  17.413  0.00  0.00    +0.000 OA
ATOM     12  N   UNL     1       0.878   9.162  19.614  0.00  0.00    +0.000 N 
ENDROOT
BRANCH   1  15
ATOM     13  C   UNL     1      -1.914  10.576  17.939  0.00  0.00    +0.000 C 
ATOM     14  C   UNL     1      -1.455  11.977  18.235  0.00  0.00    +0.000 C 
ATOM     15  C   UNL     1      -0.460  10.843  18.316  0.00  0.00    +0.000 C 
BRANCH  13  17
ATOM     16  N   UNL     1      -2.541   9.914  15.512  0.00  0.00    +0.000 NA
ATOM     17  C   UNL     1      -2.238  10.204  16.596  0.00  0.00    +0.000 C 
ENDBRANCH  13  17
ENDBRANCH   1  15
BRANCH   8  18
ATOM     18  C   UNL     1       3.328   5.682  19.855  0.00  0.00    +0.000 C 
BRANCH  18  19
ATOM     19  N   UNL     1       3.589   5.056  18.565  0.00  0.00    +0.000 N 
ATOM     20  N   UNL     1       4.779   5.293  17.954  0.00  0.00    +0.000 NA
ATOM     21  C   UNL     1       4.705   4.612  16.790  0.00  0.00    +0.000 A 
ATOM     22  C   UNL     1       3.469   3.913  16.687  0.00  0.00    +0.000 A 
ATOM     23  C   UNL     1       2.799   4.217  17.840  0.00  0.00    +0.000 A 
ATOM     24 CL   UNL     1       1.261   3.735  18.375  0.00  0.00    +0.000 Cl
BRANCH  21  25
ATOM     25  C   UNL     1       5.795   4.630  15.749  0.00  0.00    +0.000 C 
ATOM     26  F   UNL     1       6.085   3.405  15.238  0.00  0.00    +0.000 F 
ATOM     27  F   UNL     1       5.468   5.427  14.695  0.00  0.00    +0.000 F 
ATOM     28  F   UNL     1       6.955   5.128  16.258  0.00  0.00    +0.000 F 
ENDBRANCH  21  25
ENDBRANCH  18  19
ENDBRANCH   8  18
TORSDOF 5
ENDMDL
MODEL 4
REMARK VINA RESULT:      -8.2      2.997      3.455
REMARK  Name = 
REMARK  5 active torsions:
REMARK  status: ('A' for Active; 'I' for Inactive)
REMARK    1  A    between atoms: C_2  and  C_3
REMARK    2  A    between atoms: C_5  and  C_6
REMARK    3  A    between atoms: C_13  and  C_14
REMARK    4  A    between atoms: C_14  and  N_15
REMARK    5  A    between atoms: C_17  and  C_18
REMARK                            x       y       z     vdW  Elec       q    Type
REMARK                         _______ _______ _______ _____ _____    ______ ____
ROOT
ATOM      1  C   UNL     1       0.011  10.209  19.967  0.00  0.00    +0.000 A 
ATOM      2  C   UNL     1      -0.248  10.115  21.287  0.00  0.00    +0.000 A 
ATOM      3  F   UNL     1      -1.103  10.966  21.892  0.00  0.00    +0.000 F 
ATOM      4  C   UNL     1       0.320   9.090  22.107  0.00  0.00    +0.000 A 
ATOM      5  C   UNL     1       1.123   8.169  21.570  0.00  0.00    +0.000 A 
ATOM      6  C   UNL     1       1.510   8.279  20.139  0.00  0.00    +0.000 A 
ATOM      7  N   UNL     1       2.349   7.397  19.684  0.00  0.00    +0.000 NA
ATOM      8  C   UNL     1       2.744   7.496  18.376  0.00  0.00    +0.000 A 
ATOM      9  C   UNL     1       2.377   8.513  17.591  0.00  0.00    +0.000 A 
ATOM     10  C   UNL     1       1.489   9.556  18.129  0.00  0.00    +0.000 A 
ATOM     11  O   UNL     1       1.336  10.563  17.441  0.00  0.00    +0.000 OA
ATOM     12  N   UNL     1       0.967   9.328  19.399  0.00  0.00    +0.000 N 
ENDROOT
BRANCH   1  15
ATOM     13  C   UNL     1      -2.022  10.702  18.487  0.00  0.00    +0.000 C 
ATOM     14  C   UNL     1      -2.009  11.824  19.489  0.00  0.00    +0.000 C 
ATOM     15  C   UNL     1      -0.704  11.177  19.088  0.00  0.00    +0.000 C 
BRANCH  13  17
ATOM     16  N   UNL     1      -2.587  11.186  16.003  0.00  0.00    +0.000 NA
ATOM     17  C   UNL     1      -2.314  10.979  17.114  0.00  0.00    +0.000 C 
ENDBRANCH  13  17
ENDBRANCH   1  15
BRANCH   8  18
ATOM     18  C   UNL     1       3.709   6.443  17.875  0.00  0.00    +0.000 C 
BRANCH  18  19
ATOM     19  N   UNL     1       3.613   5.203  18.636  0.00  0.00    +0.000 N 
ATOM     20  N   UNL     1       2.408   4.581  18.721  0.00  0.00    +0.000 NA
ATOM     21  C   UNL     1       2.636   3.502  19.501  0.00  0.00    +0.000 A 
ATOM     22  C   UNL     1       4.006   3.430  19.880  0.00  0.00    +0.000 A 
ATOM     23  C   UNL     1       4.588   4.524  19.301  0.00  0.00    +0.000 A 
ATOM     24 CL   UNL     1       6.197   5.064  19.347  0.00  0.00    +0.000 Cl
BRANCH  21  25
ATOM     25  C   UNL     1       1.556   2.536  19.915  0.00  0.00    +0.000 C 
ATOM     26  F   UNL     1       1.566   2.237  21.240  0.00  0.00    +0.000 F 
ATOM     27  F   UNL     1       0.316   3.021  19.631  0.00  0.00    +0.000 F 
ATOM     28  F   UNL     1       1.667   1.356  19.245  0.00  0.00    +0.000 F 
ENDBRANCH  21  25
ENDBRANCH  18  19
ENDBRANCH   8  18
TORSDOF 5
ENDMDL
MODEL 5
REMARK VINA RESULT:      -8.2      2.981      8.074
REMARK  Name = 
REMARK  5 active torsions:
REMARK  status: ('A' for Active; 'I' for Inactive)
REMARK    1  A    between atoms: C_2  and  C_3
REMARK    2  A    between atoms: C_5  and  C_6
REMARK    3  A    between atoms: C_13  and  C_14
REMARK    4  A    between atoms: C_14  and  N_15
REMARK    5  A    between atoms: C_17  and  C_18
REMARK                            x       y       z     vdW  Elec       q    Type
REMARK                         _______ _______ _______ _____ _____    ______ ____
ROOT
ATOM      1  C   UNL     1       4.036   4.658  17.609  0.00  0.00    +0.000 A 
ATOM      2  C   UNL     1       5.003   4.477  16.688  0.00  0.00    +0.000 A 
ATOM      3  F   UNL     1       5.547   3.260  16.478  0.00  0.00    +0.000 F 
ATOM      4  C   UNL     1       5.471   5.539  15.851  0.00  0.00    +0.000 A 
ATOM      5  C   UNL     1       4.936   6.757  15.950  0.00  0.00    +0.000 A 
ATOM      6  C   UNL     1       3.929   7.032  17.009  0.00  0.00    +0.000 A 
ATOM      7  N   UNL     1       3.491   8.251  17.107  0.00  0.00    +0.000 NA
ATOM      8  C   UNL     1       2.585   8.534  18.095  0.00  0.00    +0.000 A 
ATOM      9  C   UNL     1       2.216   7.633  19.010  0.00  0.00    +0.000 A 
ATOM     10  C   UNL     1       2.771   6.272  18.947  0.00  0.00    +0.000 A 
ATOM     11  O   UNL     1       2.558   5.540  19.912  0.00  0.00    +0.000 OA
ATOM     12  N   UNL     1       3.546   5.971  17.830  0.00  0.00    +0.000 N 
ENDROOT
BRANCH   1  15
ATOM     13  C   UNL     1       2.226   2.848  17.735  0.00  0.00    +0.000 C 
ATOM     14  C   UNL     1       3.519   2.094  17.875  0.00  0.00    +0.000 C 
ATOM     15  C   UNL     1       3.441   3.520  18.365  0.00  0.00    +0.000 C 
BRANCH  13  17
ATOM     16  N   UNL     1       0.180   2.249  19.211  0.00  0.00    +0.000 NA
ATOM     17  C   UNL     1       1.107   2.498  18.556  0.00  0.00    +0.000 C 
ENDBRANCH  13  17
ENDBRANCH   1  15
BRANCH   8  18
ATOM     18  C   UNL     1       2.084   9.961  18.170  0.00  0.00    +0.000 C 
BRANCH  18  19
ATOM     19  N   UNL     1       0.661  10.028  18.480  0.00  0.00    +0.000 N 
ATOM     20  N   UNL     1      -0.235   9.825  17.479  0.00  0.00    +0.000 NA
ATOM     21  C   UNL     1      -1.441   9.981  18.067  0.00  0.00    +0.000 A 
ATOM     22  C   UNL     1      -1.299  10.250  19.457  0.00  0.00    +0.000 A 
ATOM     23  C   UNL     1       0.051  10.261  19.674  0.00  0.00    +0.000 A 
ATOM     24 CL   UNL     1       0.930  10.531  21.102  0.00  0.00    +0.000 Cl
BRANCH  21  25
ATOM     25  C   UNL     1      -2.745   9.897  17.315  0.00  0.00    +0.000 C 
ATOM     26  F   UNL     1      -3.396  11.085  17.213  0.00  0.00    +0.000 F 
ATOM     27  F   UNL     1      -2.563   9.438  16.046  0.00  0.00    +0.000 F 
ATOM     28  F   UNL     1      -3.605   9.028  17.915  0.00  0.00    +0.000 F 
ENDBRANCH  21  25
ENDBRANCH  18  19
ENDBRANCH   8  18
TORSDOF 5
ENDMDL
MODEL 6
REMARK VINA RESULT:      -8.1      2.840      7.897
REMARK  Name = 
REMARK  5 active torsions:
REMARK  status: ('A' for Active; 'I' for Inactive)
REMARK    1  A    between atoms: C_2  and  C_3
REMARK    2  A    between atoms: C_5  and  C_6
REMARK    3  A    between atoms: C_13  and  C_14
REMARK    4  A    between atoms: C_14  and  N_15
REMARK    5  A    between atoms: C_17  and  C_18
REMARK                            x       y       z     vdW  Elec       q    Type
REMARK                         _______ _______ _______ _____ _____    ______ ____
ROOT
ATOM      1  C   UNL     1       3.617   5.205  18.682  0.00  0.00    +0.000 A 
ATOM      2  C   UNL     1       3.413   3.997  19.245  0.00  0.00    +0.000 A 
ATOM      3  F   UNL     1       4.069   2.903  18.805  0.00  0.00    +0.000 F 
ATOM      4  C   UNL     1       2.540   3.813  20.364  0.00  0.00    +0.000 A 
ATOM      5  C   UNL     1       1.907   4.856  20.900  0.00  0.00    +0.000 A 
ATOM      6  C   UNL     1       2.027   6.194  20.263  0.00  0.00    +0.000 A 
ATOM      7  N   UNL     1       1.335   7.162  20.784  0.00  0.00    +0.000 NA
ATOM      8  C   UNL     1       1.407   8.398  20.196  0.00  0.00    +0.000 A 
ATOM      9  C   UNL     1       2.080   8.613  19.061  0.00  0.00    +0.000 A 
ATOM     10  C   UNL     1       2.800   7.499  18.426  0.00  0.00    +0.000 A 
ATOM     11  O   UNL     1       3.238   7.694  17.294  0.00  0.00    +0.000 OA
ATOM     12  N   UNL     1       2.853   6.308  19.144  0.00  0.00    +0.000 N 
ENDROOT
BRANCH   1  15
ATOM     13  C   UNL     1       6.058   5.729  18.105  0.00  0.00    +0.000 C 
ATOM     14  C   UNL     1       5.770   4.445  17.378  0.00  0.00    +0.000 C 
ATOM     15  C   UNL     1       4.644   5.421  17.625  0.00  0.00    +0.000 C 
BRANCH  13  17
ATOM     16  N   UNL     1       7.397   7.613  16.928  0.00  0.00    +0.000 NA
ATOM     17  C   UNL     1       6.816   6.757  17.459  0.00  0.00    +0.000 C 
ENDBRANCH  13  17
ENDBRANCH   1  15
BRANCH   8  18
ATOM     18  C   UNL     1       0.601   9.506  20.838  0.00  0.00    +0.000 C 
BRANCH  18  19
ATOM     19  N   UNL     1      -0.067  10.344  19.850  0.00  0.00    +0.000 N 
ATOM     20  N   UNL     1      -1.137   9.840  19.183  0.00  0.00    +0.000 NA
ATOM     21  C   UNL     1      -1.504  10.825  18.335  0.00  0.00    +0.000 A 
ATOM     22  C   UNL     1      -0.676  11.971  18.498  0.00  0.00    +0.000 A 
ATOM     23  C   UNL     1       0.215  11.622  19.475  0.00  0.00    +0.000 A 
ATOM     24 CL   UNL     1       1.493  12.506  20.161  0.00  0.00    +0.000 Cl
BRANCH  21  25
ATOM     25  C   UNL     1      -2.632  10.688  17.345  0.00  0.00    +0.000 C 
ATOM     26  F   UNL     1      -3.421   9.603  17.560  0.00  0.00    +0.000 F 
ATOM     27  F   UNL     1      -3.449  11.776  17.362  0.00  0.00    +0.000 F 
ATOM     28  F   UNL     1      -2.161  10.584  16.072  0.00  0.00    +0.000 F 
ENDBRANCH  21  25
ENDBRANCH  18  19
ENDBRANCH   8  18
TORSDOF 5
ENDMDL
MODEL 7
REMARK VINA RESULT:      -7.8      1.436      1.716
REMARK  Name = 
REMARK  5 active torsions:
REMARK  status: ('A' for Active; 'I' for Inactive)
REMARK    1  A    between atoms: C_2  and  C_3
REMARK    2  A    between atoms: C_5  and  C_6
REMARK    3  A    between atoms: C_13  and  C_14
REMARK    4  A    between atoms: C_14  and  N_15
REMARK    5  A    between atoms: C_17  and  C_18
REMARK                            x       y       z     vdW  Elec       q    Type
REMARK                         _______ _______ _______ _____ _____    ______ ____
ROOT
ATOM      1  C   UNL     1       0.549  10.325  20.068  0.00  0.00    +0.000 A 
ATOM      2  C   UNL     1       0.471  10.471  21.406  0.00  0.00    +0.000 A 
ATOM      3  F   UNL     1      -0.073  11.577  21.956  0.00  0.00    +0.000 F 
ATOM      4  C   UNL     1       0.905   9.453  22.313  0.00  0.00    +0.000 A 
ATOM      5  C   UNL     1       1.392   8.303  21.848  0.00  0.00    +0.000 A 
ATOM      6  C   UNL     1       1.582   8.126  20.384  0.00  0.00    +0.000 A 
ATOM      7  N   UNL     1       2.124   7.013  19.988  0.00  0.00    +0.000 NA
ATOM      8  C   UNL     1       2.337   6.840  18.645  0.00  0.00    +0.000 A 
ATOM      9  C   UNL     1       2.099   7.805  17.751  0.00  0.00    +0.000 A 
ATOM     10  C   UNL     1       1.558   9.095  18.208  0.00  0.00    +0.000 A 
ATOM     11  O   UNL     1       1.538  10.010  17.387  0.00  0.00    +0.000 OA
ATOM     12  N   UNL     1       1.188   9.170  19.548  0.00  0.00    +0.000 N 
ENDROOT
BRANCH   1  15
ATOM     13  C   UNL     1      -1.540  11.169  18.848  0.00  0.00    +0.000 C 
ATOM     14  C   UNL     1      -1.024  12.375  19.582  0.00  0.00    +0.000 C 
ATOM     15  C   UNL     1      -0.048  11.315  19.129  0.00  0.00    +0.000 C 
BRANCH  13  17
ATOM     16  N   UNL     1      -2.426  11.378  16.420  0.00  0.00    +0.000 NA
ATOM     17  C   UNL     1      -2.024  11.307  17.508  0.00  0.00    +0.000 C 
ENDBRANCH  13  17
ENDBRANCH   1  15
BRANCH   8  18
ATOM     18  C   UNL     1       2.955   5.527  18.218  0.00  0.00    +0.000 C 
BRANCH  18  19
ATOM     19  N   UNL     1       4.407   5.535  18.345  0.00  0.00    +0.000 N 
ATOM     20  N   UNL     1       5.095   6.616  17.895  0.00  0.00    +0.000 NA
ATOM     21  C   UNL     1       6.392   6.313  18.122  0.00  0.00    +0.000 A 
ATOM     22  C   UNL     1       6.514   5.043  18.753  0.00  0.00    +0.000 A 
ATOM     23  C   UNL     1       5.229   4.592  18.883  0.00  0.00    +0.000 A 
ATOM     24 CL   UNL     1       4.636   3.143  19.540  0.00  0.00    +0.000 Cl
BRANCH  21  25
ATOM     25  C   UNL     1       7.534   7.213  17.726  0.00  0.00    +0.000 C 
ATOM     26  F   UNL     1       8.549   7.241  18.629  0.00  0.00    +0.000 F 
ATOM     27  F   UNL     1       8.078   6.837  16.536  0.00  0.00    +0.000 F 
ATOM     28  F   UNL     1       7.117   8.499  17.565  0.00  0.00    +0.000 F 
ENDBRANCH  21  25
ENDBRANCH  18  19
ENDBRANCH   8  18
TORSDOF 5
ENDMDL
MODEL 8
REMARK VINA RESULT:      -7.8      2.832      3.297
REMARK  Name = 
REMARK  5 active torsions:
REMARK  status: ('A' for Active; 'I' for Inactive)
REMARK    1  A    between atoms: C_2  and  C_3
REMARK    2  A    between atoms: C_5  and  C_6
REMARK    3  A    between atoms: C_13  and  C_14
REMARK    4  A    between atoms: C_14  and  N_15
REMARK    5  A    between atoms: C_17  and  C_18
REMARK                            x       y       z     vdW  Elec       q    Type
REMARK                         _______ _______ _______ _____ _____    ______ ____
ROOT
ATOM      1  C   UNL     1       0.072   9.990  19.823  0.00  0.00    +0.000 A 
ATOM      2  C   UNL     1      -0.258   9.963  21.130  0.00  0.00    +0.000 A 
ATOM      3  F   UNL     1      -1.183  10.806  21.634  0.00  0.00    +0.000 F 
ATOM      4  C   UNL     1       0.306   9.015  22.042  0.00  0.00    +0.000 A 
ATOM      5  C   UNL     1       1.178   8.104  21.608  0.00  0.00    +0.000 A 
ATOM      6  C   UNL     1       1.643   8.147  20.196  0.00  0.00    +0.000 A 
ATOM      7  N   UNL     1       2.544   7.280  19.844  0.00  0.00    +0.000 NA
ATOM      8  C   UNL     1       3.009   7.319  18.555  0.00  0.00    +0.000 A 
ATOM      9  C   UNL     1       2.643   8.270  17.690  0.00  0.00    +0.000 A 
ATOM     10  C   UNL     1       1.681   9.300  18.113  0.00  0.00    +0.000 A 
ATOM     11  O   UNL     1       1.524  10.256  17.357  0.00  0.00    +0.000 OA
ATOM     12  N   UNL     1       1.097   9.123  19.364  0.00  0.00    +0.000 N 
ENDROOT
BRANCH   1  15
ATOM     13  C   UNL     1      -1.967  10.358  18.316  0.00  0.00    +0.000 C 
ATOM     14  C   UNL     1      -1.919  11.584  19.186  0.00  0.00    +0.000 C 
ATOM     15  C   UNL     1      -0.632  10.869  18.849  0.00  0.00    +0.000 C 
BRANCH  13  17
ATOM     16  N   UNL     1      -2.473  10.587  15.783  0.00  0.00    +0.000 NA
ATOM     17  C   UNL     1      -2.268  10.488  16.923  0.00  0.00    +0.000 C 
ENDBRANCH  13  17
ENDBRANCH   1  15
BRANCH   8  18
ATOM     18  C   UNL     1       4.047   6.285  18.174  0.00  0.00    +0.000 C 
BRANCH  18  19
ATOM     19  N   UNL     1       3.686   4.950  18.635  0.00  0.00    +0.000 N 
ATOM     20  N   UNL     1       3.183   4.806  19.888  0.00  0.00    +0.000 NA
ATOM     21  C   UNL     1       2.983   3.477  20.024  0.00  0.00    +0.000 A 
ATOM     22  C   UNL     1       3.333   2.786  18.829  0.00  0.00    +0.000 A 
ATOM     23  C   UNL     1       3.765   3.762  17.974  0.00  0.00    +0.000 A 
ATOM     24 CL   UNL     1       4.341   3.648  16.381  0.00  0.00    +0.000 Cl
BRANCH  21  25
ATOM     25  C   UNL     1       2.478   2.841  21.293  0.00  0.00    +0.000 C 
ATOM     26  F   UNL     1       3.353   1.967  21.854  0.00  0.00    +0.000 F 
ATOM     27  F   UNL     1       2.192   3.774  22.242  0.00  0.00    +0.000 F 
ATOM     28  F   UNL     1       1.323   2.153  21.074  0.00  0.00    +0.000 F 
ENDBRANCH  21  25
ENDBRANCH  18  19
ENDBRANCH   8  18
TORSDOF 5
ENDMDL
MODEL 9
REMARK VINA RESULT:      -7.7      3.188      7.858
REMARK  Name = 
REMARK  5 active torsions:
REMARK  status: ('A' for Active; 'I' for Inactive)
REMARK    1  A    between atoms: C_2  and  C_3
REMARK    2  A    between atoms: C_5  and  C_6
REMARK    3  A    between atoms: C_13  and  C_14
REMARK    4  A    between atoms: C_14  and  N_15
REMARK    5  A    between atoms: C_17  and  C_18
REMARK                            x       y       z     vdW  Elec       q    Type
REMARK                         _______ _______ _______ _____ _____    ______ ____
ROOT
ATOM      1  C   UNL     1       3.272   5.756  18.699  0.00  0.00    +0.000 A 
ATOM      2  C   UNL     1       2.869   4.806  19.566  0.00  0.00    +0.000 A 
ATOM      3  F   UNL     1       3.344   3.545  19.490  0.00  0.00    +0.000 F 
ATOM      4  C   UNL     1       1.965   5.084  20.639  0.00  0.00    +0.000 A 
ATOM      5  C   UNL     1       1.503   6.321  20.824  0.00  0.00    +0.000 A 
ATOM      6  C   UNL     1       1.846   7.386  19.845  0.00  0.00    +0.000 A 
ATOM      7  N   UNL     1       1.314   8.556  20.032  0.00  0.00    +0.000 NA
ATOM      8  C   UNL     1       1.592   9.546  19.126  0.00  0.00    +0.000 A 
ATOM      9  C   UNL     1       2.304   9.322  18.016  0.00  0.00    +0.000 A 
ATOM     10  C   UNL     1       2.841   7.976  17.763  0.00  0.00    +0.000 A 
ATOM     11  O   UNL     1       3.318   7.770  16.648  0.00  0.00    +0.000 OA
ATOM     12  N   UNL     1       2.692   7.047  18.788  0.00  0.00    +0.000 N 
ENDROOT
BRANCH   1  15
ATOM     13  C   UNL     1       5.775   5.616  18.166  0.00  0.00    +0.000 C 
ATOM     14  C   UNL     1       5.227   4.284  17.735  0.00  0.00    +0.000 C 
ATOM     15  C   UNL     1       4.333   5.501  17.684  0.00  0.00    +0.000 C 
BRANCH  13  17
ATOM     16  N   UNL     1       7.503   6.822  16.654  0.00  0.00    +0.000 NA
ATOM     17  C   UNL     1       6.742   6.284  17.350  0.00  0.00    +0.000 C 
ENDBRANCH  13  17
ENDBRANCH   1  15
BRANCH   8  18
ATOM     18  C   UNL     1       0.969  10.900  19.384  0.00  0.00    +0.000 C 
BRANCH  18  19
ATOM     19  N   UNL     1      -0.419  10.960  18.942  0.00  0.00    +0.000 N 
ATOM     20  N   UNL     1      -0.737  10.458  17.720  0.00  0.00    +0.000 NA
ATOM     21  C   UNL     1      -2.063  10.685  17.594  0.00  0.00    +0.000 A 
ATOM     22  C   UNL     1      -2.586  11.305  18.764  0.00  0.00    +0.000 A 
ATOM     23  C   UNL     1      -1.509  11.451  19.594  0.00  0.00    +0.000 A 
ATOM     24 CL   UNL     1      -1.406  12.124  21.150  0.00  0.00    +0.000 Cl
BRANCH  21  25
ATOM     25  C   UNL     1      -2.848  10.337  16.356  0.00  0.00    +0.000 C 
ATOM     26  F   UNL     1      -2.448   9.184  15.759  0.00  0.00    +0.000 F 
ATOM     27  F   UNL     1      -4.175  10.199  16.627  0.00  0.00    +0.000 F 
ATOM     28  F   UNL     1      -2.751  11.319  15.418  0.00  0.00    +0.000 F 
ENDBRANCH  21  25
ENDBRANCH  18  19
ENDBRANCH   8  18
TORSDOF 5
ENDMDL
