MODEL 1
REMARK VINA RESULT:      -6.7      0.000      0.000
REMARK  Name = 
REMARK  5 active torsions:
REMARK  status: ('A' for Active; 'I' for Inactive)
REMARK    1  A    between atoms: C_1  and  C_2
REMARK    2  A    between atoms: C_2  and  N_3
REMARK    3  A    between atoms: C_2  and  C_14
REMARK    4  A    between atoms: C_10  and  C_11
REMARK    5  A    between atoms: C_11  and  O_12
REMARK                            x       y       z     vdW  Elec       q    Type
REMARK                         _______ _______ _______ _____ _____    ______ ____
ROOT
ATOM      1  N   UNL     1       2.026   7.890  18.680  0.00  0.00    +0.000 N 
ATOM      2  C   UNL     1       1.650   8.732  19.696  0.00  0.00    +0.000 C 
ATOM      3  O   UNL     1       1.976   8.533  20.865  0.00  0.00    +0.000 OA
ATOM      4  N   UNL     1       0.883   9.819  19.298  0.00  0.00    +0.000 N 
ATOM      5  C   UNL     1       0.525  10.836  20.288  0.00  0.00    +0.000 C 
ATOM      6  C   UNL     1      -0.986  10.883  20.503  0.00  0.00    +0.000 C 
ATOM      7  C   UNL     1      -1.731  11.057  19.178  0.00  0.00    +0.000 C 
ATOM      8  C   UNL     1      -1.300   9.990  18.156  0.00  0.00    +0.000 C 
ATOM      9  C   UNL     1       0.227   9.974  18.001  0.00  0.00    +0.000 C 
ATOM     10  H   UNL     1       2.205   8.365  17.810  0.00  0.00    +0.000 HD
ENDROOT
BRANCH   1  12
ATOM     11  C   UNL     1       3.894   6.553  17.793  0.00  0.00    +0.000 C 
ATOM     12  C   UNL     1       2.883   6.740  18.930  0.00  0.00    +0.000 C 
BRANCH  12  13
ATOM     13  C   UNL     1       2.096   5.449  19.099  0.00  0.00    +0.000 A 
ATOM     14  C   UNL     1       1.713   5.053  20.394  0.00  0.00    +0.000 A 
ATOM     15  C   UNL     1       1.104   3.817  20.617  0.00  0.00    +0.000 A 
ATOM     16  C   UNL     1       0.859   2.959  19.549  0.00  0.00    +0.000 A 
ATOM     17  C   UNL     1       1.212   3.342  18.257  0.00  0.00    +0.000 A 
ATOM     18  C   UNL     1       1.828   4.576  18.033  0.00  0.00    +0.000 A 
ENDBRANCH  12  13
ENDBRANCH   1  12
BRANCH   8  19
ATOM     19  C   UNL     1      -1.960  10.213  16.793  0.00  0.00    +0.000 C 
BRANCH  19  20
ATOM     20  O   UNL     1      -2.022  11.596  16.476  0.00  0.00    +0.000 OA
ATOM     21  H   UNL     1      -1.585  12.084  17.195  0.00  0.00    +0.000 HD
ENDBRANCH  19  20
ENDBRANCH   8  19
TORSDOF 4
ENDMDL
MODEL 2
REMARK VINA RESULT:      -6.7      5.162      7.573
REMARK  Name = 
REMARK  5 active torsions:
REMARK  status: ('A' for Active; 'I' for Inactive)
REMARK    1  A    between atoms: C_1  and  C_2
REMARK    2  A    between atoms: C_2  and  N_3
REMARK    3  A    between atoms: C_2  and  C_14
REMARK    4  A    between atoms: C_10  and  C_11
REMARK    5  A    between atoms: C_11  and  O_12
REMARK                            x       y       z     vdW  Elec       q    Type
REMARK                         _______ _______ _______ _____ _____    ______ ____
ROOT
ATOM      1  N   UNL     1       4.547   4.056  17.462  0.00  0.00    +0.000 N 
ATOM      2  C   UNL     1       3.287   4.385  17.893  0.00  0.00    +0.000 C 
ATOM      3  O   UNL     1       2.725   5.420  17.542  0.00  0.00    +0.000 OA
ATOM      4  N   UNL     1       2.703   3.460  18.748  0.00  0.00    +0.000 N 
ATOM      5  C   UNL     1       1.318   3.662  19.176  0.00  0.00    +0.000 C 
ATOM      6  C   UNL     1       1.238   3.890  20.684  0.00  0.00    +0.000 C 
ATOM      7  C   UNL     1       1.939   2.768  21.453  0.00  0.00    +0.000 C 
ATOM      8  C   UNL     1       3.378   2.565  20.950  0.00  0.00    +0.000 C 
ATOM      9  C   UNL     1       3.396   2.366  19.428  0.00  0.00    +0.000 C 
ATOM     10  H   UNL     1       4.681   3.066  17.331  0.00  0.00    +0.000 HD
ENDROOT
BRANCH   1  12
ATOM     11  C   UNL     1       5.888   4.051  15.398  0.00  0.00    +0.000 C 
ATOM     12  C   UNL     1       5.265   4.896  16.514  0.00  0.00    +0.000 C 
BRANCH  12  13
ATOM     13  C   UNL     1       6.363   5.718  17.174  0.00  0.00    +0.000 A 
ATOM     14  C   UNL     1       7.040   5.177  18.282  0.00  0.00    +0.000 A 
ATOM     15  C   UNL     1       7.963   5.939  19.001  0.00  0.00    +0.000 A 
ATOM     16  C   UNL     1       8.230   7.251  18.620  0.00  0.00    +0.000 A 
ATOM     17  C   UNL     1       7.585   7.796  17.513  0.00  0.00    +0.000 A 
ATOM     18  C   UNL     1       6.655   7.038  16.796  0.00  0.00    +0.000 A 
ENDBRANCH  12  13
ENDBRANCH   1  12
BRANCH   8  19
ATOM     19  C   UNL     1       4.057   1.380  21.639  0.00  0.00    +0.000 C 
BRANCH  19  20
ATOM     20  O   UNL     1       5.456   1.383  21.399  0.00  0.00    +0.000 OA
ATOM     21  H   UNL     1       5.662   2.166  20.859  0.00  0.00    +0.000 HD
ENDBRANCH  19  20
ENDBRANCH   8  19
TORSDOF 4
ENDMDL
MODEL 3
REMARK VINA RESULT:      -6.6      3.765      6.814
REMARK  Name = 
REMARK  5 active torsions:
REMARK  status: ('A' for Active; 'I' for Inactive)
REMARK    1  A    between atoms: C_1  and  C_2
REMARK    2  A    between atoms: C_2  and  N_3
REMARK    3  A    between atoms: C_2  and  C_14
REMARK    4  A    between atoms: C_10  and  C_11
REMARK    5  A    between atoms: C_11  and  O_12
REMARK                            x       y       z     vdW  Elec       q    Type
REMARK                         _______ _______ _______ _____ _____    ______ ____
ROOT
ATOM      1  N   UNL     1       3.379   6.215  18.951  0.00  0.00    +0.000 N 
ATOM      2  C   UNL     1       3.698   5.598  17.767  0.00  0.00    +0.000 C 
ATOM      3  O   UNL     1       2.873   4.950  17.126  0.00  0.00    +0.000 OA
ATOM      4  N   UNL     1       5.013   5.766  17.357  0.00  0.00    +0.000 N 
ATOM      5  C   UNL     1       5.424   5.242  16.055  0.00  0.00    +0.000 C 
ATOM      6  C   UNL     1       6.470   4.140  16.212  0.00  0.00    +0.000 C 
ATOM      7  C   UNL     1       7.652   4.613  17.062  0.00  0.00    +0.000 C 
ATOM      8  C   UNL     1       7.174   5.188  18.406  0.00  0.00    +0.000 C 
ATOM      9  C   UNL     1       6.109   6.271  18.184  0.00  0.00    +0.000 C 
ATOM     10  H   UNL     1       3.862   7.088  19.091  0.00  0.00    +0.000 HD
ENDROOT
BRANCH   1  12
ATOM     11  C   UNL     1       1.791   7.331  20.465  0.00  0.00    +0.000 C 
ATOM     12  C   UNL     1       2.023   6.180  19.480  0.00  0.00    +0.000 C 
BRANCH  12  13
ATOM     13  C   UNL     1       1.701   4.867  20.180  0.00  0.00    +0.000 A 
ATOM     14  C   UNL     1       2.378   4.552  21.371  0.00  0.00    +0.000 A 
ATOM     15  C   UNL     1       2.215   3.306  21.981  0.00  0.00    +0.000 A 
ATOM     16  C   UNL     1       1.366   2.359  21.416  0.00  0.00    +0.000 A 
ATOM     17  C   UNL     1       0.671   2.662  20.247  0.00  0.00    +0.000 A 
ATOM     18  C   UNL     1       0.839   3.905  19.631  0.00  0.00    +0.000 A 
ENDBRANCH  12  13
ENDBRANCH   1  12
BRANCH   8  19
ATOM     19  C   UNL     1       8.335   5.759  19.222  0.00  0.00    +0.000 C 
BRANCH  19  20
ATOM     20  O   UNL     1       8.216   5.409  20.593  0.00  0.00    +0.000 OA
ATOM     21  H   UNL     1       7.371   4.939  20.706  0.00  0.00    +0.000 HD
ENDBRANCH  19  20
ENDBRANCH   8  19
TORSDOF 4
ENDMDL
MODEL 4
REMARK VINA RESULT:      -6.6      5.150      7.590
REMARK  Name = 
REMARK  5 active torsions:
REMARK  status: ('A' for Active; 'I' for Inactive)
REMARK    1  A    between atoms: C_1  and  C_2
REMARK    2  A    between atoms: C_2  and  N_3
REMARK    3  A    between atoms: C_2  and  C_14
REMARK    4  A    between atoms: C_10  and  C_11
REMARK    5  A    between atoms: C_11  and  O_12
REMARK                            x       y       z     vdW  Elec       q    Type
REMARK                         _______ _______ _______ _____ _____    ______ ____
ROOT
ATOM      1  N   UNL     1       4.455   4.249  17.548  0.00  0.00    +0.000 N 
ATOM      2  C   UNL     1       3.162   4.475  17.949  0.00  0.00    +0.000 C 
ATOM      3  O   UNL     1       2.544   5.487  17.625  0.00  0.00    +0.000 OA
ATOM      4  N   UNL     1       2.615   3.475  18.741  0.00  0.00    +0.000 N 
ATOM      5  C   UNL     1       1.207   3.566  19.130  0.00  0.00    +0.000 C 
ATOM      6  C   UNL     1       1.065   3.718  20.643  0.00  0.00    +0.000 C 
ATOM      7  C   UNL     1       1.814   2.609  21.385  0.00  0.00    +0.000 C 
ATOM      8  C   UNL     1       3.279   2.525  20.923  0.00  0.00    +0.000 C 
ATOM      9  C   UNL     1       3.358   2.398  19.396  0.00  0.00    +0.000 C 
ATOM     10  H   UNL     1       4.658   3.278  17.377  0.00  0.00    +0.000 HD
ENDROOT
BRANCH   1  12
ATOM     11  C   UNL     1       5.817   4.433  15.505  0.00  0.00    +0.000 C 
ATOM     12  C   UNL     1       5.144   5.178  16.663  0.00  0.00    +0.000 C 
BRANCH  12  13
ATOM     13  C   UNL     1       6.197   6.004  17.388  0.00  0.00    +0.000 A 
ATOM     14  C   UNL     1       6.479   7.301  16.921  0.00  0.00    +0.000 A 
ATOM     15  C   UNL     1       7.522   8.050  17.469  0.00  0.00    +0.000 A 
ATOM     16  C   UNL     1       8.297   7.519  18.496  0.00  0.00    +0.000 A 
ATOM     17  C   UNL     1       8.019   6.244  18.985  0.00  0.00    +0.000 A 
ATOM     18  C   UNL     1       6.980   5.490  18.434  0.00  0.00    +0.000 A 
ENDBRANCH  12  13
ENDBRANCH   1  12
BRANCH   8  19
ATOM     19  C   UNL     1       4.013   1.355  21.582  0.00  0.00    +0.000 C 
BRANCH  19  20
ATOM     20  O   UNL     1       5.414   1.446  21.368  0.00  0.00    +0.000 OA
ATOM     21  H   UNL     1       5.766   2.109  21.987  0.00  0.00    +0.000 HD
ENDBRANCH  19  20
ENDBRANCH   8  19
TORSDOF 4
ENDMDL
MODEL 5
REMARK VINA RESULT:      -6.5      5.480      8.194
REMARK  Name = 
REMARK  5 active torsions:
REMARK  status: ('A' for Active; 'I' for Inactive)
REMARK    1  A    between atoms: C_1  and  C_2
REMARK    2  A    between atoms: C_2  and  N_3
REMARK    3  A    between atoms: C_2  and  C_14
REMARK    4  A    between atoms: C_10  and  C_11
REMARK    5  A    between atoms: C_11  and  O_12
REMARK                            x       y       z     vdW  Elec       q    Type
REMARK                         _______ _______ _______ _____ _____    ______ ____
ROOT
ATOM      1  N   UNL     1       4.977   4.693  16.099  0.00  0.00    +0.000 N 
ATOM      2  C   UNL     1       6.029   5.345  15.505  0.00  0.00    +0.000 C 
ATOM      3  O   UNL     1       6.361   6.483  15.830  0.00  0.00    +0.000 OA
ATOM      4  N   UNL     1       6.681   4.619  14.518  0.00  0.00    +0.000 N 
ATOM      5  C   UNL     1       7.883   5.180  13.900  0.00  0.00    +0.000 C 
ATOM      6  C   UNL     1       7.661   5.450  12.414  0.00  0.00    +0.000 C 
ATOM      7  C   UNL     1       7.151   4.201  11.692  0.00  0.00    +0.000 C 
ATOM      8  C   UNL     1       5.909   3.624  12.392  0.00  0.00    +0.000 C 
ATOM      9  C   UNL     1       6.186   3.397  13.885  0.00  0.00    +0.000 C 
ATOM     10  H   UNL     1       5.120   3.700  16.190  0.00  0.00    +0.000 HD
ENDROOT
BRANCH   1  12
ATOM     11  C   UNL     1       5.166   5.663  18.354  0.00  0.00    +0.000 C 
ATOM     12  C   UNL     1       4.233   5.301  17.193  0.00  0.00    +0.000 C 
BRANCH  12  13
ATOM     13  C   UNL     1       3.126   4.399  17.720  0.00  0.00    +0.000 A 
ATOM     14  C   UNL     1       2.234   4.913  18.679  0.00  0.00    +0.000 A 
ATOM     15  C   UNL     1       1.284   4.090  19.288  0.00  0.00    +0.000 A 
ATOM     16  C   UNL     1       1.204   2.744  18.942  0.00  0.00    +0.000 A 
ATOM     17  C   UNL     1       2.065   2.223  17.980  0.00  0.00    +0.000 A 
ATOM     18  C   UNL     1       3.022   3.043  17.375  0.00  0.00    +0.000 A 
ENDBRANCH  12  13
ENDBRANCH   1  12
BRANCH   8  19
ATOM     19  C   UNL     1       5.448   2.318  11.743  0.00  0.00    +0.000 C 
BRANCH  19  20
ATOM     20  O   UNL     1       6.558   1.502  11.395  0.00  0.00    +0.000 OA
ATOM     21  H   UNL     1       6.666   1.546  10.429  0.00  0.00    +0.000 HD
ENDBRANCH  19  20
ENDBRANCH   8  19
TORSDOF 4
ENDMDL
MODEL 6
REMARK VINA RESULT:      -6.5      5.597      6.758
REMARK  Name = 
REMARK  5 active torsions:
REMARK  status: ('A' for Active; 'I' for Inactive)
REMARK    1  A    between atoms: C_1  and  C_2
REMARK    2  A    between atoms: C_2  and  N_3
REMARK    3  A    between atoms: C_2  and  C_14
REMARK    4  A    between atoms: C_10  and  C_11
REMARK    5  A    between atoms: C_11  and  O_12
REMARK                            x       y       z     vdW  Elec       q    Type
REMARK                         _______ _______ _______ _____ _____    ______ ____
ROOT
ATOM      1  N   UNL     1       5.253   3.178  18.998  0.00  0.00    +0.000 N 
ATOM      2  C   UNL     1       5.157   4.535  18.818  0.00  0.00    +0.000 C 
ATOM      3  O   UNL     1       4.527   5.255  19.591  0.00  0.00    +0.000 OA
ATOM      4  N   UNL     1       5.827   5.024  17.705  0.00  0.00    +0.000 N 
ATOM      5  C   UNL     1       5.880   6.470  17.486  0.00  0.00    +0.000 C 
ATOM      6  C   UNL     1       5.146   6.857  16.204  0.00  0.00    +0.000 C 
ATOM      7  C   UNL     1       5.660   6.056  15.005  0.00  0.00    +0.000 C 
ATOM      8  C   UNL     1       5.620   4.545  15.290  0.00  0.00    +0.000 C 
ATOM      9  C   UNL     1       6.351   4.222  16.600  0.00  0.00    +0.000 C 
ATOM     10  H   UNL     1       6.141   2.797  18.714  0.00  0.00    +0.000 HD
ENDROOT
BRANCH   1  12
ATOM     11  C   UNL     1       5.116   1.068  20.259  0.00  0.00    +0.000 C 
ATOM     12  C   UNL     1       4.655   2.526  20.154  0.00  0.00    +0.000 C 
BRANCH  12  13
ATOM     13  C   UNL     1       3.134   2.555  20.121  0.00  0.00    +0.000 A 
ATOM     14  C   UNL     1       2.475   2.162  18.942  0.00  0.00    +0.000 A 
ATOM     15  C   UNL     1       1.090   2.292  18.816  0.00  0.00    +0.000 A 
ATOM     16  C   UNL     1       0.340   2.809  19.869  0.00  0.00    +0.000 A 
ATOM     17  C   UNL     1       0.973   3.184  21.051  0.00  0.00    +0.000 A 
ATOM     18  C   UNL     1       2.359   3.061  21.177  0.00  0.00    +0.000 A 
ENDBRANCH  12  13
ENDBRANCH   1  12
BRANCH   8  19
ATOM     19  C   UNL     1       6.226   3.736  14.141  0.00  0.00    +0.000 C 
BRANCH  19  20
ATOM     20  O   UNL     1       5.380   3.756  13.002  0.00  0.00    +0.000 OA
ATOM     21  H   UNL     1       5.733   3.116  12.359  0.00  0.00    +0.000 HD
ENDBRANCH  19  20
ENDBRANCH   8  19
TORSDOF 4
ENDMDL
MODEL 7
REMARK VINA RESULT:      -6.4      0.160      1.117
REMARK  Name = 
REMARK  5 active torsions:
REMARK  status: ('A' for Active; 'I' for Inactive)
REMARK    1  A    between atoms: C_1  and  C_2
REMARK    2  A    between atoms: C_2  and  N_3
REMARK    3  A    between atoms: C_2  and  C_14
REMARK    4  A    between atoms: C_10  and  C_11
REMARK    5  A    between atoms: C_11  and  O_12
REMARK                            x       y       z     vdW  Elec       q    Type
REMARK                         _______ _______ _______ _____ _____    ______ ____
ROOT
ATOM      1  N   UNL     1       2.112   7.887  18.651  0.00  0.00    +0.000 N 
ATOM      2  C   UNL     1       1.683   8.710  19.662  0.00  0.00    +0.000 C 
ATOM      3  O   UNL     1       1.993   8.520  20.836  0.00  0.00    +0.000 OA
ATOM      4  N   UNL     1       0.879   9.765  19.252  0.00  0.00    +0.000 N 
ATOM      5  C   UNL     1       0.460  10.763  20.237  0.00  0.00    +0.000 C 
ATOM      6  C   UNL     1      -1.056  10.747  20.423  0.00  0.00    +0.000 C 
ATOM      7  C   UNL     1      -1.782  10.894  19.084  0.00  0.00    +0.000 C 
ATOM      8  C   UNL     1      -1.287   9.850  18.068  0.00  0.00    +0.000 C 
ATOM      9  C   UNL     1       0.241   9.898  17.942  0.00  0.00    +0.000 C 
ATOM     10  H   UNL     1       2.288   8.372  17.786  0.00  0.00    +0.000 HD
ENDROOT
BRANCH   1  12
ATOM     11  C   UNL     1       4.006   6.588  17.764  0.00  0.00    +0.000 C 
ATOM     12  C   UNL     1       3.012   6.773  18.915  0.00  0.00    +0.000 C 
BRANCH  12  13
ATOM     13  C   UNL     1       2.270   5.462  19.135  0.00  0.00    +0.000 A 
ATOM     14  C   UNL     1       2.001   4.642  18.024  0.00  0.00    +0.000 A 
ATOM     15  C   UNL     1       1.214   3.496  18.152  0.00  0.00    +0.000 A 
ATOM     16  C   UNL     1       0.691   3.145  19.393  0.00  0.00    +0.000 A 
ATOM     17  C   UNL     1       0.964   3.933  20.508  0.00  0.00    +0.000 A 
ATOM     18  C   UNL     1       1.745   5.085  20.381  0.00  0.00    +0.000 A 
ENDBRANCH  12  13
ENDBRANCH   1  12
BRANCH   8  19
ATOM     19  C   UNL     1      -1.930  10.049  16.693  0.00  0.00    +0.000 C 
BRANCH  19  20
ATOM     20  O   UNL     1      -2.131  11.428  16.419  0.00  0.00    +0.000 OA
ATOM     21  H   UNL     1      -3.007  11.674  16.765  0.00  0.00    +0.000 HD
ENDBRANCH  19  20
ENDBRANCH   8  19
TORSDOF 4
ENDMDL
MODEL 8
REMARK VINA RESULT:      -6.4      3.817      7.156
REMARK  Name = 
REMARK  5 active torsions:
REMARK  status: ('A' for Active; 'I' for Inactive)
REMARK    1  A    between atoms: C_1  and  C_2
REMARK    2  A    between atoms: C_2  and  N_3
REMARK    3  A    between atoms: C_2  and  C_14
REMARK    4  A    between atoms: C_10  and  C_11
REMARK    5  A    between atoms: C_11  and  O_12
REMARK                            x       y       z     vdW  Elec       q    Type
REMARK                         _______ _______ _______ _____ _____    ______ ____
ROOT
ATOM      1  N   UNL     1       3.594   4.652  18.636  0.00  0.00    +0.000 N 
ATOM      2  C   UNL     1       4.934   4.932  18.726  0.00  0.00    +0.000 C 
ATOM      3  O   UNL     1       5.403   5.598  19.648  0.00  0.00    +0.000 OA
ATOM      4  N   UNL     1       5.710   4.404  17.704  0.00  0.00    +0.000 N 
ATOM      5  C   UNL     1       7.164   4.551  17.766  0.00  0.00    +0.000 C 
ATOM      6  C   UNL     1       7.679   5.409  16.613  0.00  0.00    +0.000 C 
ATOM      7  C   UNL     1       7.194   4.876  15.263  0.00  0.00    +0.000 C 
ATOM      8  C   UNL     1       5.666   4.704  15.252  0.00  0.00    +0.000 C 
ATOM      9  C   UNL     1       5.207   3.854  16.445  0.00  0.00    +0.000 C 
ATOM     10  H   UNL     1       3.399   3.743  18.249  0.00  0.00    +0.000 HD
ENDROOT
BRANCH   1  12
ATOM     11  C   UNL     1       1.382   4.242  19.636  0.00  0.00    +0.000 C 
ATOM     12  C   UNL     1       2.661   5.086  19.667  0.00  0.00    +0.000 C 
BRANCH  12  13
ATOM     13  C   UNL     1       2.280   6.553  19.532  0.00  0.00    +0.000 A 
ATOM     14  C   UNL     1       1.715   7.211  20.639  0.00  0.00    +0.000 A 
ATOM     15  C   UNL     1       1.230   8.516  20.529  0.00  0.00    +0.000 A 
ATOM     16  C   UNL     1       1.311   9.188  19.313  0.00  0.00    +0.000 A 
ATOM     17  C   UNL     1       1.886   8.560  18.211  0.00  0.00    +0.000 A 
ATOM     18  C   UNL     1       2.365   7.252  18.317  0.00  0.00    +0.000 A 
ENDBRANCH  12  13
ENDBRANCH   1  12
BRANCH   8  19
ATOM     19  C   UNL     1       5.177   4.075  13.945  0.00  0.00    +0.000 C 
BRANCH  19  20
ATOM     20  O   UNL     1       6.199   3.297  13.340  0.00  0.00    +0.000 OA
ATOM     21  H   UNL     1       5.795   2.791  12.613  0.00  0.00    +0.000 HD
ENDBRANCH  19  20
ENDBRANCH   8  19
TORSDOF 4
ENDMDL
MODEL 9
REMARK VINA RESULT:      -6.4      3.850      7.233
REMARK  Name = 
REMARK  5 active torsions:
REMARK  status: ('A' for Active; 'I' for Inactive)
REMARK    1  A    between atoms: C_1  and  C_2
REMARK    2  A    between atoms: C_2  and  N_3
REMARK    3  A    between atoms: C_2  and  C_14
REMARK    4  A    between atoms: C_10  and  C_11
REMARK    5  A    between atoms: C_11  and  O_12
REMARK                            x       y       z     vdW  Elec       q    Type
REMARK                         _______ _______ _______ _____ _____    ______ ____
ROOT
ATOM      1  N   UNL     1       3.611   4.480  18.586  0.00  0.00    +0.000 N 
ATOM      2  C   UNL     1       4.932   4.839  18.682  0.00  0.00    +0.000 C 
ATOM      3  O   UNL     1       5.359   5.518  19.613  0.00  0.00    +0.000 OA
ATOM      4  N   UNL     1       5.739   4.373  17.653  0.00  0.00    +0.000 N 
ATOM      5  C   UNL     1       7.181   4.606  17.719  0.00  0.00    +0.000 C 
ATOM      6  C   UNL     1       7.644   5.511  16.580  0.00  0.00    +0.000 C 
ATOM      7  C   UNL     1       7.193   4.969  15.221  0.00  0.00    +0.000 C 
ATOM      8  C   UNL     1       5.677   4.705  15.205  0.00  0.00    +0.000 C 
ATOM      9  C   UNL     1       5.271   3.812  16.385  0.00  0.00    +0.000 C 
ATOM     10  H   UNL     1       3.471   3.566  18.186  0.00  0.00    +0.000 HD
ENDROOT
BRANCH   1  12
ATOM     11  C   UNL     1       1.431   3.917  19.582  0.00  0.00    +0.000 C 
ATOM     12  C   UNL     1       2.653   4.841  19.621  0.00  0.00    +0.000 C 
BRANCH  12  13
ATOM     13  C   UNL     1       2.178   6.282  19.502  0.00  0.00    +0.000 A 
ATOM     14  C   UNL     1       2.336   6.948  18.273  0.00  0.00    +0.000 A 
ATOM     15  C   UNL     1       2.037   8.306  18.149  0.00  0.00    +0.000 A 
ATOM     16  C   UNL     1       1.567   9.020  19.248  0.00  0.00    +0.000 A 
ATOM     17  C   UNL     1       1.385   8.372  20.467  0.00  0.00    +0.000 A 
ATOM     18  C   UNL     1       1.690   7.015  20.596  0.00  0.00    +0.000 A 
ENDBRANCH  12  13
ENDBRANCH   1  12
BRANCH   8  19
ATOM     19  C   UNL     1       5.228   4.066  13.889  0.00  0.00    +0.000 C 
BRANCH  19  20
ATOM     20  O   UNL     1       6.265   3.277  13.325  0.00  0.00    +0.000 OA
ATOM     21  H   UNL     1       6.025   2.342  13.446  0.00  0.00    +0.000 HD
ENDBRANCH  19  20
ENDBRANCH   8  19
TORSDOF 4
ENDMDL
