MODEL 1
REMARK VINA RESULT:      -8.0      0.000      0.000
REMARK  Name = 
REMARK  7 active torsions:
REMARK  status: ('A' for Active; 'I' for Inactive)
REMARK    1  A    between atoms: C_1  and  C_2
REMARK    2  A    between atoms: C_2  and  C_3
REMARK    3  A    between atoms: C_2  and  C_4
REMARK    4  A    between atoms: C_4  and  N_5
REMARK    5  A    between atoms: C_4  and  C_14
REMARK    6  A    between atoms: C_6  and  C_8
REMARK    7  A    between atoms: C_14  and  C_16
REMARK                            x       y       z     vdW  Elec       q    Type
REMARK                         _______ _______ _______ _____ _____    ______ ____
ROOT
ATOM      1  C   UNL     1       6.307   4.989  17.086  0.00  0.00    +0.000 C 
ENDROOT
BRANCH   1   2
ATOM      2  N   UNL     1       5.089   4.927  17.890  0.00  0.00    +0.000 N 
ATOM      3  C   UNL     1       4.204   3.875  17.833  0.00  0.00    +0.000 C 
ATOM      4  O   UNL     1       4.335   2.915  17.086  0.00  0.00    +0.000 OA
ATOM      5  H   UNL     1       4.966   5.667  18.571  0.00  0.00    +0.000 HD
BRANCH   3   6
ATOM      6  C   UNL     1       3.075   3.933  18.797  0.00  0.00    +0.000 A 
ATOM      7  C   UNL     1       1.969   3.085  18.676  0.00  0.00    +0.000 A 
ATOM      8  C   UNL     1       0.908   3.195  19.576  0.00  0.00    +0.000 A 
ATOM      9  C   UNL     1       0.953   4.146  20.597  0.00  0.00    +0.000 A 
ATOM     10  C   UNL     1       2.066   4.978  20.732  0.00  0.00    +0.000 A 
ATOM     11  C   UNL     1       3.130   4.868  19.837  0.00  0.00    +0.000 A 
ENDBRANCH   3   6
ENDBRANCH   1   2
BRANCH   1  13
ATOM     12  C   UNL     1       7.513   7.242  17.418  0.00  0.00    +0.000 C 
ATOM     13  C   UNL     1       7.443   5.761  17.800  0.00  0.00    +0.000 C 
ATOM     14  C   UNL     1       7.345   5.630  19.325  0.00  0.00    +0.000 C 
ENDBRANCH   1  13
BRANCH   1  15
ATOM     15  C   UNL     1       5.894   5.645  15.758  0.00  0.00    +0.000 C 
ATOM     16  O   UNL     1       5.226   6.683  15.730  0.00  0.00    +0.000 OA
BRANCH  15  17
ATOM     17  C   UNL     1       6.269   4.988  14.470  0.00  0.00    +0.000 A 
ATOM     18  C   UNL     1       7.441   5.410  13.826  0.00  0.00    +0.000 A 
ATOM     19  C   UNL     1       7.806   4.861  12.595  0.00  0.00    +0.000 A 
ATOM     20  C   UNL     1       7.014   3.876  12.009  0.00  0.00    +0.000 A 
ATOM     21  C   UNL     1       5.862   3.433  12.657  0.00  0.00    +0.000 A 
ATOM     22  C   UNL     1       5.486   3.988  13.883  0.00  0.00    +0.000 A 
ENDBRANCH  15  17
ENDBRANCH   1  15
TORSDOF 5
ENDMDL
MODEL 2
REMARK VINA RESULT:      -8.0      0.092      1.056
REMARK  Name = 
REMARK  7 active torsions:
REMARK  status: ('A' for Active; 'I' for Inactive)
REMARK    1  A    between atoms: C_1  and  C_2
REMARK    2  A    between atoms: C_2  and  C_3
REMARK    3  A    between atoms: C_2  and  C_4
REMARK    4  A    between atoms: C_4  and  N_5
REMARK    5  A    between atoms: C_4  and  C_14
REMARK    6  A    between atoms: C_6  and  C_8
REMARK    7  A    between atoms: C_14  and  C_16
REMARK                            x       y       z     vdW  Elec       q    Type
REMARK                         _______ _______ _______ _____ _____    ______ ____
ROOT
ATOM      1  C   UNL     1       6.310   5.006  17.100  0.00  0.00    +0.000 C 
ENDROOT
BRANCH   1   2
ATOM      2  N   UNL     1       5.093   4.962  17.907  0.00  0.00    +0.000 N 
ATOM      3  C   UNL     1       4.170   3.945  17.821  0.00  0.00    +0.000 C 
ATOM      4  O   UNL     1       4.264   3.005  17.044  0.00  0.00    +0.000 OA
ATOM      5  H   UNL     1       4.999   5.684  18.611  0.00  0.00    +0.000 HD
BRANCH   3   6
ATOM      6  C   UNL     1       3.048   4.013  18.792  0.00  0.00    +0.000 A 
ATOM      7  C   UNL     1       2.984   5.016  19.765  0.00  0.00    +0.000 A 
ATOM      8  C   UNL     1       1.936   5.024  20.687  0.00  0.00    +0.000 A 
ATOM      9  C   UNL     1       0.951   4.037  20.634  0.00  0.00    +0.000 A 
ATOM     10  C   UNL     1       1.001   3.048  19.650  0.00  0.00    +0.000 A 
ATOM     11  C   UNL     1       2.045   3.038  18.724  0.00  0.00    +0.000 A 
ENDBRANCH   3   6
ENDBRANCH   1   2
BRANCH   1  13
ATOM     12  C   UNL     1       7.527   7.251  17.440  0.00  0.00    +0.000 C 
ATOM     13  C   UNL     1       7.457   5.766  17.808  0.00  0.00    +0.000 C 
ATOM     14  C   UNL     1       7.378   5.619  19.332  0.00  0.00    +0.000 C 
ENDBRANCH   1  13
BRANCH   1  15
ATOM     15  C   UNL     1       5.902   5.661  15.770  0.00  0.00    +0.000 C 
ATOM     16  O   UNL     1       5.225   6.693  15.739  0.00  0.00    +0.000 OA
BRANCH  15  17
ATOM     17  C   UNL     1       6.293   5.010  14.484  0.00  0.00    +0.000 A 
ATOM     18  C   UNL     1       7.461   5.451  13.845  0.00  0.00    +0.000 A 
ATOM     19  C   UNL     1       7.840   4.908  12.616  0.00  0.00    +0.000 A 
ATOM     20  C   UNL     1       7.067   3.911  12.026  0.00  0.00    +0.000 A 
ATOM     21  C   UNL     1       5.919   3.450  12.668  0.00  0.00    +0.000 A 
ATOM     22  C   UNL     1       5.528   3.999  13.892  0.00  0.00    +0.000 A 
ENDBRANCH  15  17
ENDBRANCH   1  15
TORSDOF 5
ENDMDL
MODEL 3
REMARK VINA RESULT:      -8.0      1.562      6.413
REMARK  Name = 
REMARK  7 active torsions:
REMARK  status: ('A' for Active; 'I' for Inactive)
REMARK    1  A    between atoms: C_1  and  C_2
REMARK    2  A    between atoms: C_2  and  C_3
REMARK    3  A    between atoms: C_2  and  C_4
REMARK    4  A    between atoms: C_4  and  N_5
REMARK    5  A    between atoms: C_4  and  C_14
REMARK    6  A    between atoms: C_6  and  C_8
REMARK    7  A    between atoms: C_14  and  C_16
REMARK                            x       y       z     vdW  Elec       q    Type
REMARK                         _______ _______ _______ _____ _____    ______ ____
ROOT
ATOM      1  C   UNL     1       5.124   6.202  17.824  0.00  0.00    +0.000 C 
ENDROOT
BRANCH   1   2
ATOM      2  N   UNL     1       5.296   5.621  16.495  0.00  0.00    +0.000 N 
ATOM      3  C   UNL     1       6.468   5.710  15.781  0.00  0.00    +0.000 C 
ATOM      4  O   UNL     1       7.460   6.308  16.175  0.00  0.00    +0.000 OA
ATOM      5  H   UNL     1       4.524   5.061  16.150  0.00  0.00    +0.000 HD
BRANCH   3   6
ATOM      6  C   UNL     1       6.494   4.971  14.493  0.00  0.00    +0.000 A 
ATOM      7  C   UNL     1       7.526   5.157  13.566  0.00  0.00    +0.000 A 
ATOM      8  C   UNL     1       7.496   4.476  12.348  0.00  0.00    +0.000 A 
ATOM      9  C   UNL     1       6.442   3.608  12.058  0.00  0.00    +0.000 A 
ATOM     10  C   UNL     1       5.423   3.405  12.991  0.00  0.00    +0.000 A 
ATOM     11  C   UNL     1       5.451   4.081  14.211  0.00  0.00    +0.000 A 
ENDBRANCH   3   6
ENDBRANCH   1   2
BRANCH   1  13
ATOM     12  C   UNL     1       5.498   3.758  18.553  0.00  0.00    +0.000 C 
ATOM     13  C   UNL     1       5.569   5.236  18.949  0.00  0.00    +0.000 C 
ATOM     14  C   UNL     1       6.980   5.565  19.451  0.00  0.00    +0.000 C 
ENDBRANCH   1  13
BRANCH   1  15
ATOM     15  C   UNL     1       3.635   6.576  17.924  0.00  0.00    +0.000 C 
ATOM     16  O   UNL     1       3.216   7.668  17.528  0.00  0.00    +0.000 OA
BRANCH  15  17
ATOM     17  C   UNL     1       2.681   5.616  18.555  0.00  0.00    +0.000 A 
ATOM     18  C   UNL     1       2.370   5.786  19.913  0.00  0.00    +0.000 A 
ATOM     19  C   UNL     1       1.523   4.885  20.560  0.00  0.00    +0.000 A 
ATOM     20  C   UNL     1       0.966   3.821  19.854  0.00  0.00    +0.000 A 
ATOM     21  C   UNL     1       1.250   3.662  18.498  0.00  0.00    +0.000 A 
ATOM     22  C   UNL     1       2.108   4.554  17.849  0.00  0.00    +0.000 A 
ENDBRANCH  15  17
ENDBRANCH   1  15
TORSDOF 5
ENDMDL
MODEL 4
REMARK VINA RESULT:      -7.9      0.057      1.055
REMARK  Name = 
REMARK  7 active torsions:
REMARK  status: ('A' for Active; 'I' for Inactive)
REMARK    1  A    between atoms: C_1  and  C_2
REMARK    2  A    between atoms: C_2  and  C_3
REMARK    3  A    between atoms: C_2  and  C_4
REMARK    4  A    between atoms: C_4  and  N_5
REMARK    5  A    between atoms: C_4  and  C_14
REMARK    6  A    between atoms: C_6  and  C_8
REMARK    7  A    between atoms: C_14  and  C_16
REMARK                            x       y       z     vdW  Elec       q    Type
REMARK                         _______ _______ _______ _____ _____    ______ ____
ROOT
ATOM      1  C   UNL     1       6.310   5.011  17.084  0.00  0.00    +0.000 C 
ENDROOT
BRANCH   1   2
ATOM      2  N   UNL     1       5.096   4.937  17.893  0.00  0.00    +0.000 N 
ATOM      3  C   UNL     1       4.220   3.878  17.840  0.00  0.00    +0.000 C 
ATOM      4  O   UNL     1       4.356   2.920  17.092  0.00  0.00    +0.000 OA
ATOM      5  H   UNL     1       4.970   5.676  18.575  0.00  0.00    +0.000 HD
BRANCH   3   6
ATOM      6  C   UNL     1       3.095   3.925  18.809  0.00  0.00    +0.000 A 
ATOM      7  C   UNL     1       1.986   3.081  18.681  0.00  0.00    +0.000 A 
ATOM      8  C   UNL     1       0.929   3.182  19.587  0.00  0.00    +0.000 A 
ATOM      9  C   UNL     1       0.981   4.119  20.620  0.00  0.00    +0.000 A 
ATOM     10  C   UNL     1       2.095   4.947  20.761  0.00  0.00    +0.000 A 
ATOM     11  C   UNL     1       3.156   4.847  19.860  0.00  0.00    +0.000 A 
ENDBRANCH   3   6
ENDBRANCH   1   2
BRANCH   1  13
ATOM     12  C   UNL     1       7.522   7.256  17.447  0.00  0.00    +0.000 C 
ATOM     13  C   UNL     1       7.451   5.768  17.805  0.00  0.00    +0.000 C 
ATOM     14  C   UNL     1       7.362   5.611  19.328  0.00  0.00    +0.000 C 
ENDBRANCH   1  13
BRANCH   1  15
ATOM     15  C   UNL     1       5.891   5.689  15.769  0.00  0.00    +0.000 C 
ATOM     16  O   UNL     1       5.206   6.716  15.762  0.00  0.00    +0.000 OA
BRANCH  15  17
ATOM     17  C   UNL     1       6.282   5.067  14.469  0.00  0.00    +0.000 A 
ATOM     18  C   UNL     1       5.449   4.076  13.930  0.00  0.00    +0.000 A 
ATOM     19  C   UNL     1       5.798   3.431  12.742  0.00  0.00    +0.000 A 
ATOM     20  C   UNL     1       6.971   3.782  12.077  0.00  0.00    +0.000 A 
ATOM     21  C   UNL     1       7.790   4.784  12.594  0.00  0.00    +0.000 A 
ATOM     22  C   UNL     1       7.451   5.424  13.788  0.00  0.00    +0.000 A 
ENDBRANCH  15  17
ENDBRANCH   1  15
TORSDOF 5
ENDMDL
MODEL 5
REMARK VINA RESULT:      -7.9      1.555      6.436
REMARK  Name = 
REMARK  7 active torsions:
REMARK  status: ('A' for Active; 'I' for Inactive)
REMARK    1  A    between atoms: C_1  and  C_2
REMARK    2  A    between atoms: C_2  and  C_3
REMARK    3  A    between atoms: C_2  and  C_4
REMARK    4  A    between atoms: C_4  and  N_5
REMARK    5  A    between atoms: C_4  and  C_14
REMARK    6  A    between atoms: C_6  and  C_8
REMARK    7  A    between atoms: C_14  and  C_16
REMARK                            x       y       z     vdW  Elec       q    Type
REMARK                         _______ _______ _______ _____ _____    ______ ____
ROOT
ATOM      1  C   UNL     1       5.138   6.189  17.848  0.00  0.00    +0.000 C 
ENDROOT
BRANCH   1   2
ATOM      2  N   UNL     1       5.309   5.613  16.517  0.00  0.00    +0.000 N 
ATOM      3  C   UNL     1       6.475   5.718  15.796  0.00  0.00    +0.000 C 
ATOM      4  O   UNL     1       7.462   6.326  16.185  0.00  0.00    +0.000 OA
ATOM      5  H   UNL     1       4.542   5.044  16.177  0.00  0.00    +0.000 HD
BRANCH   3   6
ATOM      6  C   UNL     1       6.502   4.981  14.507  0.00  0.00    +0.000 A 
ATOM      7  C   UNL     1       7.534   5.167  13.581  0.00  0.00    +0.000 A 
ATOM      8  C   UNL     1       7.505   4.489  12.362  0.00  0.00    +0.000 A 
ATOM      9  C   UNL     1       6.450   3.622  12.070  0.00  0.00    +0.000 A 
ATOM     10  C   UNL     1       5.431   3.418  13.001  0.00  0.00    +0.000 A 
ATOM     11  C   UNL     1       5.459   4.091  14.223  0.00  0.00    +0.000 A 
ENDBRANCH   3   6
ENDBRANCH   1   2
BRANCH   1  13
ATOM     12  C   UNL     1       5.531   3.752  18.587  0.00  0.00    +0.000 C 
ATOM     13  C   UNL     1       5.615   5.233  18.968  0.00  0.00    +0.000 C 
ATOM     14  C   UNL     1       7.040   5.565  19.427  0.00  0.00    +0.000 C 
ENDBRANCH   1  13
BRANCH   1  15
ATOM     15  C   UNL     1       3.644   6.533  17.963  0.00  0.00    +0.000 C 
ATOM     16  O   UNL     1       3.194   7.607  17.553  0.00  0.00    +0.000 OA
BRANCH  15  17
ATOM     17  C   UNL     1       2.720   5.565  18.629  0.00  0.00    +0.000 A 
ATOM     18  C   UNL     1       2.157   4.543  17.851  0.00  0.00    +0.000 A 
ATOM     19  C   UNL     1       1.249   3.646  18.416  0.00  0.00    +0.000 A 
ATOM     20  C   UNL     1       0.911   3.752  19.763  0.00  0.00    +0.000 A 
ATOM     21  C   UNL     1       1.487   4.750  20.548  0.00  0.00    +0.000 A 
ATOM     22  C   UNL     1       2.387   5.658  19.984  0.00  0.00    +0.000 A 
ENDBRANCH  15  17
ENDBRANCH   1  15
TORSDOF 5
ENDMDL
MODEL 6
REMARK VINA RESULT:      -7.7      1.509      6.373
REMARK  Name = 
REMARK  7 active torsions:
REMARK  status: ('A' for Active; 'I' for Inactive)
REMARK    1  A    between atoms: C_1  and  C_2
REMARK    2  A    between atoms: C_2  and  C_3
REMARK    3  A    between atoms: C_2  and  C_4
REMARK    4  A    between atoms: C_4  and  N_5
REMARK    5  A    between atoms: C_4  and  C_14
REMARK    6  A    between atoms: C_6  and  C_8
REMARK    7  A    between atoms: C_14  and  C_16
REMARK                            x       y       z     vdW  Elec       q    Type
REMARK                         _______ _______ _______ _____ _____    ______ ____
ROOT
ATOM      1  C   UNL     1       4.825   6.074  17.918  0.00  0.00    +0.000 C 
ENDROOT
BRANCH   1   2
ATOM      2  N   UNL     1       5.024   5.502  16.588  0.00  0.00    +0.000 N 
ATOM      3  C   UNL     1       6.143   5.743  15.826  0.00  0.00    +0.000 C 
ATOM      4  O   UNL     1       7.057   6.479  16.174  0.00  0.00    +0.000 OA
ATOM      5  H   UNL     1       4.325   4.836  16.281  0.00  0.00    +0.000 HD
BRANCH   3   6
ATOM      6  C   UNL     1       6.221   4.996  14.545  0.00  0.00    +0.000 A 
ATOM      7  C   UNL     1       5.192   4.140  14.135  0.00  0.00    +0.000 A 
ATOM      8  C   UNL     1       5.318   3.422  12.946  0.00  0.00    +0.000 A 
ATOM      9  C   UNL     1       6.466   3.561  12.164  0.00  0.00    +0.000 A 
ATOM     10  C   UNL     1       7.484   4.430  12.560  0.00  0.00    +0.000 A 
ATOM     11  C   UNL     1       7.360   5.153  13.747  0.00  0.00    +0.000 A 
ENDBRANCH   3   6
ENDBRANCH   1   2
BRANCH   1  13
ATOM     12  C   UNL     1       5.200   3.649  18.707  0.00  0.00    +0.000 C 
ATOM     13  C   UNL     1       5.333   5.138  19.041  0.00  0.00    +0.000 C 
ATOM     14  C   UNL     1       6.785   5.449  19.424  0.00  0.00    +0.000 C 
ENDBRANCH   1  13
BRANCH   1  15
ATOM     15  C   UNL     1       3.318   6.359  18.026  0.00  0.00    +0.000 C 
ATOM     16  O   UNL     1       2.841   7.448  17.693  0.00  0.00    +0.000 OA
BRANCH  15  17
ATOM     17  C   UNL     1       2.413   5.313  18.590  0.00  0.00    +0.000 A 
ATOM     18  C   UNL     1       2.039   5.416  19.938  0.00  0.00    +0.000 A 
ATOM     19  C   UNL     1       1.237   4.435  20.524  0.00  0.00    +0.000 A 
ATOM     20  C   UNL     1       0.789   3.356  19.765  0.00  0.00    +0.000 A 
ATOM     21  C   UNL     1       1.136   3.261  18.418  0.00  0.00    +0.000 A 
ATOM     22  C   UNL     1       1.949   4.234  17.830  0.00  0.00    +0.000 A 
ENDBRANCH  15  17
ENDBRANCH   1  15
TORSDOF 5
ENDMDL
MODEL 7
REMARK VINA RESULT:      -7.7      0.569      1.500
REMARK  Name = 
REMARK  7 active torsions:
REMARK  status: ('A' for Active; 'I' for Inactive)
REMARK    1  A    between atoms: C_1  and  C_2
REMARK    2  A    between atoms: C_2  and  C_3
REMARK    3  A    between atoms: C_2  and  C_4
REMARK    4  A    between atoms: C_4  and  N_5
REMARK    5  A    between atoms: C_4  and  C_14
REMARK    6  A    between atoms: C_6  and  C_8
REMARK    7  A    between atoms: C_14  and  C_16
REMARK                            x       y       z     vdW  Elec       q    Type
REMARK                         _______ _______ _______ _____ _____    ______ ____
ROOT
ATOM      1  C   UNL     1       6.271   4.805  17.189  0.00  0.00    +0.000 C 
ENDROOT
BRANCH   1   2
ATOM      2  N   UNL     1       5.098   4.623  18.039  0.00  0.00    +0.000 N 
ATOM      3  C   UNL     1       4.217   3.577  17.891  0.00  0.00    +0.000 C 
ATOM      4  O   UNL     1       4.314   2.724  17.020  0.00  0.00    +0.000 OA
ATOM      5  H   UNL     1       5.007   5.267  18.817  0.00  0.00    +0.000 HD
BRANCH   3   6
ATOM      6  C   UNL     1       3.141   3.494  18.912  0.00  0.00    +0.000 A 
ATOM      7  C   UNL     1       3.428   3.540  20.280  0.00  0.00    +0.000 A 
ATOM      8  C   UNL     1       2.395   3.418  21.211  0.00  0.00    +0.000 A 
ATOM      9  C   UNL     1       1.078   3.256  20.777  0.00  0.00    +0.000 A 
ATOM     10  C   UNL     1       0.788   3.232  19.412  0.00  0.00    +0.000 A 
ATOM     11  C   UNL     1       1.817   3.357  18.478  0.00  0.00    +0.000 A 
ENDBRANCH   3   6
ENDBRANCH   1   2
BRANCH   1  13
ATOM     12  C   UNL     1       7.453   7.083  17.427  0.00  0.00    +0.000 C 
ATOM     13  C   UNL     1       7.383   5.623  17.888  0.00  0.00    +0.000 C 
ATOM     14  C   UNL     1       7.247   5.574  19.415  0.00  0.00    +0.000 C 
ENDBRANCH   1  13
BRANCH   1  15
ATOM     15  C   UNL     1       5.755   5.485  15.910  0.00  0.00    +0.000 C 
ATOM     16  O   UNL     1       4.935   6.407  15.955  0.00  0.00    +0.000 OA
BRANCH  15  17
ATOM     17  C   UNL     1       6.219   4.990  14.579  0.00  0.00    +0.000 A 
ATOM     18  C   UNL     1       5.447   4.018  13.927  0.00  0.00    +0.000 A 
ATOM     19  C   UNL     1       5.867   3.487  12.706  0.00  0.00    +0.000 A 
ATOM     20  C   UNL     1       7.048   3.936  12.119  0.00  0.00    +0.000 A 
ATOM     21  C   UNL     1       7.806   4.922  12.750  0.00  0.00    +0.000 A 
ATOM     22  C   UNL     1       7.397   5.446  13.979  0.00  0.00    +0.000 A 
ENDBRANCH  15  17
ENDBRANCH   1  15
TORSDOF 5
ENDMDL
MODEL 8
REMARK VINA RESULT:      -7.6      0.774      1.087
REMARK  Name = 
REMARK  7 active torsions:
REMARK  status: ('A' for Active; 'I' for Inactive)
REMARK    1  A    between atoms: C_1  and  C_2
REMARK    2  A    between atoms: C_2  and  C_3
REMARK    3  A    between atoms: C_2  and  C_4
REMARK    4  A    between atoms: C_4  and  N_5
REMARK    5  A    between atoms: C_4  and  C_14
REMARK    6  A    between atoms: C_6  and  C_8
REMARK    7  A    between atoms: C_14  and  C_16
REMARK                            x       y       z     vdW  Elec       q    Type
REMARK                         _______ _______ _______ _____ _____    ______ ____
ROOT
ATOM      1  C   UNL     1       6.068   5.318  17.223  0.00  0.00    +0.000 C 
ENDROOT
BRANCH   1   2
ATOM      2  N   UNL     1       4.792   4.949  17.830  0.00  0.00    +0.000 N 
ATOM      3  C   UNL     1       4.674   3.985  18.804  0.00  0.00    +0.000 C 
ATOM      4  O   UNL     1       5.614   3.328  19.229  0.00  0.00    +0.000 OA
ATOM      5  H   UNL     1       3.992   5.508  17.558  0.00  0.00    +0.000 HD
BRANCH   3   6
ATOM      6  C   UNL     1       3.315   3.816  19.379  0.00  0.00    +0.000 A 
ATOM      7  C   UNL     1       2.598   2.625  19.221  0.00  0.00    +0.000 A 
ATOM      8  C   UNL     1       1.307   2.517  19.739  0.00  0.00    +0.000 A 
ATOM      9  C   UNL     1       0.734   3.593  20.419  0.00  0.00    +0.000 A 
ATOM     10  C   UNL     1       1.456   4.774  20.597  0.00  0.00    +0.000 A 
ATOM     11  C   UNL     1       2.748   4.886  20.083  0.00  0.00    +0.000 A 
ENDBRANCH   3   6
ENDBRANCH   1   2
BRANCH   1  13
ATOM     12  C   UNL     1       7.887   5.676  19.013  0.00  0.00    +0.000 C 
ATOM     13  C   UNL     1       6.858   6.331  18.087  0.00  0.00    +0.000 C 
ATOM     14  C   UNL     1       7.549   7.394  17.224  0.00  0.00    +0.000 C 
ENDBRANCH   1  13
BRANCH   1  15
ATOM     15  C   UNL     1       5.721   5.874  15.833  0.00  0.00    +0.000 C 
ATOM     16  O   UNL     1       5.065   6.912  15.698  0.00  0.00    +0.000 OA
BRANCH  15  17
ATOM     17  C   UNL     1       6.144   5.119  14.616  0.00  0.00    +0.000 A 
ATOM     18  C   UNL     1       7.364   5.461  14.014  0.00  0.00    +0.000 A 
ATOM     19  C   UNL     1       7.778   4.818  12.846  0.00  0.00    +0.000 A 
ATOM     20  C   UNL     1       6.988   3.818  12.282  0.00  0.00    +0.000 A 
ATOM     21  C   UNL     1       5.787   3.456  12.890  0.00  0.00    +0.000 A 
ATOM     22  C   UNL     1       5.362   4.105  14.052  0.00  0.00    +0.000 A 
ENDBRANCH  15  17
ENDBRANCH   1  15
TORSDOF 5
ENDMDL
MODEL 9
REMARK VINA RESULT:      -7.5      0.737      1.503
REMARK  Name = 
REMARK  7 active torsions:
REMARK  status: ('A' for Active; 'I' for Inactive)
REMARK    1  A    between atoms: C_1  and  C_2
REMARK    2  A    between atoms: C_2  and  C_3
REMARK    3  A    between atoms: C_2  and  C_4
REMARK    4  A    between atoms: C_4  and  N_5
REMARK    5  A    between atoms: C_4  and  C_14
REMARK    6  A    between atoms: C_6  and  C_8
REMARK    7  A    between atoms: C_14  and  C_16
REMARK                            x       y       z     vdW  Elec       q    Type
REMARK                         _______ _______ _______ _____ _____    ______ ____
ROOT
ATOM      1  C   UNL     1       6.021   5.231  17.137  0.00  0.00    +0.000 C 
ENDROOT
BRANCH   1   2
ATOM      2  N   UNL     1       4.729   4.830  17.689  0.00  0.00    +0.000 N 
ATOM      3  C   UNL     1       4.596   3.902  18.695  0.00  0.00    +0.000 C 
ATOM      4  O   UNL     1       5.538   3.304  19.197  0.00  0.00    +0.000 OA
ATOM      5  H   UNL     1       3.922   5.343  17.352  0.00  0.00    +0.000 HD
BRANCH   3   6
ATOM      6  C   UNL     1       3.216   3.697  19.202  0.00  0.00    +0.000 A 
ATOM      7  C   UNL     1       2.352   2.767  18.613  0.00  0.00    +0.000 A 
ATOM      8  C   UNL     1       1.047   2.631  19.090  0.00  0.00    +0.000 A 
ATOM      9  C   UNL     1       0.608   3.417  20.156  0.00  0.00    +0.000 A 
ATOM     10  C   UNL     1       1.475   4.329  20.760  0.00  0.00    +0.000 A 
ATOM     11  C   UNL     1       2.781   4.466  20.288  0.00  0.00    +0.000 A 
ENDBRANCH   3   6
ENDBRANCH   1   2
BRANCH   1  13
ATOM     12  C   UNL     1       7.827   5.515  18.952  0.00  0.00    +0.000 C 
ATOM     13  C   UNL     1       6.782   6.204  18.069  0.00  0.00    +0.000 C 
ATOM     14  C   UNL     1       7.446   7.340  17.282  0.00  0.00    +0.000 C 
ENDBRANCH   1  13
BRANCH   1  15
ATOM     15  C   UNL     1       5.711   5.851  15.764  0.00  0.00    +0.000 C 
ATOM     16  O   UNL     1       5.058   6.894  15.660  0.00  0.00    +0.000 OA
BRANCH  15  17
ATOM     17  C   UNL     1       6.168   5.153  14.526  0.00  0.00    +0.000 A 
ATOM     18  C   UNL     1       5.351   4.147  13.991  0.00  0.00    +0.000 A 
ATOM     19  C   UNL     1       5.760   3.431  12.864  0.00  0.00    +0.000 A 
ATOM     20  C   UNL     1       6.977   3.728  12.254  0.00  0.00    +0.000 A 
ATOM     21  C   UNL     1       7.781   4.745  12.765  0.00  0.00    +0.000 A 
ATOM     22  C   UNL     1       7.382   5.455  13.900  0.00  0.00    +0.000 A 
ENDBRANCH  15  17
ENDBRANCH   1  15
TORSDOF 5
ENDMDL
