MODEL 1
REMARK VINA RESULT:      -8.4      0.000      0.000
REMARK  Name = 
REMARK  9 active torsions:
REMARK  status: ('A' for Active; 'I' for Inactive)
REMARK    1  A    between atoms: C_1  and  C_2
REMARK    2  A    between atoms: C_4  and  N_5
REMARK    3  A    between atoms: C_7  and  C_8
REMARK    4  A    between atoms: C_9  and  C_10
REMARK    5  A    between atoms: C_10  and  N_11
REMARK    6  A    between atoms: C_12  and  C_14
REMARK    7  A    between atoms: N_16  and  C_17
REMARK    8  A    between atoms: C_17  and  C_18
REMARK    9  A    between atoms: C_21  and  N_22
REMARK                            x       y       z     vdW  Elec       q    Type
REMARK                         _______ _______ _______ _____ _____    ______ ____
ROOT
ATOM      1  C   UNL     1       1.930   7.494  19.868  0.00  0.00    +0.000 A 
ATOM      2  C   UNL     1       1.927   8.536  18.957  0.00  0.00    +0.000 A 
ATOM      3  N   UNL     1       1.244   9.557  19.567  0.00  0.00    +0.000 N 
ATOM      4  C   UNL     1       0.863   9.115  20.803  0.00  0.00    +0.000 A 
ATOM      5  N   UNL     1       1.243   7.874  21.015  0.00  0.00    +0.000 NA
ENDROOT
BRANCH   1   7
ATOM      6  N   UNL     1       3.912   6.235  19.552  0.00  0.00    +0.000 N 
ATOM      7  C   UNL     1       2.542   6.171  19.698  0.00  0.00    +0.000 C 
ATOM      8  O   UNL     1       1.894   5.127  19.695  0.00  0.00    +0.000 OA
ATOM      9  H   UNL     1       4.323   7.151  19.689  0.00  0.00    +0.000 HD
BRANCH   6  10
ATOM     10  C   UNL     1       4.757   5.080  19.388  0.00  0.00    +0.000 C 
BRANCH  10  18
ATOM     11  C   UNL     1       3.389   3.713  16.874  0.00  0.00    +0.000 C 
ATOM     12  C   UNL     1       4.791   4.256  16.903  0.00  0.00    +0.000 A 
ATOM     13  C   UNL     1       5.521   4.161  15.705  0.00  0.00    +0.000 A 
ATOM     14  C   UNL     1       6.822   4.622  15.640  0.00  0.00    +0.000 A 
ATOM     15  N   UNL     1       7.431   5.180  16.687  0.00  0.00    +0.000 NA
ATOM     16  C   UNL     1       6.734   5.296  17.851  0.00  0.00    +0.000 A 
ATOM     17  C   UNL     1       7.506   5.969  18.957  0.00  0.00    +0.000 C 
ATOM     18  C   UNL     1       5.398   4.855  18.026  0.00  0.00    +0.000 A 
BRANCH  14  19
ATOM     19  N   UNL     1       7.527   4.580  14.439  0.00  0.00    +0.000 N 
ATOM     20  H   UNL     1       6.986   4.165  13.692  0.00  0.00    +0.000 HD
ATOM     21  H   UNL     1       8.395   4.081  14.617  0.00  0.00    +0.000 HD
ENDBRANCH  14  19
ENDBRANCH  10  18
ENDBRANCH   6  10
ENDBRANCH   1   7
BRANCH   3  22
ATOM     22  C   UNL     1       0.860  10.828  18.966  0.00  0.00    +0.000 C 
BRANCH  22  23
ATOM     23  C   UNL     1      -0.630  10.961  18.763  0.00  0.00    +0.000 A 
ATOM     24  C   UNL     1      -1.358  11.952  19.435  0.00  0.00    +0.000 A 
ATOM     25  C   UNL     1      -2.734  12.103  19.226  0.00  0.00    +0.000 A 
ATOM     26  C   UNL     1      -3.410  11.262  18.335  0.00  0.00    +0.000 A 
ATOM     27  C   UNL     1      -2.687  10.281  17.641  0.00  0.00    +0.000 A 
ATOM     28  C   UNL     1      -1.309  10.135  17.853  0.00  0.00    +0.000 A 
BRANCH  26  29
ATOM     29  N   UNL     1      -4.816  11.379  18.143  0.00  0.00    +0.000 N 
ATOM     30  C   UNL     1      -5.502  12.380  17.484  0.00  0.00    +0.000 A 
ATOM     31  C   UNL     1      -6.843  12.118  17.623  0.00  0.00    +0.000 A 
ATOM     32  C   UNL     1      -6.891  10.924  18.354  0.00  0.00    +0.000 A 
ATOM     33  N   UNL     1      -5.678  10.458  18.655  0.00  0.00    +0.000 NA
ENDBRANCH  26  29
ENDBRANCH  22  23
ENDBRANCH   3  22
TORSDOF 7
ENDMDL
MODEL 2
REMARK VINA RESULT:      -8.1      0.866      1.967
REMARK  Name = 
REMARK  9 active torsions:
REMARK  status: ('A' for Active; 'I' for Inactive)
REMARK    1  A    between atoms: C_1  and  C_2
REMARK    2  A    between atoms: C_4  and  N_5
REMARK    3  A    between atoms: C_7  and  C_8
REMARK    4  A    between atoms: C_9  and  C_10
REMARK    5  A    between atoms: C_10  and  N_11
REMARK    6  A    between atoms: C_12  and  C_14
REMARK    7  A    between atoms: N_16  and  C_17
REMARK    8  A    between atoms: C_17  and  C_18
REMARK    9  A    between atoms: C_21  and  N_22
REMARK                            x       y       z     vdW  Elec       q    Type
REMARK                         _______ _______ _______ _____ _____    ______ ____
ROOT
ATOM      1  C   UNL     1       1.817   7.570  20.022  0.00  0.00    +0.000 A 
ATOM      2  C   UNL     1       1.823   8.515  19.011  0.00  0.00    +0.000 A 
ATOM      3  N   UNL     1       1.223   9.628  19.542  0.00  0.00    +0.000 N 
ATOM      4  C   UNL     1       0.879   9.332  20.832  0.00  0.00    +0.000 A 
ATOM      5  N   UNL     1       1.206   8.098  21.152  0.00  0.00    +0.000 NA
ENDROOT
BRANCH   1   7
ATOM      6  N   UNL     1       3.670   6.170  19.554  0.00  0.00    +0.000 N 
ATOM      7  C   UNL     1       2.353   6.205  19.961  0.00  0.00    +0.000 C 
ATOM      8  O   UNL     1       1.692   5.211  20.252  0.00  0.00    +0.000 OA
ATOM      9  H   UNL     1       4.121   7.072  19.459  0.00  0.00    +0.000 HD
BRANCH   6  10
ATOM     10  C   UNL     1       4.439   4.958  19.427  0.00  0.00    +0.000 C 
BRANCH  10  18
ATOM     11  C   UNL     1       7.458   5.591  18.687  0.00  0.00    +0.000 C 
ATOM     12  C   UNL     1       6.459   4.953  17.761  0.00  0.00    +0.000 A 
ATOM     13  C   UNL     1       6.931   4.595  16.485  0.00  0.00    +0.000 A 
ATOM     14  C   UNL     1       6.083   4.015  15.563  0.00  0.00    +0.000 A 
ATOM     15  N   UNL     1       4.803   3.758  15.838  0.00  0.00    +0.000 NA
ATOM     16  C   UNL     1       4.332   4.080  17.074  0.00  0.00    +0.000 A 
ATOM     17  C   UNL     1       2.885   3.718  17.287  0.00  0.00    +0.000 C 
ATOM     18  C   UNL     1       5.115   4.681  18.092  0.00  0.00    +0.000 A 
BRANCH  14  19
ATOM     19  N   UNL     1       6.562   3.609  14.320  0.00  0.00    +0.000 N 
ATOM     20  H   UNL     1       5.841   3.181  13.752  0.00  0.00    +0.000 HD
ATOM     21  H   UNL     1       7.346   2.984  14.490  0.00  0.00    +0.000 HD
ENDBRANCH  14  19
ENDBRANCH  10  18
ENDBRANCH   6  10
ENDBRANCH   1   7
BRANCH   3  22
ATOM     22  C   UNL     1       0.875  10.853  18.832  0.00  0.00    +0.000 C 
BRANCH  22  23
ATOM     23  C   UNL     1      -0.614  11.090  18.754  0.00  0.00    +0.000 A 
ATOM     24  C   UNL     1      -1.424  10.286  17.941  0.00  0.00    +0.000 A 
ATOM     25  C   UNL     1      -2.809  10.478  17.890  0.00  0.00    +0.000 A 
ATOM     26  C   UNL     1      -3.413  11.481  18.656  0.00  0.00    +0.000 A 
ATOM     27  C   UNL     1      -2.614  12.277  19.488  0.00  0.00    +0.000 A 
ATOM     28  C   UNL     1      -1.227  12.080  19.537  0.00  0.00    +0.000 A 
BRANCH  26  29
ATOM     29  N   UNL     1      -4.816  11.713  18.582  0.00  0.00    +0.000 N 
ATOM     30  C   UNL     1      -5.694  11.938  19.624  0.00  0.00    +0.000 A 
ATOM     31  C   UNL     1      -6.955  12.026  19.086  0.00  0.00    +0.000 A 
ATOM     32  C   UNL     1      -6.757  11.874  17.708  0.00  0.00    +0.000 A 
ATOM     33  N   UNL     1      -5.472  11.705  17.389  0.00  0.00    +0.000 NA
ENDBRANCH  26  29
ENDBRANCH  22  23
ENDBRANCH   3  22
TORSDOF 7
ENDMDL
MODEL 3
REMARK VINA RESULT:      -7.7      2.818      3.649
REMARK  Name = 
REMARK  9 active torsions:
REMARK  status: ('A' for Active; 'I' for Inactive)
REMARK    1  A    between atoms: C_1  and  C_2
REMARK    2  A    between atoms: C_4  and  N_5
REMARK    3  A    between atoms: C_7  and  C_8
REMARK    4  A    between atoms: C_9  and  C_10
REMARK    5  A    between atoms: C_10  and  N_11
REMARK    6  A    between atoms: C_12  and  C_14
REMARK    7  A    between atoms: N_16  and  C_17
REMARK    8  A    between atoms: C_17  and  C_18
REMARK    9  A    between atoms: C_21  and  N_22
REMARK                            x       y       z     vdW  Elec       q    Type
REMARK                         _______ _______ _______ _____ _____    ______ ____
ROOT
ATOM      1  C   UNL     1       0.992   9.347  20.077  0.00  0.00    +0.000 A 
ATOM      2  C   UNL     1       0.880  10.720  20.206  0.00  0.00    +0.000 A 
ATOM      3  N   UNL     1       0.293  10.929  21.428  0.00  0.00    +0.000 N 
ATOM      4  C   UNL     1       0.073   9.703  21.991  0.00  0.00    +0.000 A 
ATOM      5  N   UNL     1       0.465   8.726  21.202  0.00  0.00    +0.000 NA
ENDROOT
BRANCH   1   7
ATOM      6  N   UNL     1       2.318   7.526  19.343  0.00  0.00    +0.000 N 
ATOM      7  C   UNL     1       1.564   8.608  18.944  0.00  0.00    +0.000 C 
ATOM      8  O   UNL     1       1.376   8.926  17.772  0.00  0.00    +0.000 OA
ATOM      9  H   UNL     1       2.291   7.317  20.335  0.00  0.00    +0.000 HD
BRANCH   6  10
ATOM     10  C   UNL     1       2.975   6.624  18.432  0.00  0.00    +0.000 C 
BRANCH  10  18
ATOM     11  C   UNL     1       1.198   4.485  19.958  0.00  0.00    +0.000 C 
ATOM     12  C   UNL     1       2.660   4.326  19.646  0.00  0.00    +0.000 A 
ATOM     13  C   UNL     1       3.256   3.117  20.050  0.00  0.00    +0.000 A 
ATOM     14  C   UNL     1       4.598   2.886  19.817  0.00  0.00    +0.000 A 
ATOM     15  N   UNL     1       5.375   3.776  19.198  0.00  0.00    +0.000 NA
ATOM     16  C   UNL     1       4.813   4.945  18.784  0.00  0.00    +0.000 A 
ATOM     17  C   UNL     1       5.772   5.862  18.070  0.00  0.00    +0.000 C 
ATOM     18  C   UNL     1       3.449   5.283  18.974  0.00  0.00    +0.000 A 
BRANCH  14  19
ATOM     19  N   UNL     1       5.176   1.668  20.165  0.00  0.00    +0.000 N 
ATOM     20  H   UNL     1       4.812   1.306  21.037  0.00  0.00    +0.000 HD
ATOM     21  H   UNL     1       6.182   1.809  20.191  0.00  0.00    +0.000 HD
ENDBRANCH  14  19
ENDBRANCH  10  18
ENDBRANCH   6  10
ENDBRANCH   1   7
BRANCH   3  22
ATOM     22  C   UNL     1      -0.154  12.204  21.973  0.00  0.00    +0.000 C 
BRANCH  22  23
ATOM     23  C   UNL     1      -1.652  12.381  21.914  0.00  0.00    +0.000 A 
ATOM     24  C   UNL     1      -2.421  12.357  23.086  0.00  0.00    +0.000 A 
ATOM     25  C   UNL     1      -3.806  12.554  23.043  0.00  0.00    +0.000 A 
ATOM     26  C   UNL     1      -4.450  12.782  21.822  0.00  0.00    +0.000 A 
ATOM     27  C   UNL     1      -3.687  12.828  20.646  0.00  0.00    +0.000 A 
ATOM     28  C   UNL     1      -2.300  12.631  20.695  0.00  0.00    +0.000 A 
BRANCH  26  29
ATOM     29  N   UNL     1      -5.864  12.943  21.759  0.00  0.00    +0.000 N 
ATOM     30  C   UNL     1      -6.582  13.824  20.975  0.00  0.00    +0.000 A 
ATOM     31  C   UNL     1      -7.907  13.683  21.309  0.00  0.00    +0.000 A 
ATOM     32  C   UNL     1      -7.916  12.676  22.283  0.00  0.00    +0.000 A 
ATOM     33  N   UNL     1      -6.695  12.208  22.548  0.00  0.00    +0.000 NA
ENDBRANCH  26  29
ENDBRANCH  22  23
ENDBRANCH   3  22
TORSDOF 7
ENDMDL
MODEL 4
REMARK VINA RESULT:      -7.6      2.054      3.044
REMARK  Name = 
REMARK  9 active torsions:
REMARK  status: ('A' for Active; 'I' for Inactive)
REMARK    1  A    between atoms: C_1  and  C_2
REMARK    2  A    between atoms: C_4  and  N_5
REMARK    3  A    between atoms: C_7  and  C_8
REMARK    4  A    between atoms: C_9  and  C_10
REMARK    5  A    between atoms: C_10  and  N_11
REMARK    6  A    between atoms: C_12  and  C_14
REMARK    7  A    between atoms: N_16  and  C_17
REMARK    8  A    between atoms: C_17  and  C_18
REMARK    9  A    between atoms: C_21  and  N_22
REMARK                            x       y       z     vdW  Elec       q    Type
REMARK                         _______ _______ _______ _____ _____    ______ ____
ROOT
ATOM      1  C   UNL     1       1.963   8.497  18.767  0.00  0.00    +0.000 A 
ATOM      2  C   UNL     1       1.758   9.698  18.112  0.00  0.00    +0.000 A 
ATOM      3  N   UNL     1       1.130  10.511  19.020  0.00  0.00    +0.000 N 
ATOM      4  C   UNL     1       0.976   9.794  20.174  0.00  0.00    +0.000 A 
ATOM      5  N   UNL     1       1.450   8.573  20.056  0.00  0.00    +0.000 NA
ENDROOT
BRANCH   1   7
ATOM      6  N   UNL     1       1.793   6.185  18.278  0.00  0.00    +0.000 N 
ATOM      7  C   UNL     1       2.610   7.294  18.228  0.00  0.00    +0.000 C 
ATOM      8  O   UNL     1       3.753   7.291  17.777  0.00  0.00    +0.000 OA
ATOM      9  H   UNL     1       0.837   6.360  18.569  0.00  0.00    +0.000 HD
BRANCH   6  10
ATOM     10  C   UNL     1       2.176   4.882  17.798  0.00  0.00    +0.000 C 
BRANCH  10  18
ATOM     11  C   UNL     1       1.025   3.605  20.464  0.00  0.00    +0.000 C 
ATOM     12  C   UNL     1       2.416   3.387  19.934  0.00  0.00    +0.000 A 
ATOM     13  C   UNL     1       3.241   2.528  20.682  0.00  0.00    +0.000 A 
ATOM     14  C   UNL     1       4.538   2.277  20.280  0.00  0.00    +0.000 A 
ATOM     15  N   UNL     1       5.056   2.818  19.176  0.00  0.00    +0.000 NA
ATOM     16  C   UNL     1       4.268   3.639  18.430  0.00  0.00    +0.000 A 
ATOM     17  C   UNL     1       4.943   4.168  17.191  0.00  0.00    +0.000 C 
ATOM     18  C   UNL     1       2.926   3.964  18.752  0.00  0.00    +0.000 A 
BRANCH  14  19
ATOM     19  N   UNL     1       5.337   1.383  20.988  0.00  0.00    +0.000 N 
ATOM     20  H   UNL     1       5.495   0.523  20.478  0.00  0.00    +0.000 HD
ATOM     21  H   UNL     1       4.888   1.226  21.887  0.00  0.00    +0.000 HD
ENDBRANCH  14  19
ENDBRANCH  10  18
ENDBRANCH   6  10
ENDBRANCH   1   7
BRANCH   3  22
ATOM     22  C   UNL     1       0.586  11.840  18.770  0.00  0.00    +0.000 C 
BRANCH  22  23
ATOM     23  C   UNL     1      -0.923  11.874  18.774  0.00  0.00    +0.000 A 
ATOM     24  C   UNL     1      -1.655  11.252  17.755  0.00  0.00    +0.000 A 
ATOM     25  C   UNL     1      -3.054  11.250  17.770  0.00  0.00    +0.000 A 
ATOM     26  C   UNL     1      -3.751  11.873  18.812  0.00  0.00    +0.000 A 
ATOM     27  C   UNL     1      -3.027  12.481  19.848  0.00  0.00    +0.000 A 
ATOM     28  C   UNL     1      -1.626  12.479  19.828  0.00  0.00    +0.000 A 
BRANCH  26  29
ATOM     29  N   UNL     1      -5.174  11.913  18.819  0.00  0.00    +0.000 N 
ATOM     30  C   UNL     1      -5.990  12.969  19.176  0.00  0.00    +0.000 A 
ATOM     31  C   UNL     1      -7.288  12.524  19.107  0.00  0.00    +0.000 A 
ATOM     32  C   UNL     1      -7.180  11.197  18.672  0.00  0.00    +0.000 A 
ATOM     33  N   UNL     1      -5.914  10.824  18.475  0.00  0.00    +0.000 NA
ENDBRANCH  26  29
ENDBRANCH  22  23
ENDBRANCH   3  22
TORSDOF 7
ENDMDL
MODEL 5
REMARK VINA RESULT:      -7.6      1.807     10.512
REMARK  Name = 
REMARK  9 active torsions:
REMARK  status: ('A' for Active; 'I' for Inactive)
REMARK    1  A    between atoms: C_1  and  C_2
REMARK    2  A    between atoms: C_4  and  N_5
REMARK    3  A    between atoms: C_7  and  C_8
REMARK    4  A    between atoms: C_9  and  C_10
REMARK    5  A    between atoms: C_10  and  N_11
REMARK    6  A    between atoms: C_12  and  C_14
REMARK    7  A    between atoms: N_16  and  C_17
REMARK    8  A    between atoms: C_17  and  C_18
REMARK    9  A    between atoms: C_21  and  N_22
REMARK                            x       y       z     vdW  Elec       q    Type
REMARK                         _______ _______ _______ _____ _____    ______ ____
ROOT
ATOM      1  C   UNL     1       1.605   8.761  18.951  0.00  0.00    +0.000 A 
ATOM      2  C   UNL     1       2.405   7.748  18.453  0.00  0.00    +0.000 A 
ATOM      3  N   UNL     1       2.535   6.844  19.475  0.00  0.00    +0.000 N 
ATOM      4  C   UNL     1       1.825   7.324  20.541  0.00  0.00    +0.000 A 
ATOM      5  N   UNL     1       1.264   8.483  20.269  0.00  0.00    +0.000 NA
ENDROOT
BRANCH   1   7
ATOM      6  N   UNL     1      -0.187  10.209  18.400  0.00  0.00    +0.000 N 
ATOM      7  C   UNL     1       1.161   9.968  18.243  0.00  0.00    +0.000 C 
ATOM      8  O   UNL     1       1.921  10.682  17.592  0.00  0.00    +0.000 OA
ATOM      9  H   UNL     1      -0.665   9.603  19.056  0.00  0.00    +0.000 HD
BRANCH   6  10
ATOM     10  C   UNL     1      -0.873  11.338  17.824  0.00  0.00    +0.000 C 
BRANCH  10  18
ATOM     11  C   UNL     1      -2.510  12.526  20.267  0.00  0.00    +0.000 C 
ATOM     12  C   UNL     1      -3.121  11.924  19.032  0.00  0.00    +0.000 A 
ATOM     13  C   UNL     1      -4.526  11.923  18.968  0.00  0.00    +0.000 A 
ATOM     14  C   UNL     1      -5.177  11.380  17.878  0.00  0.00    +0.000 A 
ATOM     15  N   UNL     1      -4.515  10.852  16.846  0.00  0.00    +0.000 NA
ATOM     16  C   UNL     1      -3.155  10.860  16.882  0.00  0.00    +0.000 A 
ATOM     17  C   UNL     1      -2.511  10.269  15.654  0.00  0.00    +0.000 C 
ATOM     18  C   UNL     1      -2.389  11.389  17.952  0.00  0.00    +0.000 A 
BRANCH  14  19
ATOM     19  N   UNL     1      -6.565  11.429  17.787  0.00  0.00    +0.000 N 
ATOM     20  H   UNL     1      -6.910  10.994  16.941  0.00  0.00    +0.000 HD
ATOM     21  H   UNL     1      -6.837  12.406  17.863  0.00  0.00    +0.000 HD
ENDBRANCH  14  19
ENDBRANCH  10  18
ENDBRANCH   6  10
ENDBRANCH   1   7
BRANCH   3  22
ATOM     22  C   UNL     1       3.389   5.662  19.490  0.00  0.00    +0.000 C 
BRANCH  22  23
ATOM     23  C   UNL     1       4.119   5.442  18.187  0.00  0.00    +0.000 A 
ATOM     24  C   UNL     1       5.075   6.363  17.739  0.00  0.00    +0.000 A 
ATOM     25  C   UNL     1       5.780   6.148  16.549  0.00  0.00    +0.000 A 
ATOM     26  C   UNL     1       5.541   5.002  15.783  0.00  0.00    +0.000 A 
ATOM     27  C   UNL     1       4.601   4.064  16.233  0.00  0.00    +0.000 A 
ATOM     28  C   UNL     1       3.899   4.283  17.426  0.00  0.00    +0.000 A 
BRANCH  26  29
ATOM     29  N   UNL     1       6.222   4.791  14.550  0.00  0.00    +0.000 N 
ATOM     30  C   UNL     1       5.877   3.928  13.528  0.00  0.00    +0.000 A 
ATOM     31  C   UNL     1       6.868   4.001  12.579  0.00  0.00    +0.000 A 
ATOM     32  C   UNL     1       7.765   4.951  13.083  0.00  0.00    +0.000 A 
ATOM     33  N   UNL     1       7.377   5.449  14.259  0.00  0.00    +0.000 NA
ENDBRANCH  26  29
ENDBRANCH  22  23
ENDBRANCH   3  22
TORSDOF 7
ENDMDL
MODEL 6
REMARK VINA RESULT:      -7.5      3.187      5.367
REMARK  Name = 
REMARK  9 active torsions:
REMARK  status: ('A' for Active; 'I' for Inactive)
REMARK    1  A    between atoms: C_1  and  C_2
REMARK    2  A    between atoms: C_4  and  N_5
REMARK    3  A    between atoms: C_7  and  C_8
REMARK    4  A    between atoms: C_9  and  C_10
REMARK    5  A    between atoms: C_10  and  N_11
REMARK    6  A    between atoms: C_12  and  C_14
REMARK    7  A    between atoms: N_16  and  C_17
REMARK    8  A    between atoms: C_17  and  C_18
REMARK    9  A    between atoms: C_21  and  N_22
REMARK                            x       y       z     vdW  Elec       q    Type
REMARK                         _______ _______ _______ _____ _____    ______ ____
ROOT
ATOM      1  C   UNL     1       2.055   7.375  19.870  0.00  0.00    +0.000 A 
ATOM      2  C   UNL     1       1.835   8.414  18.983  0.00  0.00    +0.000 A 
ATOM      3  N   UNL     1       1.099   9.341  19.675  0.00  0.00    +0.000 N 
ATOM      4  C   UNL     1       0.898   8.848  20.935  0.00  0.00    +0.000 A 
ATOM      5  N   UNL     1       1.445   7.661  21.085  0.00  0.00    +0.000 NA
ENDROOT
BRANCH   1   7
ATOM      6  N   UNL     1       4.142   6.364  19.387  0.00  0.00    +0.000 N 
ATOM      7  C   UNL     1       2.802   6.137  19.616  0.00  0.00    +0.000 C 
ATOM      8  O   UNL     1       2.280   5.025  19.620  0.00  0.00    +0.000 OA
ATOM      9  H   UNL     1       4.454   7.319  19.529  0.00  0.00    +0.000 HD
BRANCH   6  10
ATOM     10  C   UNL     1       5.102   5.320  19.130  0.00  0.00    +0.000 C 
BRANCH  10  18
ATOM     11  C   UNL     1       3.679   3.654  16.837  0.00  0.00    +0.000 C 
ATOM     12  C   UNL     1       4.966   4.414  16.678  0.00  0.00    +0.000 A 
ATOM     13  C   UNL     1       5.550   4.390  15.398  0.00  0.00    +0.000 A 
ATOM     14  C   UNL     1       6.740   5.049  15.160  0.00  0.00    +0.000 A 
ATOM     15  N   UNL     1       7.373   5.739  16.110  0.00  0.00    +0.000 NA
ATOM     16  C   UNL     1       6.815   5.788  17.350  0.00  0.00    +0.000 A 
ATOM     17  C   UNL     1       7.595   6.619  18.336  0.00  0.00    +0.000 C 
ATOM     18  C   UNL     1       5.600   5.147  17.703  0.00  0.00    +0.000 A 
BRANCH  14  19
ATOM     19  N   UNL     1       7.290   5.073  13.881  0.00  0.00    +0.000 N 
ATOM     20  H   UNL     1       6.726   4.565  13.211  0.00  0.00    +0.000 HD
ATOM     21  H   UNL     1       8.236   4.706  13.953  0.00  0.00    +0.000 HD
ENDBRANCH  14  19
ENDBRANCH  10  18
ENDBRANCH   6  10
ENDBRANCH   1   7
BRANCH   3  22
ATOM     22  C   UNL     1       0.506  10.559  19.138  0.00  0.00    +0.000 C 
BRANCH  22  23
ATOM     23  C   UNL     1       1.404  11.765  19.273  0.00  0.00    +0.000 A 
ATOM     24  C   UNL     1       2.159  12.219  18.183  0.00  0.00    +0.000 A 
ATOM     25  C   UNL     1       2.967  13.356  18.291  0.00  0.00    +0.000 A 
ATOM     26  C   UNL     1       3.035  14.064  19.495  0.00  0.00    +0.000 A 
ATOM     27  C   UNL     1       2.268  13.630  20.586  0.00  0.00    +0.000 A 
ATOM     28  C   UNL     1       1.459  12.491  20.473  0.00  0.00    +0.000 A 
BRANCH  26  29
ATOM     29  N   UNL     1       3.885  15.199  19.630  0.00  0.00    +0.000 N 
ATOM     30  C   UNL     1       4.503  15.920  18.627  0.00  0.00    +0.000 A 
ATOM     31  C   UNL     1       5.287  16.872  19.231  0.00  0.00    +0.000 A 
ATOM     32  C   UNL     1       5.070  16.686  20.602  0.00  0.00    +0.000 A 
ATOM     33  N   UNL     1       4.212  15.696  20.855  0.00  0.00    +0.000 NA
ENDBRANCH  26  29
ENDBRANCH  22  23
ENDBRANCH   3  22
TORSDOF 7
ENDMDL
MODEL 7
REMARK VINA RESULT:      -7.5      1.673     10.436
REMARK  Name = 
REMARK  9 active torsions:
REMARK  status: ('A' for Active; 'I' for Inactive)
REMARK    1  A    between atoms: C_1  and  C_2
REMARK    2  A    between atoms: C_4  and  N_5
REMARK    3  A    between atoms: C_7  and  C_8
REMARK    4  A    between atoms: C_9  and  C_10
REMARK    5  A    between atoms: C_10  and  N_11
REMARK    6  A    between atoms: C_12  and  C_14
REMARK    7  A    between atoms: N_16  and  C_17
REMARK    8  A    between atoms: C_17  and  C_18
REMARK    9  A    between atoms: C_21  and  N_22
REMARK                            x       y       z     vdW  Elec       q    Type
REMARK                         _______ _______ _______ _____ _____    ______ ____
ROOT
ATOM      1  C   UNL     1       1.844   8.276  19.197  0.00  0.00    +0.000 A 
ATOM      2  C   UNL     1       2.717   7.351  18.653  0.00  0.00    +0.000 A 
ATOM      3  N   UNL     1       2.813   6.345  19.580  0.00  0.00    +0.000 N 
ATOM      4  C   UNL     1       2.011   6.682  20.635  0.00  0.00    +0.000 A 
ATOM      5  N   UNL     1       1.424   7.844  20.449  0.00  0.00    +0.000 NA
ENDROOT
BRANCH   1   7
ATOM      6  N   UNL     1       0.391  10.144  19.306  0.00  0.00    +0.000 N 
ATOM      7  C   UNL     1       1.402   9.538  18.591  0.00  0.00    +0.000 C 
ATOM      8  O   UNL     1       1.893   9.998  17.563  0.00  0.00    +0.000 OA
ATOM      9  H   UNL     1       0.165   9.711  20.195  0.00  0.00    +0.000 HD
BRANCH   6  10
ATOM     10  C   UNL     1      -0.211  11.401  18.940  0.00  0.00    +0.000 C 
BRANCH  10  18
ATOM     11  C   UNL     1      -1.894   9.822  16.764  0.00  0.00    +0.000 C 
ATOM     12  C   UNL     1      -2.476  10.735  17.807  0.00  0.00    +0.000 A 
ATOM     13  C   UNL     1      -3.876  10.863  17.813  0.00  0.00    +0.000 A 
ATOM     14  C   UNL     1      -4.500  11.690  18.727  0.00  0.00    +0.000 A 
ATOM     15  N   UNL     1      -3.816  12.384  19.639  0.00  0.00    +0.000 NA
ATOM     16  C   UNL     1      -2.461  12.261  19.660  0.00  0.00    +0.000 A 
ATOM     17  C   UNL     1      -1.794  13.062  20.747  0.00  0.00    +0.000 C 
ATOM     18  C   UNL     1      -1.722  11.442  18.767  0.00  0.00    +0.000 A 
BRANCH  14  19
ATOM     19  N   UNL     1      -5.889  11.773  18.772  0.00  0.00    +0.000 N 
ATOM     20  H   UNL     1      -6.215  12.731  18.808  0.00  0.00    +0.000 HD
ATOM     21  H   UNL     1      -6.198  11.225  19.571  0.00  0.00    +0.000 HD
ENDBRANCH  14  19
ENDBRANCH  10  18
ENDBRANCH   6  10
ENDBRANCH   1   7
BRANCH   3  22
ATOM     22  C   UNL     1       3.711   5.198  19.531  0.00  0.00    +0.000 C 
BRANCH  22  23
ATOM     23  C   UNL     1       4.424   5.059  18.208  0.00  0.00    +0.000 A 
ATOM     24  C   UNL     1       3.832   4.361  17.146  0.00  0.00    +0.000 A 
ATOM     25  C   UNL     1       4.472   4.257  15.906  0.00  0.00    +0.000 A 
ATOM     26  C   UNL     1       5.721   4.854  15.703  0.00  0.00    +0.000 A 
ATOM     27  C   UNL     1       6.313   5.572  16.752  0.00  0.00    +0.000 A 
ATOM     28  C   UNL     1       5.667   5.674  17.992  0.00  0.00    +0.000 A 
BRANCH  26  29
ATOM     29  N   UNL     1       6.401   4.721  14.459  0.00  0.00    +0.000 N 
ATOM     30  C   UNL     1       6.115   3.852  13.424  0.00  0.00    +0.000 A 
ATOM     31  C   UNL     1       7.085   4.023  12.466  0.00  0.00    +0.000 A 
ATOM     32  C   UNL     1       7.907   5.035  12.978  0.00  0.00    +0.000 A 
ATOM     33  N   UNL     1       7.495   5.478  14.167  0.00  0.00    +0.000 NA
ENDBRANCH  26  29
ENDBRANCH  22  23
ENDBRANCH   3  22
TORSDOF 7
ENDMDL
MODEL 8
REMARK VINA RESULT:      -7.5      0.966      1.663
REMARK  Name = 
REMARK  9 active torsions:
REMARK  status: ('A' for Active; 'I' for Inactive)
REMARK    1  A    between atoms: C_1  and  C_2
REMARK    2  A    between atoms: C_4  and  N_5
REMARK    3  A    between atoms: C_7  and  C_8
REMARK    4  A    between atoms: C_9  and  C_10
REMARK    5  A    between atoms: C_10  and  N_11
REMARK    6  A    between atoms: C_12  and  C_14
REMARK    7  A    between atoms: N_16  and  C_17
REMARK    8  A    between atoms: C_17  and  C_18
REMARK    9  A    between atoms: C_21  and  N_22
REMARK                            x       y       z     vdW  Elec       q    Type
REMARK                         _______ _______ _______ _____ _____    ______ ____
ROOT
ATOM      1  C   UNL     1       2.028   7.724  19.287  0.00  0.00    +0.000 A 
ATOM      2  C   UNL     1       1.947   8.871  18.517  0.00  0.00    +0.000 A 
ATOM      3  N   UNL     1       1.297   9.793  19.297  0.00  0.00    +0.000 N 
ATOM      4  C   UNL     1       1.010   9.192  20.491  0.00  0.00    +0.000 A 
ATOM      5  N   UNL     1       1.420   7.942  20.517  0.00  0.00    +0.000 NA
ENDROOT
BRANCH   1   7
ATOM      6  N   UNL     1       3.922   6.305  19.406  0.00  0.00    +0.000 N 
ATOM      7  C   UNL     1       2.644   6.446  18.909  0.00  0.00    +0.000 C 
ATOM      8  O   UNL     1       2.068   5.598  18.230  0.00  0.00    +0.000 OA
ATOM      9  H   UNL     1       4.224   7.033  20.044  0.00  0.00    +0.000 HD
BRANCH   6  10
ATOM     10  C   UNL     1       4.741   5.139  19.197  0.00  0.00    +0.000 C 
BRANCH  10  18
ATOM     11  C   UNL     1       6.822   6.920  17.598  0.00  0.00    +0.000 C 
ATOM     12  C   UNL     1       6.189   5.659  17.079  0.00  0.00    +0.000 A 
ATOM     13  C   UNL     1       6.586   5.245  15.794  0.00  0.00    +0.000 A 
ATOM     14  C   UNL     1       6.048   4.105  15.229  0.00  0.00    +0.000 A 
ATOM     15  N   UNL     1       5.154   3.349  15.868  0.00  0.00    +0.000 NA
ATOM     16  C   UNL     1       4.771   3.724  17.119  0.00  0.00    +0.000 A 
ATOM     17  C   UNL     1       3.784   2.783  17.760  0.00  0.00    +0.000 C 
ATOM     18  C   UNL     1       5.258   4.874  17.790  0.00  0.00    +0.000 A 
BRANCH  14  19
ATOM     19  N   UNL     1       6.482   3.664  13.981  0.00  0.00    +0.000 N 
ATOM     20  H   UNL     1       7.482   3.769  13.864  0.00  0.00    +0.000 HD
ATOM     21  H   UNL     1       5.951   4.174  13.280  0.00  0.00    +0.000 HD
ENDBRANCH  14  19
ENDBRANCH  10  18
ENDBRANCH   6  10
ENDBRANCH   1   7
BRANCH   3  22
ATOM     22  C   UNL     1       0.854  11.121  18.889  0.00  0.00    +0.000 C 
BRANCH  22  23
ATOM     23  C   UNL     1      -0.648  11.245  18.806  0.00  0.00    +0.000 A 
ATOM     24  C   UNL     1      -1.332  12.189  19.583  0.00  0.00    +0.000 A 
ATOM     25  C   UNL     1      -2.720  12.334  19.486  0.00  0.00    +0.000 A 
ATOM     26  C   UNL     1      -3.454  11.533  18.604  0.00  0.00    +0.000 A 
ATOM     27  C   UNL     1      -2.777  10.599  17.807  0.00  0.00    +0.000 A 
ATOM     28  C   UNL     1      -1.387  10.460  17.907  0.00  0.00    +0.000 A 
BRANCH  26  29
ATOM     29  N   UNL     1      -4.872  11.642  18.525  0.00  0.00    +0.000 N 
ATOM     30  C   UNL     1      -5.643  11.871  17.402  0.00  0.00    +0.000 A 
ATOM     31  C   UNL     1      -6.948  11.980  17.817  0.00  0.00    +0.000 A 
ATOM     32  C   UNL     1      -6.892  11.775  19.202  0.00  0.00    +0.000 A 
ATOM     33  N   UNL     1      -5.651  11.550  19.637  0.00  0.00    +0.000 NA
ENDBRANCH  26  29
ENDBRANCH  22  23
ENDBRANCH   3  22
TORSDOF 7
ENDMDL
MODEL 9
REMARK VINA RESULT:      -7.5      3.187      5.255
REMARK  Name = 
REMARK  9 active torsions:
REMARK  status: ('A' for Active; 'I' for Inactive)
REMARK    1  A    between atoms: C_1  and  C_2
REMARK    2  A    between atoms: C_4  and  N_5
REMARK    3  A    between atoms: C_7  and  C_8
REMARK    4  A    between atoms: C_9  and  C_10
REMARK    5  A    between atoms: C_10  and  N_11
REMARK    6  A    between atoms: C_12  and  C_14
REMARK    7  A    between atoms: N_16  and  C_17
REMARK    8  A    between atoms: C_17  and  C_18
REMARK    9  A    between atoms: C_21  and  N_22
REMARK                            x       y       z     vdW  Elec       q    Type
REMARK                         _______ _______ _______ _____ _____    ______ ____
ROOT
ATOM      1  C   UNL     1       2.064   7.228  19.944  0.00  0.00    +0.000 A 
ATOM      2  C   UNL     1       1.822   8.258  19.052  0.00  0.00    +0.000 A 
ATOM      3  N   UNL     1       1.058   9.167  19.736  0.00  0.00    +0.000 N 
ATOM      4  C   UNL     1       0.863   8.674  20.996  0.00  0.00    +0.000 A 
ATOM      5  N   UNL     1       1.439   7.502  21.155  0.00  0.00    +0.000 NA
ENDROOT
BRANCH   1   7
ATOM      6  N   UNL     1       4.169   6.275  19.425  0.00  0.00    +0.000 N 
ATOM      7  C   UNL     1       2.845   6.010  19.700  0.00  0.00    +0.000 C 
ATOM      8  O   UNL     1       2.361   4.881  19.747  0.00  0.00    +0.000 OA
ATOM      9  H   UNL     1       4.452   7.242  19.533  0.00  0.00    +0.000 HD
BRANCH   6  10
ATOM     10  C   UNL     1       5.156   5.257  19.166  0.00  0.00    +0.000 C 
BRANCH  10  18
ATOM     11  C   UNL     1       3.790   3.669  16.784  0.00  0.00    +0.000 C 
ATOM     12  C   UNL     1       5.082   4.431  16.682  0.00  0.00    +0.000 A 
ATOM     13  C   UNL     1       5.700   4.446  15.419  0.00  0.00    +0.000 A 
ATOM     14  C   UNL     1       6.897   5.110  15.232  0.00  0.00    +0.000 A 
ATOM     15  N   UNL     1       7.506   5.767  16.221  0.00  0.00    +0.000 NA
ATOM     16  C   UNL     1       6.915   5.778  17.447  0.00  0.00    +0.000 A 
ATOM     17  C   UNL     1       7.671   6.574  18.479  0.00  0.00    +0.000 C 
ATOM     18  C   UNL     1       5.690   5.129  17.747  0.00  0.00    +0.000 A 
BRANCH  14  19
ATOM     19  N   UNL     1       7.480   5.174  13.970  0.00  0.00    +0.000 N 
ATOM     20  H   UNL     1       7.807   6.105  13.746  0.00  0.00    +0.000 HD
ATOM     21  H   UNL     1       6.792   4.832  13.303  0.00  0.00    +0.000 HD
ENDBRANCH  14  19
ENDBRANCH  10  18
ENDBRANCH   6  10
ENDBRANCH   1   7
BRANCH   3  22
ATOM     22  C   UNL     1       0.436  10.368  19.191  0.00  0.00    +0.000 C 
BRANCH  22  23
ATOM     23  C   UNL     1       1.318  11.589  19.288  0.00  0.00    +0.000 A 
ATOM     24  C   UNL     1       1.393  12.324  20.479  0.00  0.00    +0.000 A 
ATOM     25  C   UNL     1       2.234  13.437  20.588  0.00  0.00    +0.000 A 
ATOM     26  C   UNL     1       3.022  13.836  19.502  0.00  0.00    +0.000 A 
ATOM     27  C   UNL     1       2.970  13.095  18.313  0.00  0.00    +0.000 A 
ATOM     28  C   UNL     1       2.126  11.981  18.210  0.00  0.00    +0.000 A 
BRANCH  26  29
ATOM     29  N   UNL     1       3.852  14.990  19.586  0.00  0.00    +0.000 N 
ATOM     30  C   UNL     1       4.737  15.327  20.591  0.00  0.00    +0.000 A 
ATOM     31  C   UNL     1       5.252  16.563  20.287  0.00  0.00    +0.000 A 
ATOM     32  C   UNL     1       4.652  16.900  19.066  0.00  0.00    +0.000 A 
ATOM     33  N   UNL     1       3.824  15.953  18.624  0.00  0.00    +0.000 NA
ENDBRANCH  26  29
ENDBRANCH  22  23
ENDBRANCH   3  22
TORSDOF 7
ENDMDL
