MODEL 1
REMARK VINA RESULT:      -8.0      0.000      0.000
REMARK  Name = 
REMARK  7 active torsions:
REMARK  status: ('A' for Active; 'I' for Inactive)
REMARK    1  A    between atoms: N_1  and  C_2
REMARK    2  A    between atoms: C_3  and  S_4
REMARK    3  A    between atoms: S_4  and  O_7
REMARK    4  A    between atoms: C_9  and  N_10
REMARK    5  A    between atoms: N_10  and  C_11
REMARK    6  A    between atoms: C_14  and  S_15
REMARK    7  A    between atoms: S_15  and  O_18
REMARK                            x       y       z     vdW  Elec       q    Type
REMARK                         _______ _______ _______ _____ _____    ______ ____
ROOT
ATOM      1  C   UNL     1      -3.635  12.153  18.960  0.00  0.00    +0.000 A 
ATOM      2  C   UNL     1      -2.880  11.376  18.075  0.00  0.00    +0.000 A 
ATOM      3  C   UNL     1      -1.560  11.021  18.371  0.00  0.00    +0.000 A 
ATOM      4  C   UNL     1      -0.921  11.458  19.538  0.00  0.00    +0.000 A 
ATOM      5  C   UNL     1      -1.656  12.262  20.440  0.00  0.00    +0.000 A 
ATOM      6  C   UNL     1      -2.992  12.608  20.150  0.00  0.00    +0.000 A 
ATOM      7  C   UNL     1      -3.769  13.406  21.140  0.00  0.00    +0.000 C 
ATOM      8  O   UNL     1      -4.965  13.633  20.974  0.00  0.00    +0.000 OA
ATOM      9  C   UNL     1      -3.127  13.902  22.364  0.00  0.00    +0.000 A 
ATOM     10  C   UNL     1      -3.872  14.673  23.271  0.00  0.00    +0.000 A 
ATOM     11  C   UNL     1      -3.289  15.129  24.451  0.00  0.00    +0.000 A 
ATOM     12  C   UNL     1      -1.959  14.822  24.726  0.00  0.00    +0.000 A 
ATOM     13  C   UNL     1      -1.214  14.056  23.822  0.00  0.00    +0.000 A 
ATOM     14  C   UNL     1      -1.803  13.590  22.638  0.00  0.00    +0.000 A 
ATOM     15  C   UNL     1      -1.028  12.751  21.701  0.00  0.00    +0.000 C 
ATOM     16  O   UNL     1       0.131  12.454  21.979  0.00  0.00    +0.000 OA
ENDROOT
BRANCH   1  17
ATOM     17  N   UNL     1      -4.903  12.652  18.599  0.00  0.00    +0.000 N 
ATOM     18  H   UNL     1      -5.251  12.323  17.696  0.00  0.00    +0.000 HD
ATOM     19  H   UNL     1      -5.610  12.500  19.335  0.00  0.00    +0.000 HD
ENDBRANCH   1  17
BRANCH   2  20
ATOM     20  S   UNL     1      -3.487  10.762  16.522  0.00  0.00    +0.000 S 
ATOM     21  O   UNL     1      -3.033   9.394  16.413  0.00  0.00    +0.000 OA
ATOM     22  O   UNL     1      -4.884  11.128  16.447  0.00  0.00    +0.000 OA
BRANCH  20  23
ATOM     23  O   UNL     1      -2.710  11.569  15.360  0.00  0.00    +0.000 OA
ATOM     24  H   UNL     1      -2.549  12.480  15.692  0.00  0.00    +0.000 HD
ENDBRANCH  20  23
ENDBRANCH   2  20
BRANCH   4  25
ATOM     25  N   UNL     1       0.418  11.065  19.769  0.00  0.00    +0.000 N 
ATOM     26  H   UNL     1       1.102  11.797  19.542  0.00  0.00    +0.000 HD
BRANCH  25  27
ATOM     27  C   UNL     1       0.992   9.774  19.781  0.00  0.00    +0.000 A 
ATOM     28  C   UNL     1       1.045   8.980  20.937  0.00  0.00    +0.000 A 
ATOM     29  C   UNL     1       1.628   7.711  20.916  0.00  0.00    +0.000 A 
ATOM     30  C   UNL     1       2.172   7.227  19.726  0.00  0.00    +0.000 A 
ATOM     31  C   UNL     1       2.148   8.001  18.566  0.00  0.00    +0.000 A 
ATOM     32  C   UNL     1       1.559   9.271  18.600  0.00  0.00    +0.000 A 
BRANCH  30  33
ATOM     33  S   UNL     1       2.803   5.572  19.681  0.00  0.00    +0.000 S 
ATOM     34  O   UNL     1       1.998   4.817  18.742  0.00  0.00    +0.000 OA
ATOM     35  O   UNL     1       4.239   5.648  19.586  0.00  0.00    +0.000 OA
BRANCH  33  36
ATOM     36  O   UNL     1       2.416   4.972  21.129  0.00  0.00    +0.000 OA
ATOM     37  H   UNL     1       3.001   4.202  21.299  0.00  0.00    +0.000 HD
ENDBRANCH  33  36
ENDBRANCH  30  33
ENDBRANCH  25  27
ENDBRANCH   4  25
TORSDOF 7
ENDMDL
MODEL 2
REMARK VINA RESULT:      -8.0      0.605      1.387
REMARK  Name = 
REMARK  7 active torsions:
REMARK  status: ('A' for Active; 'I' for Inactive)
REMARK    1  A    between atoms: N_1  and  C_2
REMARK    2  A    between atoms: C_3  and  S_4
REMARK    3  A    between atoms: S_4  and  O_7
REMARK    4  A    between atoms: C_9  and  N_10
REMARK    5  A    between atoms: N_10  and  C_11
REMARK    6  A    between atoms: C_14  and  S_15
REMARK    7  A    between atoms: S_15  and  O_18
REMARK                            x       y       z     vdW  Elec       q    Type
REMARK                         _______ _______ _______ _____ _____    ______ ____
ROOT
ATOM      1  C   UNL     1      -3.558  12.118  18.893  0.00  0.00    +0.000 A 
ATOM      2  C   UNL     1      -2.786  11.314  18.048  0.00  0.00    +0.000 A 
ATOM      3  C   UNL     1      -1.485  10.936  18.400  0.00  0.00    +0.000 A 
ATOM      4  C   UNL     1      -0.883  11.375  19.584  0.00  0.00    +0.000 A 
ATOM      5  C   UNL     1      -1.635  12.206  20.447  0.00  0.00    +0.000 A 
ATOM      6  C   UNL     1      -2.951  12.576  20.101  0.00  0.00    +0.000 A 
ATOM      7  C   UNL     1      -3.749  13.403  21.050  0.00  0.00    +0.000 C 
ATOM      8  O   UNL     1      -4.933  13.653  20.835  0.00  0.00    +0.000 OA
ATOM      9  C   UNL     1      -3.144  13.902  22.292  0.00  0.00    +0.000 A 
ATOM     10  C   UNL     1      -3.908  14.701  23.159  0.00  0.00    +0.000 A 
ATOM     11  C   UNL     1      -3.360  15.160  24.355  0.00  0.00    +0.000 A 
ATOM     12  C   UNL     1      -2.049  14.829  24.685  0.00  0.00    +0.000 A 
ATOM     13  C   UNL     1      -1.286  14.036  23.821  0.00  0.00    +0.000 A 
ATOM     14  C   UNL     1      -1.838  13.566  22.621  0.00  0.00    +0.000 A 
ATOM     15  C   UNL     1      -1.046  12.699  21.725  0.00  0.00    +0.000 C 
ATOM     16  O   UNL     1       0.095  12.383  22.052  0.00  0.00    +0.000 OA
ENDROOT
BRANCH   1  17
ATOM     17  N   UNL     1      -4.800  12.638  18.477  0.00  0.00    +0.000 N 
ATOM     18  H   UNL     1      -5.615  12.123  18.818  0.00  0.00    +0.000 HD
ATOM     19  H   UNL     1      -4.895  13.643  18.685  0.00  0.00    +0.000 HD
ENDBRANCH   1  17
BRANCH   2  20
ATOM     20  S   UNL     1      -3.345  10.692  16.481  0.00  0.00    +0.000 S 
ATOM     21  O   UNL     1      -2.858   9.335  16.377  0.00  0.00    +0.000 OA
ATOM     22  O   UNL     1      -4.747  11.026  16.376  0.00  0.00    +0.000 OA
BRANCH  20  23
ATOM     23  O   UNL     1      -2.561  11.520  15.338  0.00  0.00    +0.000 OA
ATOM     24  H   UNL     1      -1.633  11.195  15.324  0.00  0.00    +0.000 HD
ENDBRANCH  20  23
ENDBRANCH   2  20
BRANCH   4  25
ATOM     25  N   UNL     1       0.438  10.958  19.873  0.00  0.00    +0.000 N 
ATOM     26  H   UNL     1       1.080  11.739  20.056  0.00  0.00    +0.000 HD
BRANCH  25  27
ATOM     27  C   UNL     1       1.115   9.777  19.495  0.00  0.00    +0.000 A 
ATOM     28  C   UNL     1       1.632   9.580  18.205  0.00  0.00    +0.000 A 
ATOM     29  C   UNL     1       2.288   8.397  17.862  0.00  0.00    +0.000 A 
ATOM     30  C   UNL     1       2.428   7.389  18.817  0.00  0.00    +0.000 A 
ATOM     31  C   UNL     1       1.910   7.551  20.103  0.00  0.00    +0.000 A 
ATOM     32  C   UNL     1       1.256   8.744  20.434  0.00  0.00    +0.000 A 
BRANCH  30  33
ATOM     33  S   UNL     1       3.364   5.941  18.409  0.00  0.00    +0.000 S 
ATOM     34  O   UNL     1       4.128   5.564  19.580  0.00  0.00    +0.000 OA
ATOM     35  O   UNL     1       2.486   5.025  17.726  0.00  0.00    +0.000 OA
BRANCH  33  36
ATOM     36  O   UNL     1       4.464   6.478  17.356  0.00  0.00    +0.000 OA
ATOM     37  H   UNL     1       5.320   6.050  17.575  0.00  0.00    +0.000 HD
ENDBRANCH  33  36
ENDBRANCH  30  33
ENDBRANCH  25  27
ENDBRANCH   4  25
TORSDOF 7
ENDMDL
MODEL 3
REMARK VINA RESULT:      -7.8      0.387      1.443
REMARK  Name = 
REMARK  7 active torsions:
REMARK  status: ('A' for Active; 'I' for Inactive)
REMARK    1  A    between atoms: N_1  and  C_2
REMARK    2  A    between atoms: C_3  and  S_4
REMARK    3  A    between atoms: S_4  and  O_7
REMARK    4  A    between atoms: C_9  and  N_10
REMARK    5  A    between atoms: N_10  and  C_11
REMARK    6  A    between atoms: C_14  and  S_15
REMARK    7  A    between atoms: S_15  and  O_18
REMARK                            x       y       z     vdW  Elec       q    Type
REMARK                         _______ _______ _______ _____ _____    ______ ____
ROOT
ATOM      1  C   UNL     1      -3.501  11.934  18.642  0.00  0.00    +0.000 A 
ATOM      2  C   UNL     1      -2.736  11.160  17.764  0.00  0.00    +0.000 A 
ATOM      3  C   UNL     1      -1.417  10.810  18.071  0.00  0.00    +0.000 A 
ATOM      4  C   UNL     1      -0.790  11.248  19.243  0.00  0.00    +0.000 A 
ATOM      5  C   UNL     1      -1.536  12.049  20.140  0.00  0.00    +0.000 A 
ATOM      6  C   UNL     1      -2.870  12.390  19.837  0.00  0.00    +0.000 A 
ATOM      7  C   UNL     1      -3.659  13.186  20.821  0.00  0.00    +0.000 C 
ATOM      8  O   UNL     1      -4.854  13.409  20.645  0.00  0.00    +0.000 OA
ATOM      9  C   UNL     1      -3.030  13.684  22.051  0.00  0.00    +0.000 A 
ATOM     10  C   UNL     1      -3.786  14.452  22.951  0.00  0.00    +0.000 A 
ATOM     11  C   UNL     1      -3.214  14.909  24.137  0.00  0.00    +0.000 A 
ATOM     12  C   UNL     1      -1.885  14.607  24.423  0.00  0.00    +0.000 A 
ATOM     13  C   UNL     1      -1.130  13.844  23.526  0.00  0.00    +0.000 A 
ATOM     14  C   UNL     1      -1.706  13.376  22.336  0.00  0.00    +0.000 A 
ATOM     15  C   UNL     1      -0.921  12.540  21.406  0.00  0.00    +0.000 C 
ATOM     16  O   UNL     1       0.237  12.248  21.694  0.00  0.00    +0.000 OA
ENDROOT
BRANCH   1  17
ATOM     17  N   UNL     1      -4.768  12.428  18.270  0.00  0.00    +0.000 N 
ATOM     18  H   UNL     1      -5.069  12.167  17.328  0.00  0.00    +0.000 HD
ATOM     19  H   UNL     1      -5.498  12.197  18.960  0.00  0.00    +0.000 HD
ENDBRANCH   1  17
BRANCH   2  20
ATOM     20  S   UNL     1      -3.326  10.544  16.205  0.00  0.00    +0.000 S 
ATOM     21  O   UNL     1      -2.843  11.455  15.191  0.00  0.00    +0.000 OA
ATOM     22  O   UNL     1      -3.039   9.128  16.181  0.00  0.00    +0.000 OA
BRANCH  20  23
ATOM     23  O   UNL     1      -4.931  10.715  16.208  0.00  0.00    +0.000 OA
ATOM     24  H   UNL     1      -5.222  10.770  15.270  0.00  0.00    +0.000 HD
ENDBRANCH  20  23
ENDBRANCH   2  20
BRANCH   4  25
ATOM     25  N   UNL     1       0.549  10.860  19.487  0.00  0.00    +0.000 N 
ATOM     26  H   UNL     1       1.231  11.598  19.275  0.00  0.00    +0.000 HD
BRANCH  25  27
ATOM     27  C   UNL     1       1.129   9.572  19.492  0.00  0.00    +0.000 A 
ATOM     28  C   UNL     1       1.747   9.014  18.362  0.00  0.00    +0.000 A 
ATOM     29  C   UNL     1       2.303   7.734  18.400  0.00  0.00    +0.000 A 
ATOM     30  C   UNL     1       2.238   6.994  19.580  0.00  0.00    +0.000 A 
ATOM     31  C   UNL     1       1.616   7.516  20.714  0.00  0.00    +0.000 A 
ATOM     32  C   UNL     1       1.064   8.802  20.664  0.00  0.00    +0.000 A 
BRANCH  30  33
ATOM     33  S   UNL     1       3.049   5.420  19.653  0.00  0.00    +0.000 S 
ATOM     34  O   UNL     1       4.453   5.632  19.366  0.00  0.00    +0.000 OA
ATOM     35  O   UNL     1       2.592   4.742  20.840  0.00  0.00    +0.000 OA
BRANCH  33  36
ATOM     36  O   UNL     1       2.480   4.633  18.363  0.00  0.00    +0.000 OA
ATOM     37  H   UNL     1       2.675   3.679  18.486  0.00  0.00    +0.000 HD
ENDBRANCH  33  36
ENDBRANCH  30  33
ENDBRANCH  25  27
ENDBRANCH   4  25
TORSDOF 7
ENDMDL
MODEL 4
REMARK VINA RESULT:      -7.8      8.395     10.809
REMARK  Name = 
REMARK  7 active torsions:
REMARK  status: ('A' for Active; 'I' for Inactive)
REMARK    1  A    between atoms: N_1  and  C_2
REMARK    2  A    between atoms: C_3  and  S_4
REMARK    3  A    between atoms: S_4  and  O_7
REMARK    4  A    between atoms: C_9  and  N_10
REMARK    5  A    between atoms: N_10  and  C_11
REMARK    6  A    between atoms: C_14  and  S_15
REMARK    7  A    between atoms: S_15  and  O_18
REMARK                            x       y       z     vdW  Elec       q    Type
REMARK                         _______ _______ _______ _____ _____    ______ ____
ROOT
ATOM      1  C   UNL     1       6.385  14.987  19.262  0.00  0.00    +0.000 A 
ATOM      2  C   UNL     1       5.560  15.368  20.325  0.00  0.00    +0.000 A 
ATOM      3  C   UNL     1       5.912  15.090  21.649  0.00  0.00    +0.000 A 
ATOM      4  C   UNL     1       7.079  14.385  21.972  0.00  0.00    +0.000 A 
ATOM      5  C   UNL     1       7.921  13.971  20.914  0.00  0.00    +0.000 A 
ATOM      6  C   UNL     1       7.574  14.263  19.579  0.00  0.00    +0.000 A 
ATOM      7  C   UNL     1       8.503  13.870  18.482  0.00  0.00    +0.000 C 
ATOM      8  O   UNL     1       8.290  14.204  17.318  0.00  0.00    +0.000 OA
ATOM      9  C   UNL     1       9.725  13.110  18.777  0.00  0.00    +0.000 A 
ATOM     10  C   UNL     1      10.573  12.729  17.725  0.00  0.00    +0.000 A 
ATOM     11  C   UNL     1      11.750  12.032  17.988  0.00  0.00    +0.000 A 
ATOM     12  C   UNL     1      12.080  11.708  19.302  0.00  0.00    +0.000 A 
ATOM     13  C   UNL     1      11.234  12.084  20.351  0.00  0.00    +0.000 A 
ATOM     14  C   UNL     1      10.053  12.793  20.088  0.00  0.00    +0.000 A 
ATOM     15  C   UNL     1       9.178  13.222  21.198  0.00  0.00    +0.000 C 
ATOM     16  O   UNL     1       9.506  12.964  22.354  0.00  0.00    +0.000 OA
ENDROOT
BRANCH   1  17
ATOM     17  N   UNL     1       5.963  15.114  17.923  0.00  0.00    +0.000 N 
ATOM     18  H   UNL     1       6.642  15.559  17.301  0.00  0.00    +0.000 HD
ATOM     19  H   UNL     1       5.642  14.219  17.525  0.00  0.00    +0.000 HD
ENDBRANCH   1  17
BRANCH   2  20
ATOM     20  S   UNL     1       4.016  16.226  20.129  0.00  0.00    +0.000 S 
ATOM     21  O   UNL     1       3.396  16.264  21.434  0.00  0.00    +0.000 OA
ATOM     22  O   UNL     1       4.298  17.420  19.365  0.00  0.00    +0.000 OA
BRANCH  20  23
ATOM     23  O   UNL     1       3.064  15.285  19.226  0.00  0.00    +0.000 OA
ATOM     24  H   UNL     1       2.600  15.867  18.584  0.00  0.00    +0.000 HD
ENDBRANCH  20  23
ENDBRANCH   2  20
BRANCH   4  25
ATOM     25  N   UNL     1       7.369  14.135  23.333  0.00  0.00    +0.000 N 
ATOM     26  H   UNL     1       8.367  14.225  23.559  0.00  0.00    +0.000 HD
BRANCH  25  27
ATOM     27  C   UNL     1       6.669  13.352  24.278  0.00  0.00    +0.000 A 
ATOM     28  C   UNL     1       5.968  13.913  25.356  0.00  0.00    +0.000 A 
ATOM     29  C   UNL     1       5.294  13.108  26.277  0.00  0.00    +0.000 A 
ATOM     30  C   UNL     1       5.322  11.721  26.125  0.00  0.00    +0.000 A 
ATOM     31  C   UNL     1       6.025  11.135  25.072  0.00  0.00    +0.000 A 
ATOM     32  C   UNL     1       6.695  11.954  24.154  0.00  0.00    +0.000 A 
BRANCH  30  33
ATOM     33  S   UNL     1       4.368  10.716  27.228  0.00  0.00    +0.000 S 
ATOM     34  O   UNL     1       3.463   9.917  26.428  0.00  0.00    +0.000 OA
ATOM     35  O   UNL     1       5.271  10.137  28.192  0.00  0.00    +0.000 OA
BRANCH  33  36
ATOM     36  O   UNL     1       3.417  11.776  27.990  0.00  0.00    +0.000 OA
ATOM     37  H   UNL     1       2.655  11.280  28.360  0.00  0.00    +0.000 HD
ENDBRANCH  33  36
ENDBRANCH  30  33
ENDBRANCH  25  27
ENDBRANCH   4  25
TORSDOF 7
ENDMDL
MODEL 5
REMARK VINA RESULT:      -7.6      0.990      1.427
REMARK  Name = 
REMARK  7 active torsions:
REMARK  status: ('A' for Active; 'I' for Inactive)
REMARK    1  A    between atoms: N_1  and  C_2
REMARK    2  A    between atoms: C_3  and  S_4
REMARK    3  A    between atoms: S_4  and  O_7
REMARK    4  A    between atoms: C_9  and  N_10
REMARK    5  A    between atoms: N_10  and  C_11
REMARK    6  A    between atoms: C_14  and  S_15
REMARK    7  A    between atoms: S_15  and  O_18
REMARK                            x       y       z     vdW  Elec       q    Type
REMARK                         _______ _______ _______ _____ _____    ______ ____
ROOT
ATOM      1  C   UNL     1      -4.135  12.448  19.810  0.00  0.00    +0.000 A 
ATOM      2  C   UNL     1      -3.479  11.702  18.825  0.00  0.00    +0.000 A 
ATOM      3  C   UNL     1      -2.109  11.433  18.915  0.00  0.00    +0.000 A 
ATOM      4  C   UNL     1      -1.326  11.929  19.964  0.00  0.00    +0.000 A 
ATOM      5  C   UNL     1      -1.961  12.703  20.963  0.00  0.00    +0.000 A 
ATOM      6  C   UNL     1      -3.345  12.963  20.880  0.00  0.00    +0.000 A 
ATOM      7  C   UNL     1      -4.007  13.731  21.972  0.00  0.00    +0.000 C 
ATOM      8  O   UNL     1      -5.227  13.883  21.992  0.00  0.00    +0.000 OA
ATOM      9  C   UNL     1      -3.216  14.288  23.077  0.00  0.00    +0.000 A 
ATOM     10  C   UNL     1      -3.859  15.030  24.082  0.00  0.00    +0.000 A 
ATOM     11  C   UNL     1      -3.130  15.542  25.152  0.00  0.00    +0.000 A 
ATOM     12  C   UNL     1      -1.756  15.320  25.220  0.00  0.00    +0.000 A 
ATOM     13  C   UNL     1      -1.114  14.584  24.218  0.00  0.00    +0.000 A 
ATOM     14  C   UNL     1      -1.849  14.061  23.144  0.00  0.00    +0.000 A 
ATOM     15  C   UNL     1      -1.178  13.254  22.105  0.00  0.00    +0.000 C 
ATOM     16  O   UNL     1       0.027  13.033  22.203  0.00  0.00    +0.000 OA
ENDROOT
BRANCH   1  17
ATOM     17  N   UNL     1      -5.472  12.863  19.646  0.00  0.00    +0.000 N 
ATOM     18  H   UNL     1      -5.586  13.848  19.398  0.00  0.00    +0.000 HD
ATOM     19  H   UNL     1      -5.992  12.262  18.989  0.00  0.00    +0.000 HD
ENDBRANCH   1  17
BRANCH   2  20
ATOM     20  S   UNL     1      -4.279  11.024  17.391  0.00  0.00    +0.000 S 
ATOM     21  O   UNL     1      -3.252  10.359  16.620  0.00  0.00    +0.000 OA
ATOM     22  O   UNL     1      -5.465  10.342  17.859  0.00  0.00    +0.000 OA
BRANCH  20  23
ATOM     23  O   UNL     1      -4.760  12.270  16.485  0.00  0.00    +0.000 OA
ATOM     24  H   UNL     1      -4.756  13.068  17.058  0.00  0.00    +0.000 HD
ENDBRANCH  20  23
ENDBRANCH   2  20
BRANCH   4  25
ATOM     25  N   UNL     1       0.055  11.622  19.988  0.00  0.00    +0.000 N 
ATOM     26  H   UNL     1       0.657  12.452  19.923  0.00  0.00    +0.000 HD
BRANCH  25  27
ATOM     27  C   UNL     1       0.724  10.437  19.609  0.00  0.00    +0.000 A 
ATOM     28  C   UNL     1       1.200  10.219  18.306  0.00  0.00    +0.000 A 
ATOM     29  C   UNL     1       1.850   9.032  17.963  0.00  0.00    +0.000 A 
ATOM     30  C   UNL     1       2.022   8.041  18.930  0.00  0.00    +0.000 A 
ATOM     31  C   UNL     1       1.544   8.223  20.228  0.00  0.00    +0.000 A 
ATOM     32  C   UNL     1       0.897   9.420  20.560  0.00  0.00    +0.000 A 
BRANCH  30  33
ATOM     33  S   UNL     1       2.950   6.589  18.517  0.00  0.00    +0.000 S 
ATOM     34  O   UNL     1       2.018   5.592  18.031  0.00  0.00    +0.000 OA
ATOM     35  O   UNL     1       4.107   7.003  17.764  0.00  0.00    +0.000 OA
BRANCH  33  36
ATOM     36  O   UNL     1       3.444   6.028  19.948  0.00  0.00    +0.000 OA
ATOM     37  H   UNL     1       2.691   5.549  20.357  0.00  0.00    +0.000 HD
ENDBRANCH  33  36
ENDBRANCH  30  33
ENDBRANCH  25  27
ENDBRANCH   4  25
TORSDOF 7
ENDMDL
MODEL 6
REMARK VINA RESULT:      -7.6      2.717      4.712
REMARK  Name = 
REMARK  7 active torsions:
REMARK  status: ('A' for Active; 'I' for Inactive)
REMARK    1  A    between atoms: N_1  and  C_2
REMARK    2  A    between atoms: C_3  and  S_4
REMARK    3  A    between atoms: S_4  and  O_7
REMARK    4  A    between atoms: C_9  and  N_10
REMARK    5  A    between atoms: N_10  and  C_11
REMARK    6  A    between atoms: C_14  and  S_15
REMARK    7  A    between atoms: S_15  and  O_18
REMARK                            x       y       z     vdW  Elec       q    Type
REMARK                         _______ _______ _______ _____ _____    ______ ____
ROOT
ATOM      1  C   UNL     1      -0.329  13.991  20.738  0.00  0.00    +0.000 A 
ATOM      2  C   UNL     1       1.030  13.701  20.576  0.00  0.00    +0.000 A 
ATOM      3  C   UNL     1       1.451  12.648  19.758  0.00  0.00    +0.000 A 
ATOM      4  C   UNL     1       0.541  11.814  19.099  0.00  0.00    +0.000 A 
ATOM      5  C   UNL     1      -0.840  12.073  19.261  0.00  0.00    +0.000 A 
ATOM      6  C   UNL     1      -1.266  13.144  20.075  0.00  0.00    +0.000 A 
ATOM      7  C   UNL     1      -2.723  13.438  20.187  0.00  0.00    +0.000 C 
ATOM      8  O   UNL     1      -3.126  14.426  20.796  0.00  0.00    +0.000 OA
ATOM      9  C   UNL     1      -3.710  12.572  19.530  0.00  0.00    +0.000 A 
ATOM     10  C   UNL     1      -5.079  12.854  19.670  0.00  0.00    +0.000 A 
ATOM     11  C   UNL     1      -6.029  12.060  19.031  0.00  0.00    +0.000 A 
ATOM     12  C   UNL     1      -5.616  10.979  18.256  0.00  0.00    +0.000 A 
ATOM     13  C   UNL     1      -4.253  10.695  18.118  0.00  0.00    +0.000 A 
ATOM     14  C   UNL     1      -3.295  11.498  18.754  0.00  0.00    +0.000 A 
ATOM     15  C   UNL     1      -1.855  11.220  18.580  0.00  0.00    +0.000 C 
ATOM     16  O   UNL     1      -1.507  10.288  17.859  0.00  0.00    +0.000 OA
ENDROOT
BRANCH   1  17
ATOM     17  N   UNL     1      -0.769  14.939  21.684  0.00  0.00    +0.000 N 
ATOM     18  H   UNL     1      -1.769  15.151  21.643  0.00  0.00    +0.000 HD
ATOM     19  H   UNL     1      -0.492  14.692  22.646  0.00  0.00    +0.000 HD
ENDBRANCH   1  17
BRANCH   2  20
ATOM     20  S   UNL     1       2.341  14.607  21.361  0.00  0.00    +0.000 S 
ATOM     21  O   UNL     1       2.826  15.559  20.387  0.00  0.00    +0.000 OA
ATOM     22  O   UNL     1       1.853  15.004  22.663  0.00  0.00    +0.000 OA
BRANCH  20  23
ATOM     23  O   UNL     1       3.557  13.570  21.594  0.00  0.00    +0.000 OA
ATOM     24  H   UNL     1       4.243  13.765  20.917  0.00  0.00    +0.000 HD
ENDBRANCH  20  23
ENDBRANCH   2  20
BRANCH   4  25
ATOM     25  N   UNL     1       1.039  10.764  18.291  0.00  0.00    +0.000 N 
ATOM     26  H   UNL     1       0.698  10.800  17.323  0.00  0.00    +0.000 HD
BRANCH  25  27
ATOM     27  C   UNL     1       1.491   9.477  18.659  0.00  0.00    +0.000 A 
ATOM     28  C   UNL     1       1.292   8.943  19.942  0.00  0.00    +0.000 A 
ATOM     29  C   UNL     1       1.759   7.670  20.274  0.00  0.00    +0.000 A 
ATOM     30  C   UNL     1       2.442   6.919  19.317  0.00  0.00    +0.000 A 
ATOM     31  C   UNL     1       2.670   7.432  18.039  0.00  0.00    +0.000 A 
ATOM     32  C   UNL     1       2.193   8.709  17.718  0.00  0.00    +0.000 A 
BRANCH  30  33
ATOM     33  S   UNL     1       2.928   5.261  19.711  0.00  0.00    +0.000 S 
ATOM     34  O   UNL     1       2.039   4.360  19.007  0.00  0.00    +0.000 OA
ATOM     35  O   UNL     1       4.363   5.182  19.598  0.00  0.00    +0.000 OA
BRANCH  33  36
ATOM     36  O   UNL     1       2.528   5.102  21.268  0.00  0.00    +0.000 OA
ATOM     37  H   UNL     1       1.756   5.684  21.438  0.00  0.00    +0.000 HD
ENDBRANCH  33  36
ENDBRANCH  30  33
ENDBRANCH  25  27
ENDBRANCH   4  25
TORSDOF 7
ENDMDL
MODEL 7
REMARK VINA RESULT:      -7.5      2.714      4.768
REMARK  Name = 
REMARK  7 active torsions:
REMARK  status: ('A' for Active; 'I' for Inactive)
REMARK    1  A    between atoms: N_1  and  C_2
REMARK    2  A    between atoms: C_3  and  S_4
REMARK    3  A    between atoms: S_4  and  O_7
REMARK    4  A    between atoms: C_9  and  N_10
REMARK    5  A    between atoms: N_10  and  C_11
REMARK    6  A    between atoms: C_14  and  S_15
REMARK    7  A    between atoms: S_15  and  O_18
REMARK                            x       y       z     vdW  Elec       q    Type
REMARK                         _______ _______ _______ _____ _____    ______ ____
ROOT
ATOM      1  C   UNL     1      -0.405  13.801  20.628  0.00  0.00    +0.000 A 
ATOM      2  C   UNL     1       0.958  13.528  20.473  0.00  0.00    +0.000 A 
ATOM      3  C   UNL     1       1.397  12.480  19.656  0.00  0.00    +0.000 A 
ATOM      4  C   UNL     1       0.500  11.634  18.994  0.00  0.00    +0.000 A 
ATOM      5  C   UNL     1      -0.885  11.876  19.151  0.00  0.00    +0.000 A 
ATOM      6  C   UNL     1      -1.328  12.941  19.962  0.00  0.00    +0.000 A 
ATOM      7  C   UNL     1      -2.789  13.217  20.067  0.00  0.00    +0.000 C 
ATOM      8  O   UNL     1      -3.208  14.200  20.674  0.00  0.00    +0.000 OA
ATOM      9  C   UNL     1      -3.762  12.338  19.406  0.00  0.00    +0.000 A 
ATOM     10  C   UNL     1      -5.135  12.603  19.541  0.00  0.00    +0.000 A 
ATOM     11  C   UNL     1      -6.072  11.796  18.898  0.00  0.00    +0.000 A 
ATOM     12  C   UNL     1      -5.642  10.720  18.126  0.00  0.00    +0.000 A 
ATOM     13  C   UNL     1      -4.275  10.453  17.994  0.00  0.00    +0.000 A 
ATOM     14  C   UNL     1      -3.330  11.269  18.633  0.00  0.00    +0.000 A 
ATOM     15  C   UNL     1      -1.886  11.010  18.465  0.00  0.00    +0.000 C 
ATOM     16  O   UNL     1      -1.523  10.082  17.746  0.00  0.00    +0.000 OA
ENDROOT
BRANCH   1  17
ATOM     17  N   UNL     1      -0.861  14.744  21.572  0.00  0.00    +0.000 N 
ATOM     18  H   UNL     1      -0.121  15.233  22.079  0.00  0.00    +0.000 HD
ATOM     19  H   UNL     1      -1.526  15.418  21.164  0.00  0.00    +0.000 HD
ENDBRANCH   1  17
BRANCH   2  20
ATOM     20  S   UNL     1       2.255  14.451  21.262  0.00  0.00    +0.000 S 
ATOM     21  O   UNL     1       3.314  13.511  21.551  0.00  0.00    +0.000 OA
ATOM     22  O   UNL     1       2.464  15.640  20.467  0.00  0.00    +0.000 OA
BRANCH  20  23
ATOM     23  O   UNL     1       1.691  14.921  22.700  0.00  0.00    +0.000 OA
ATOM     24  H   UNL     1       0.752  15.182  22.576  0.00  0.00    +0.000 HD
ENDBRANCH  20  23
ENDBRANCH   2  20
BRANCH   4  25
ATOM     25  N   UNL     1       1.015  10.590  18.190  0.00  0.00    +0.000 N 
ATOM     26  H   UNL     1       0.650  10.600  17.229  0.00  0.00    +0.000 HD
BRANCH  25  27
ATOM     27  C   UNL     1       1.520   9.326  18.564  0.00  0.00    +0.000 A 
ATOM     28  C   UNL     1       1.327   8.782  19.844  0.00  0.00    +0.000 A 
ATOM     29  C   UNL     1       1.848   7.532  20.183  0.00  0.00    +0.000 A 
ATOM     30  C   UNL     1       2.579   6.814  19.237  0.00  0.00    +0.000 A 
ATOM     31  C   UNL     1       2.801   7.337  17.962  0.00  0.00    +0.000 A 
ATOM     32  C   UNL     1       2.271   8.591  17.634  0.00  0.00    +0.000 A 
BRANCH  30  33
ATOM     33  S   UNL     1       3.136   5.180  19.638  0.00  0.00    +0.000 S 
ATOM     34  O   UNL     1       2.599   4.837  20.939  0.00  0.00    +0.000 OA
ATOM     35  O   UNL     1       2.945   4.350  18.475  0.00  0.00    +0.000 OA
BRANCH  33  36
ATOM     36  O   UNL     1       4.722   5.362  19.883  0.00  0.00    +0.000 OA
ATOM     37  H   UNL     1       4.843   6.112  20.504  0.00  0.00    +0.000 HD
ENDBRANCH  33  36
ENDBRANCH  30  33
ENDBRANCH  25  27
ENDBRANCH   4  25
TORSDOF 7
ENDMDL
MODEL 8
REMARK VINA RESULT:      -7.5      2.850      4.855
REMARK  Name = 
REMARK  7 active torsions:
REMARK  status: ('A' for Active; 'I' for Inactive)
REMARK    1  A    between atoms: N_1  and  C_2
REMARK    2  A    between atoms: C_3  and  S_4
REMARK    3  A    between atoms: S_4  and  O_7
REMARK    4  A    between atoms: C_9  and  N_10
REMARK    5  A    between atoms: N_10  and  C_11
REMARK    6  A    between atoms: C_14  and  S_15
REMARK    7  A    between atoms: S_15  and  O_18
REMARK                            x       y       z     vdW  Elec       q    Type
REMARK                         _______ _______ _______ _____ _____    ______ ____
ROOT
ATOM      1  C   UNL     1      -0.058  13.904  20.428  0.00  0.00    +0.000 A 
ATOM      2  C   UNL     1       1.304  13.650  20.235  0.00  0.00    +0.000 A 
ATOM      3  C   UNL     1       1.734  12.592  19.428  0.00  0.00    +0.000 A 
ATOM      4  C   UNL     1       0.831  11.716  18.813  0.00  0.00    +0.000 A 
ATOM      5  C   UNL     1      -0.552  11.939  19.008  0.00  0.00    +0.000 A 
ATOM      6  C   UNL     1      -0.987  13.015  19.810  0.00  0.00    +0.000 A 
ATOM      7  C   UNL     1      -2.449  13.269  19.956  0.00  0.00    +0.000 C 
ATOM      8  O   UNL     1      -2.865  14.259  20.554  0.00  0.00    +0.000 OA
ATOM      9  C   UNL     1      -3.428  12.360  19.346  0.00  0.00    +0.000 A 
ATOM     10  C   UNL     1      -4.799  12.605  19.518  0.00  0.00    +0.000 A 
ATOM     11  C   UNL     1      -5.743  11.770  18.923  0.00  0.00    +0.000 A 
ATOM     12  C   UNL     1      -5.319  10.684  18.161  0.00  0.00    +0.000 A 
ATOM     13  C   UNL     1      -3.952  10.437  17.991  0.00  0.00    +0.000 A 
ATOM     14  C   UNL     1      -3.002  11.281  18.582  0.00  0.00    +0.000 A 
ATOM     15  C   UNL     1      -1.559  11.042  18.374  0.00  0.00    +0.000 C 
ATOM     16  O   UNL     1      -1.204  10.104  17.664  0.00  0.00    +0.000 OA
ENDROOT
BRANCH   1  17
ATOM     17  N   UNL     1      -0.501  14.859  21.365  0.00  0.00    +0.000 N 
ATOM     18  H   UNL     1      -0.254  14.652  22.335  0.00  0.00    +0.000 HD
ATOM     19  H   UNL     1      -0.212  15.818  21.116  0.00  0.00    +0.000 HD
ENDBRANCH   1  17
BRANCH   2  20
ATOM     20  S   UNL     1       2.609  14.611  20.963  0.00  0.00    +0.000 S 
ATOM     21  O   UNL     1       2.440  14.518  22.396  0.00  0.00    +0.000 OA
ATOM     22  O   UNL     1       3.832  14.225  20.295  0.00  0.00    +0.000 OA
BRANCH  20  23
ATOM     23  O   UNL     1       2.320  16.156  20.594  0.00  0.00    +0.000 OA
ATOM     24  H   UNL     1       1.346  16.289  20.628  0.00  0.00    +0.000 HD
ENDBRANCH  20  23
ENDBRANCH   2  20
BRANCH   4  25
ATOM     25  N   UNL     1       1.338  10.664  18.015  0.00  0.00    +0.000 N 
ATOM     26  H   UNL     1       1.031  10.713  17.036  0.00  0.00    +0.000 HD
BRANCH  25  27
ATOM     27  C   UNL     1       1.754   9.367  18.388  0.00  0.00    +0.000 A 
ATOM     28  C   UNL     1       2.441   8.511  17.513  0.00  0.00    +0.000 A 
ATOM     29  C   UNL     1       2.831   7.231  17.912  0.00  0.00    +0.000 A 
ATOM     30  C   UNL     1       2.526   6.792  19.201  0.00  0.00    +0.000 A 
ATOM     31  C   UNL     1       1.830   7.615  20.087  0.00  0.00    +0.000 A 
ATOM     32  C   UNL     1       1.447   8.898  19.675  0.00  0.00    +0.000 A 
BRANCH  30  33
ATOM     33  S   UNL     1       3.126   5.214  19.736  0.00  0.00    +0.000 S 
ATOM     34  O   UNL     1       2.405   4.194  19.003  0.00  0.00    +0.000 OA
ATOM     35  O   UNL     1       4.566   5.275  19.767  0.00  0.00    +0.000 OA
BRANCH  33  36
ATOM     36  O   UNL     1       2.586   5.090  21.253  0.00  0.00    +0.000 OA
ATOM     37  H   UNL     1       2.958   4.266  21.635  0.00  0.00    +0.000 HD
ENDBRANCH  33  36
ENDBRANCH  30  33
ENDBRANCH  25  27
ENDBRANCH   4  25
TORSDOF 7
ENDMDL
MODEL 9
REMARK VINA RESULT:      -7.4      3.100      4.591
REMARK  Name = 
REMARK  7 active torsions:
REMARK  status: ('A' for Active; 'I' for Inactive)
REMARK    1  A    between atoms: N_1  and  C_2
REMARK    2  A    between atoms: C_3  and  S_4
REMARK    3  A    between atoms: S_4  and  O_7
REMARK    4  A    between atoms: C_9  and  N_10
REMARK    5  A    between atoms: N_10  and  C_11
REMARK    6  A    between atoms: C_14  and  S_15
REMARK    7  A    between atoms: S_15  and  O_18
REMARK                            x       y       z     vdW  Elec       q    Type
REMARK                         _______ _______ _______ _____ _____    ______ ____
ROOT
ATOM      1  C   UNL     1       1.822  14.784  21.304  0.00  0.00    +0.000 A 
ATOM      2  C   UNL     1       2.529  14.207  20.243  0.00  0.00    +0.000 A 
ATOM      3  C   UNL     1       2.053  13.062  19.596  0.00  0.00    +0.000 A 
ATOM      4  C   UNL     1       0.878  12.418  20.002  0.00  0.00    +0.000 A 
ATOM      5  C   UNL     1       0.155  12.970  21.085  0.00  0.00    +0.000 A 
ATOM      6  C   UNL     1       0.626  14.133  21.729  0.00  0.00    +0.000 A 
ATOM      7  C   UNL     1      -0.180  14.733  22.830  0.00  0.00    +0.000 C 
ATOM      8  O   UNL     1       0.140  15.804  23.340  0.00  0.00    +0.000 OA
ATOM      9  C   UNL     1      -1.406  14.074  23.300  0.00  0.00    +0.000 A 
ATOM     10  C   UNL     1      -2.135  14.645  24.355  0.00  0.00    +0.000 A 
ATOM     11  C   UNL     1      -3.316  14.050  24.796  0.00  0.00    +0.000 A 
ATOM     12  C   UNL     1      -3.767  12.881  24.189  0.00  0.00    +0.000 A 
ATOM     13  C   UNL     1      -3.039  12.310  23.139  0.00  0.00    +0.000 A 
ATOM     14  C   UNL     1      -1.855  12.912  22.689  0.00  0.00    +0.000 A 
ATOM     15  C   UNL     1      -1.106  12.329  21.557  0.00  0.00    +0.000 C 
ATOM     16  O   UNL     1      -1.541  11.321  21.006  0.00  0.00    +0.000 OA
ENDROOT
BRANCH   1  17
ATOM     17  N   UNL     1       2.372  15.834  22.066  0.00  0.00    +0.000 N 
ATOM     18  H   UNL     1       3.371  15.741  22.264  0.00  0.00    +0.000 HD
ATOM     19  H   UNL     1       2.169  16.761  21.663  0.00  0.00    +0.000 HD
ENDBRANCH   1  17
BRANCH   2  20
ATOM     20  S   UNL     1       4.062  14.839  19.608  0.00  0.00    +0.000 S 
ATOM     21  O   UNL     1       5.033  14.718  20.673  0.00  0.00    +0.000 OA
ATOM     22  O   UNL     1       4.254  14.237  18.307  0.00  0.00    +0.000 OA
BRANCH  20  23
ATOM     23  O   UNL     1       3.863  16.425  19.384  0.00  0.00    +0.000 OA
ATOM     24  H   UNL     1       4.201  16.640  18.486  0.00  0.00    +0.000 HD
ENDBRANCH  20  23
ENDBRANCH   2  20
BRANCH   4  25
ATOM     25  N   UNL     1       0.459  11.260  19.305  0.00  0.00    +0.000 N 
ATOM     26  H   UNL     1      -0.561  11.196  19.199  0.00  0.00    +0.000 HD
BRANCH  25  27
ATOM     27  C   UNL     1       1.098  10.008  19.168  0.00  0.00    +0.000 A 
ATOM     28  C   UNL     1       1.162   9.072  20.212  0.00  0.00    +0.000 A 
ATOM     29  C   UNL     1       1.809   7.846  20.045  0.00  0.00    +0.000 A 
ATOM     30  C   UNL     1       2.408   7.548  18.821  0.00  0.00    +0.000 A 
ATOM     31  C   UNL     1       2.374   8.466  17.770  0.00  0.00    +0.000 A 
ATOM     32  C   UNL     1       1.719   9.691  17.950  0.00  0.00    +0.000 A 
BRANCH  30  33
ATOM     33  S   UNL     1       3.123   5.945  18.581  0.00  0.00    +0.000 S 
ATOM     34  O   UNL     1       2.049   5.024  18.271  0.00  0.00    +0.000 OA
ATOM     35  O   UNL     1       4.281   6.100  17.736  0.00  0.00    +0.000 OA
BRANCH  33  36
ATOM     36  O   UNL     1       3.619   5.520  20.057  0.00  0.00    +0.000 OA
ATOM     37  H   UNL     1       3.137   6.077  20.706  0.00  0.00    +0.000 HD
ENDBRANCH  33  36
ENDBRANCH  30  33
ENDBRANCH  25  27
ENDBRANCH   4  25
TORSDOF 7
ENDMDL
