MODEL 1
REMARK VINA RESULT:      -9.8      0.000      0.000
REMARK  Name = 
REMARK  5 active torsions:
REMARK  status: ('A' for Active; 'I' for Inactive)
REMARK    1  A    between atoms: C_1  and  O_2
REMARK    2  A    between atoms: O_2  and  C_3
REMARK    3  A    between atoms: C_5  and  C_6
REMARK    4  A    between atoms: C_13  and  C_14
REMARK    5  A    between atoms: C_17  and  C_18
REMARK                            x       y       z     vdW  Elec       q    Type
REMARK                         _______ _______ _______ _____ _____    ______ ____
ROOT
ATOM      1  C   UNL     1       2.216   6.171  19.998  0.00  0.00    +0.000 A 
ATOM      2  C   UNL     1       1.516   5.435  20.881  0.00  0.00    +0.000 A 
ATOM      3  C   UNL     1       1.944   4.033  21.152  0.00  0.00    +0.000 A 
ATOM      4  O   UNL     1       1.370   3.298  21.947  0.00  0.00    +0.000 OA
ATOM      5  N   UNL     1       3.064   3.615  20.412  0.00  0.00    +0.000 N 
ATOM      6  N   UNL     1       3.589   2.357  20.476  0.00  0.00    +0.000 NA
ATOM      7  C   UNL     1       4.595   2.389  19.593  0.00  0.00    +0.000 A 
ATOM      8  C   UNL     1       4.744   3.643  18.978  0.00  0.00    +0.000 A 
ATOM      9  C   UNL     1       3.750   4.417  19.518  0.00  0.00    +0.000 A 
ATOM     10  N   UNL     1       3.328   5.690  19.339  0.00  0.00    +0.000 N 
ATOM     11  H   UNL     1       3.803   6.316  18.684  0.00  0.00    +0.000 HD
ENDROOT
BRANCH   1  14
ATOM     12  C   UNL     1       0.950   9.674  20.533  0.00  0.00    +0.000 A 
ATOM     13  C   UNL     1       1.264   8.327  20.745  0.00  0.00    +0.000 A 
ATOM     14  C   UNL     1       1.822   7.554  19.718  0.00  0.00    +0.000 A 
ATOM     15  C   UNL     1       2.027   8.120  18.458  0.00  0.00    +0.000 A 
ATOM     16  C   UNL     1       1.682   9.453  18.226  0.00  0.00    +0.000 A 
ATOM     17  C   UNL     1       1.148  10.228  19.261  0.00  0.00    +0.000 A 
ATOM     18 CL   UNL     1       0.785  11.886  18.933  0.00  0.00    +0.000 Cl
BRANCH  12  20
ATOM     19  C   UNL     1      -0.177   9.782  22.607  0.00  0.00    +0.000 C 
ATOM     20  O   UNL     1       0.424  10.476  21.515  0.00  0.00    +0.000 OA
ENDBRANCH  12  20
ENDBRANCH   1  14
BRANCH   8  21
ATOM     21  C   UNL     1       5.725   4.060  17.953  0.00  0.00    +0.000 A 
ATOM     22  N   UNL     1       6.852   4.685  18.249  0.00  0.00    +0.000 NA
ATOM     23  C   UNL     1       7.445   4.899  17.032  0.00  0.00    +0.000 A 
ATOM     24  C   UNL     1       6.647   4.419  16.016  0.00  0.00    +0.000 A 
ATOM     25  O   UNL     1       5.547   3.854  16.606  0.00  0.00    +0.000 OA
BRANCH  24  26
ATOM     26  C   UNL     1       6.736   4.389  14.563  0.00  0.00    +0.000 A 
ATOM     27  C   UNL     1       7.639   5.232  13.896  0.00  0.00    +0.000 A 
ATOM     28  C   UNL     1       7.770   5.191  12.505  0.00  0.00    +0.000 A 
ATOM     29  C   UNL     1       6.992   4.311  11.760  0.00  0.00    +0.000 A 
ATOM     30  C   UNL     1       6.073   3.484  12.401  0.00  0.00    +0.000 A 
ATOM     31  C   UNL     1       5.943   3.525  13.793  0.00  0.00    +0.000 A 
ENDBRANCH  24  26
ENDBRANCH   8  21
TORSDOF 4
ENDMDL
MODEL 2
REMARK VINA RESULT:      -9.1      0.965      1.851
REMARK  Name = 
REMARK  5 active torsions:
REMARK  status: ('A' for Active; 'I' for Inactive)
REMARK    1  A    between atoms: C_1  and  O_2
REMARK    2  A    between atoms: O_2  and  C_3
REMARK    3  A    between atoms: C_5  and  C_6
REMARK    4  A    between atoms: C_13  and  C_14
REMARK    5  A    between atoms: C_17  and  C_18
REMARK                            x       y       z     vdW  Elec       q    Type
REMARK                         _______ _______ _______ _____ _____    ______ ____
ROOT
ATOM      1  C   UNL     1       2.143   6.088  20.376  0.00  0.00    +0.000 A 
ATOM      2  C   UNL     1       1.579   5.197  21.212  0.00  0.00    +0.000 A 
ATOM      3  C   UNL     1       2.112   3.805  21.251  0.00  0.00    +0.000 A 
ATOM      4  O   UNL     1       1.664   2.936  21.990  0.00  0.00    +0.000 OA
ATOM      5  N   UNL     1       3.173   3.565  20.361  0.00  0.00    +0.000 N 
ATOM      6  N   UNL     1       3.773   2.350  20.206  0.00  0.00    +0.000 NA
ATOM      7  C   UNL     1       4.682   2.565  19.246  0.00  0.00    +0.000 A 
ATOM      8  C   UNL     1       4.696   3.895  18.795  0.00  0.00    +0.000 A 
ATOM      9  C   UNL     1       3.719   4.522  19.523  0.00  0.00    +0.000 A 
ATOM     10  N   UNL     1       3.209   5.774  19.558  0.00  0.00    +0.000 N 
ATOM     11  H   UNL     1       3.578   6.512  18.953  0.00  0.00    +0.000 HD
ENDROOT
BRANCH   1  14
ATOM     12  C   UNL     1       1.255   9.488  19.031  0.00  0.00    +0.000 A 
ATOM     13  C   UNL     1       1.790   8.199  19.140  0.00  0.00    +0.000 A 
ATOM     14  C   UNL     1       1.644   7.464  20.323  0.00  0.00    +0.000 A 
ATOM     15  C   UNL     1       0.997   8.038  21.421  0.00  0.00    +0.000 A 
ATOM     16  C   UNL     1       0.493   9.336  21.334  0.00  0.00    +0.000 A 
ATOM     17  C   UNL     1       0.619  10.058  20.143  0.00  0.00    +0.000 A 
ATOM     18 CL   UNL     1      -0.068  11.643  20.074  0.00  0.00    +0.000 Cl
BRANCH  12  20
ATOM     19  C   UNL     1       2.430  11.170  17.860  0.00  0.00    +0.000 C 
ATOM     20  O   UNL     1       1.352  10.236  17.884  0.00  0.00    +0.000 OA
ENDBRANCH  12  20
ENDBRANCH   1  14
BRANCH   8  21
ATOM     21  C   UNL     1       5.542   4.509  17.749  0.00  0.00    +0.000 A 
ATOM     22  N   UNL     1       6.280   5.585  17.962  0.00  0.00    +0.000 NA
ATOM     23  C   UNL     1       6.879   5.824  16.753  0.00  0.00    +0.000 A 
ATOM     24  C   UNL     1       6.468   4.897  15.819  0.00  0.00    +0.000 A 
ATOM     25  O   UNL     1       5.625   4.030  16.463  0.00  0.00    +0.000 OA
BRANCH  24  26
ATOM     26  C   UNL     1       6.734   4.669  14.406  0.00  0.00    +0.000 A 
ATOM     27  C   UNL     1       6.044   3.661  13.715  0.00  0.00    +0.000 A 
ATOM     28  C   UNL     1       6.253   3.451  12.349  0.00  0.00    +0.000 A 
ATOM     29  C   UNL     1       7.164   4.243  11.656  0.00  0.00    +0.000 A 
ATOM     30  C   UNL     1       7.876   5.232  12.330  0.00  0.00    +0.000 A 
ATOM     31  C   UNL     1       7.666   5.441  13.696  0.00  0.00    +0.000 A 
ENDBRANCH  24  26
ENDBRANCH   8  21
TORSDOF 4
ENDMDL
MODEL 3
REMARK VINA RESULT:      -9.1      1.091      1.432
REMARK  Name = 
REMARK  5 active torsions:
REMARK  status: ('A' for Active; 'I' for Inactive)
REMARK    1  A    between atoms: C_1  and  O_2
REMARK    2  A    between atoms: O_2  and  C_3
REMARK    3  A    between atoms: C_5  and  C_6
REMARK    4  A    between atoms: C_13  and  C_14
REMARK    5  A    between atoms: C_17  and  C_18
REMARK                            x       y       z     vdW  Elec       q    Type
REMARK                         _______ _______ _______ _____ _____    ______ ____
ROOT
ATOM      1  C   UNL     1       2.039   6.461  20.302  0.00  0.00    +0.000 A 
ATOM      2  C   UNL     1       1.627   5.602  21.253  0.00  0.00    +0.000 A 
ATOM      3  C   UNL     1       2.116   4.194  21.216  0.00  0.00    +0.000 A 
ATOM      4  O   UNL     1       1.799   3.352  22.047  0.00  0.00    +0.000 OA
ATOM      5  N   UNL     1       2.971   3.906  20.138  0.00  0.00    +0.000 N 
ATOM      6  N   UNL     1       3.493   2.669  19.893  0.00  0.00    +0.000 NA
ATOM      7  C   UNL     1       4.198   2.839  18.768  0.00  0.00    +0.000 A 
ATOM      8  C   UNL     1       4.161   4.162  18.294  0.00  0.00    +0.000 A 
ATOM      9  C   UNL     1       3.367   4.831  19.188  0.00  0.00    +0.000 A 
ATOM     10  N   UNL     1       2.911   6.100  19.296  0.00  0.00    +0.000 N 
ATOM     11  H   UNL     1       3.174   6.815  18.614  0.00  0.00    +0.000 HD
ENDROOT
BRANCH   1  14
ATOM     12  C   UNL     1       0.834   9.780  21.601  0.00  0.00    +0.000 A 
ATOM     13  C   UNL     1       1.202   8.432  21.538  0.00  0.00    +0.000 A 
ATOM     14  C   UNL     1       1.580   7.852  20.320  0.00  0.00    +0.000 A 
ATOM     15  C   UNL     1       1.549   8.615  19.149  0.00  0.00    +0.000 A 
ATOM     16  C   UNL     1       1.148   9.951  19.197  0.00  0.00    +0.000 A 
ATOM     17  C   UNL     1       0.794  10.532  20.419  0.00  0.00    +0.000 A 
ATOM     18 CL   UNL     1       0.353  12.204  20.428  0.00  0.00    +0.000 Cl
BRANCH  12  20
ATOM     19  C   UNL     1      -0.872  10.195  23.181  0.00  0.00    +0.000 C 
ATOM     20  O   UNL     1       0.479  10.398  22.775  0.00  0.00    +0.000 OA
ENDBRANCH  12  20
ENDBRANCH   1  14
BRANCH   8  21
ATOM     21  C   UNL     1       4.799   4.731  17.087  0.00  0.00    +0.000 A 
ATOM     22  N   UNL     1       5.055   6.021  16.951  0.00  0.00    +0.000 NA
ATOM     23  C   UNL     1       5.621   6.120  15.707  0.00  0.00    +0.000 A 
ATOM     24  C   UNL     1       5.673   4.883  15.101  0.00  0.00    +0.000 A 
ATOM     25  O   UNL     1       5.168   3.978  15.998  0.00  0.00    +0.000 OA
BRANCH  24  26
ATOM     26  C   UNL     1       6.126   4.385  13.810  0.00  0.00    +0.000 A 
ATOM     27  C   UNL     1       5.408   3.372  13.156  0.00  0.00    +0.000 A 
ATOM     28  C   UNL     1       5.800   2.908  11.898  0.00  0.00    +0.000 A 
ATOM     29  C   UNL     1       6.925   3.445  11.279  0.00  0.00    +0.000 A 
ATOM     30  C   UNL     1       7.665   4.433  11.923  0.00  0.00    +0.000 A 
ATOM     31  C   UNL     1       7.271   4.898  13.181  0.00  0.00    +0.000 A 
ENDBRANCH  24  26
ENDBRANCH   8  21
TORSDOF 4
ENDMDL
MODEL 4
REMARK VINA RESULT:      -8.5      4.110      6.383
REMARK  Name = 
REMARK  5 active torsions:
REMARK  status: ('A' for Active; 'I' for Inactive)
REMARK    1  A    between atoms: C_1  and  O_2
REMARK    2  A    between atoms: O_2  and  C_3
REMARK    3  A    between atoms: C_5  and  C_6
REMARK    4  A    between atoms: C_13  and  C_14
REMARK    5  A    between atoms: C_17  and  C_18
REMARK                            x       y       z     vdW  Elec       q    Type
REMARK                         _______ _______ _______ _____ _____    ______ ____
ROOT
ATOM      1  C   UNL     1      -1.452  10.524  19.257  0.00  0.00    +0.000 A 
ATOM      2  C   UNL     1      -1.718  11.492  20.153  0.00  0.00    +0.000 A 
ATOM      3  C   UNL     1      -0.963  11.514  21.438  0.00  0.00    +0.000 A 
ATOM      4  O   UNL     1      -1.136  12.365  22.304  0.00  0.00    +0.000 OA
ATOM      5  N   UNL     1      -0.035  10.468  21.584  0.00  0.00    +0.000 N 
ATOM      6  N   UNL     1       0.725  10.278  22.702  0.00  0.00    +0.000 NA
ATOM      7  C   UNL     1       1.417   9.165  22.428  0.00  0.00    +0.000 A 
ATOM      8  C   UNL     1       1.138   8.646  21.153  0.00  0.00    +0.000 A 
ATOM      9  C   UNL     1       0.202   9.498  20.627  0.00  0.00    +0.000 A 
ATOM     10  N   UNL     1      -0.496   9.553  19.469  0.00  0.00    +0.000 N 
ATOM     11  H   UNL     1      -0.356   8.853  18.735  0.00  0.00    +0.000 HD
ENDROOT
BRANCH   1  14
ATOM     12  C   UNL     1      -4.012  11.286  16.607  0.00  0.00    +0.000 A 
ATOM     13  C   UNL     1      -3.343  11.240  17.835  0.00  0.00    +0.000 A 
ATOM     14  C   UNL     1      -2.173  10.484  17.983  0.00  0.00    +0.000 A 
ATOM     15  C   UNL     1      -1.692   9.733  16.907  0.00  0.00    +0.000 A 
ATOM     16  C   UNL     1      -2.373   9.743  15.689  0.00  0.00    +0.000 A 
ATOM     17  C   UNL     1      -3.527  10.518  15.538  0.00  0.00    +0.000 A 
ATOM     18 CL   UNL     1      -4.303  10.533  13.993  0.00  0.00    +0.000 Cl
BRANCH  12  20
ATOM     19  C   UNL     1      -5.834  12.417  17.597  0.00  0.00    +0.000 C 
ATOM     20  O   UNL     1      -5.147  12.031  16.408  0.00  0.00    +0.000 OA
ENDBRANCH  12  20
ENDBRANCH   1  14
BRANCH   8  21
ATOM     21  C   UNL     1       1.690   7.438  20.504  0.00  0.00    +0.000 A 
ATOM     22  N   UNL     1       1.485   6.216  20.967  0.00  0.00    +0.000 NA
ATOM     23  C   UNL     1       2.172   5.410  20.099  0.00  0.00    +0.000 A 
ATOM     24  C   UNL     1       2.805   6.166  19.136  0.00  0.00    +0.000 A 
ATOM     25  O   UNL     1       2.477   7.474  19.377  0.00  0.00    +0.000 OA
BRANCH  24  26
ATOM     26  C   UNL     1       3.674   5.877  18.005  0.00  0.00    +0.000 A 
ATOM     27  C   UNL     1       3.872   4.549  17.592  0.00  0.00    +0.000 A 
ATOM     28  C   UNL     1       4.668   4.251  16.483  0.00  0.00    +0.000 A 
ATOM     29  C   UNL     1       5.288   5.277  15.776  0.00  0.00    +0.000 A 
ATOM     30  C   UNL     1       5.124   6.598  16.185  0.00  0.00    +0.000 A 
ATOM     31  C   UNL     1       4.326   6.896  17.294  0.00  0.00    +0.000 A 
ENDBRANCH  24  26
ENDBRANCH   8  21
TORSDOF 4
ENDMDL
MODEL 5
REMARK VINA RESULT:      -8.5      2.722      8.542
REMARK  Name = 
REMARK  5 active torsions:
REMARK  status: ('A' for Active; 'I' for Inactive)
REMARK    1  A    between atoms: C_1  and  O_2
REMARK    2  A    between atoms: O_2  and  C_3
REMARK    3  A    between atoms: C_5  and  C_6
REMARK    4  A    between atoms: C_13  and  C_14
REMARK    5  A    between atoms: C_17  and  C_18
REMARK                            x       y       z     vdW  Elec       q    Type
REMARK                         _______ _______ _______ _____ _____    ______ ____
ROOT
ATOM      1  C   UNL     1       4.441   3.755  17.344  0.00  0.00    +0.000 A 
ATOM      2  C   UNL     1       4.337   2.451  17.658  0.00  0.00    +0.000 A 
ATOM      3  C   UNL     1       3.383   2.038  18.726  0.00  0.00    +0.000 A 
ATOM      4  O   UNL     1       3.220   0.873  19.067  0.00  0.00    +0.000 OA
ATOM      5  N   UNL     1       2.684   3.103  19.322  0.00  0.00    +0.000 N 
ATOM      6  N   UNL     1       1.799   2.949  20.349  0.00  0.00    +0.000 NA
ATOM      7  C   UNL     1       1.414   4.201  20.625  0.00  0.00    +0.000 A 
ATOM      8  C   UNL     1       2.013   5.156  19.787  0.00  0.00    +0.000 A 
ATOM      9  C   UNL     1       2.827   4.430  18.956  0.00  0.00    +0.000 A 
ATOM     10  N   UNL     1       3.688   4.734  17.959  0.00  0.00    +0.000 N 
ATOM     11  H   UNL     1       3.829   5.702  17.659  0.00  0.00    +0.000 HD
ENDROOT
BRANCH   1  14
ATOM     12  C   UNL     1       6.200   3.929  14.022  0.00  0.00    +0.000 A 
ATOM     13  C   UNL     1       5.386   3.495  15.074  0.00  0.00    +0.000 A 
ATOM     14  C   UNL     1       5.365   4.187  16.292  0.00  0.00    +0.000 A 
ATOM     15  C   UNL     1       6.196   5.295  16.475  0.00  0.00    +0.000 A 
ATOM     16  C   UNL     1       7.039   5.713  15.443  0.00  0.00    +0.000 A 
ATOM     17  C   UNL     1       7.039   5.035  14.221  0.00  0.00    +0.000 A 
ATOM     18 CL   UNL     1       8.065   5.625  12.961  0.00  0.00    +0.000 Cl
BRANCH  12  20
ATOM     19  C   UNL     1       5.042   3.404  12.031  0.00  0.00    +0.000 C 
ATOM     20  O   UNL     1       6.236   3.298  12.803  0.00  0.00    +0.000 OA
ENDBRANCH  12  20
ENDBRANCH   1  14
BRANCH   8  21
ATOM     21  C   UNL     1       1.848   6.626  19.791  0.00  0.00    +0.000 A 
ATOM     22  N   UNL     1       2.459   7.419  18.927  0.00  0.00    +0.000 NA
ATOM     23  C   UNL     1       2.054   8.678  19.286  0.00  0.00    +0.000 A 
ATOM     24  C   UNL     1       1.222   8.622  20.384  0.00  0.00    +0.000 A 
ATOM     25  O   UNL     1       1.065   7.298  20.698  0.00  0.00    +0.000 OA
BRANCH  24  26
ATOM     26  C   UNL     1       0.529   9.606  21.203  0.00  0.00    +0.000 A 
ATOM     27  C   UNL     1       0.432  10.938  20.770  0.00  0.00    +0.000 A 
ATOM     28  C   UNL     1      -0.265  11.891  21.519  0.00  0.00    +0.000 A 
ATOM     29  C   UNL     1      -0.867  11.526  22.719  0.00  0.00    +0.000 A 
ATOM     30  C   UNL     1      -0.761  10.215  23.177  0.00  0.00    +0.000 A 
ATOM     31  C   UNL     1      -0.064   9.262  22.427  0.00  0.00    +0.000 A 
ENDBRANCH  24  26
ENDBRANCH   8  21
TORSDOF 4
ENDMDL
MODEL 6
REMARK VINA RESULT:      -8.4      2.865      8.512
REMARK  Name = 
REMARK  5 active torsions:
REMARK  status: ('A' for Active; 'I' for Inactive)
REMARK    1  A    between atoms: C_1  and  O_2
REMARK    2  A    between atoms: O_2  and  C_3
REMARK    3  A    between atoms: C_5  and  C_6
REMARK    4  A    between atoms: C_13  and  C_14
REMARK    5  A    between atoms: C_17  and  C_18
REMARK                            x       y       z     vdW  Elec       q    Type
REMARK                         _______ _______ _______ _____ _____    ______ ____
ROOT
ATOM      1  C   UNL     1       4.790   4.539  17.586  0.00  0.00    +0.000 A 
ATOM      2  C   UNL     1       4.838   3.406  18.310  0.00  0.00    +0.000 A 
ATOM      3  C   UNL     1       3.968   3.282  19.515  0.00  0.00    +0.000 A 
ATOM      4  O   UNL     1       3.943   2.283  20.224  0.00  0.00    +0.000 OA
ATOM      5  N   UNL     1       3.180   4.416  19.780  0.00  0.00    +0.000 N 
ATOM      6  N   UNL     1       2.350   4.528  20.858  0.00  0.00    +0.000 NA
ATOM      7  C   UNL     1       1.843   5.761  20.740  0.00  0.00    +0.000 A 
ATOM      8  C   UNL     1       2.309   6.438  19.601  0.00  0.00    +0.000 A 
ATOM      9  C   UNL     1       3.167   5.556  18.998  0.00  0.00    +0.000 A 
ATOM     10  N   UNL     1       3.957   5.593  17.900  0.00  0.00    +0.000 N 
ATOM     11  H   UNL     1       3.984   6.418  17.296  0.00  0.00    +0.000 HD
ENDROOT
BRANCH   1  14
ATOM     12  C   UNL     1       6.146   3.993  14.119  0.00  0.00    +0.000 A 
ATOM     13  C   UNL     1       5.417   3.831  15.302  0.00  0.00    +0.000 A 
ATOM     14  C   UNL     1       5.628   4.684  16.392  0.00  0.00    +0.000 A 
ATOM     15  C   UNL     1       6.605   5.679  16.316  0.00  0.00    +0.000 A 
ATOM     16  C   UNL     1       7.363   5.825  15.152  0.00  0.00    +0.000 A 
ATOM     17  C   UNL     1       7.132   4.987  14.057  0.00  0.00    +0.000 A 
ATOM     18 CL   UNL     1       8.065   5.244  12.624  0.00  0.00    +0.000 Cl
BRANCH  12  20
ATOM     19  C   UNL     1       4.860   3.566  12.184  0.00  0.00    +0.000 C 
ATOM     20  O   UNL     1       5.957   3.197  13.016  0.00  0.00    +0.000 OA
ENDBRANCH  12  20
ENDBRANCH   1  14
BRANCH   8  21
ATOM     21  C   UNL     1       1.987   7.806  19.141  0.00  0.00    +0.000 A 
ATOM     22  N   UNL     1       2.436   8.305  18.001  0.00  0.00    +0.000 NA
ATOM     23  C   UNL     1       1.929   9.578  17.971  0.00  0.00    +0.000 A 
ATOM     24  C   UNL     1       1.200   9.834  19.113  0.00  0.00    +0.000 A 
ATOM     25  O   UNL     1       1.213   8.685  19.860  0.00  0.00    +0.000 OA
BRANCH  24  26
ATOM     26  C   UNL     1       0.474  10.982  19.636  0.00  0.00    +0.000 A 
ATOM     27  C   UNL     1      -0.809  11.282  19.152  0.00  0.00    +0.000 A 
ATOM     28  C   UNL     1      -1.542  12.354  19.669  0.00  0.00    +0.000 A 
ATOM     29  C   UNL     1      -0.996  13.149  20.673  0.00  0.00    +0.000 A 
ATOM     30  C   UNL     1       0.285  12.882  21.149  0.00  0.00    +0.000 A 
ATOM     31  C   UNL     1       1.017  11.808  20.631  0.00  0.00    +0.000 A 
ENDBRANCH  24  26
ENDBRANCH   8  21
TORSDOF 4
ENDMDL
MODEL 7
REMARK VINA RESULT:      -8.4      1.278      1.781
REMARK  Name = 
REMARK  5 active torsions:
REMARK  status: ('A' for Active; 'I' for Inactive)
REMARK    1  A    between atoms: C_1  and  O_2
REMARK    2  A    between atoms: O_2  and  C_3
REMARK    3  A    between atoms: C_5  and  C_6
REMARK    4  A    between atoms: C_13  and  C_14
REMARK    5  A    between atoms: C_17  and  C_18
REMARK                            x       y       z     vdW  Elec       q    Type
REMARK                         _______ _______ _______ _____ _____    ______ ____
ROOT
ATOM      1  C   UNL     1       2.052   6.338  20.433  0.00  0.00    +0.000 A 
ATOM      2  C   UNL     1       1.650   5.457  21.368  0.00  0.00    +0.000 A 
ATOM      3  C   UNL     1       2.136   4.050  21.292  0.00  0.00    +0.000 A 
ATOM      4  O   UNL     1       1.826   3.188  22.107  0.00  0.00    +0.000 OA
ATOM      5  N   UNL     1       2.978   3.786  20.198  0.00  0.00    +0.000 N 
ATOM      6  N   UNL     1       3.495   2.554  19.918  0.00  0.00    +0.000 NA
ATOM      7  C   UNL     1       4.187   2.750  18.789  0.00  0.00    +0.000 A 
ATOM      8  C   UNL     1       4.147   4.083  18.347  0.00  0.00    +0.000 A 
ATOM      9  C   UNL     1       3.364   4.732  19.266  0.00  0.00    +0.000 A 
ATOM     10  N   UNL     1       2.912   5.999  19.409  0.00  0.00    +0.000 N 
ATOM     11  H   UNL     1       3.168   6.730  18.741  0.00  0.00    +0.000 HD
ENDROOT
BRANCH   1  14
ATOM     12  C   UNL     1       0.786   9.701  19.318  0.00  0.00    +0.000 A 
ATOM     13  C   UNL     1       1.298   8.399  19.296  0.00  0.00    +0.000 A 
ATOM     14  C   UNL     1       1.596   7.729  20.489  0.00  0.00    +0.000 A 
ATOM     15  C   UNL     1       1.423   8.381  21.713  0.00  0.00    +0.000 A 
ATOM     16  C   UNL     1       0.947   9.693  21.744  0.00  0.00    +0.000 A 
ATOM     17  C   UNL     1       0.627  10.349  20.551  0.00  0.00    +0.000 A 
ATOM     18 CL   UNL     1      -0.005  11.956  20.650  0.00  0.00    +0.000 Cl
BRANCH  12  20
ATOM     19  C   UNL     1      -0.884  10.205  17.725  0.00  0.00    +0.000 C 
ATOM     20  O   UNL     1       0.456  10.388  18.177  0.00  0.00    +0.000 OA
ENDBRANCH  12  20
ENDBRANCH   1  14
BRANCH   8  21
ATOM     21  C   UNL     1       4.772   4.679  17.147  0.00  0.00    +0.000 A 
ATOM     22  N   UNL     1       5.038   5.970  17.042  0.00  0.00    +0.000 NA
ATOM     23  C   UNL     1       5.586   6.098  15.793  0.00  0.00    +0.000 A 
ATOM     24  C   UNL     1       5.617   4.878  15.152  0.00  0.00    +0.000 A 
ATOM     25  O   UNL     1       5.117   3.954  16.032  0.00  0.00    +0.000 OA
BRANCH  24  26
ATOM     26  C   UNL     1       6.046   4.413  13.842  0.00  0.00    +0.000 A 
ATOM     27  C   UNL     1       7.193   4.959  13.243  0.00  0.00    +0.000 A 
ATOM     28  C   UNL     1       7.647   4.498  12.004  0.00  0.00    +0.000 A 
ATOM     29  C   UNL     1       6.955   3.490  11.341  0.00  0.00    +0.000 A 
ATOM     30  C   UNL     1       5.801   2.953  11.908  0.00  0.00    +0.000 A 
ATOM     31  C   UNL     1       5.348   3.413  13.147  0.00  0.00    +0.000 A 
ENDBRANCH  24  26
ENDBRANCH   8  21
TORSDOF 4
ENDMDL
MODEL 8
REMARK VINA RESULT:      -8.4      2.765      8.305
REMARK  Name = 
REMARK  5 active torsions:
REMARK  status: ('A' for Active; 'I' for Inactive)
REMARK    1  A    between atoms: C_1  and  O_2
REMARK    2  A    between atoms: O_2  and  C_3
REMARK    3  A    between atoms: C_5  and  C_6
REMARK    4  A    between atoms: C_13  and  C_14
REMARK    5  A    between atoms: C_17  and  C_18
REMARK                            x       y       z     vdW  Elec       q    Type
REMARK                         _______ _______ _______ _____ _____    ______ ____
ROOT
ATOM      1  C   UNL     1       4.105   3.824  17.515  0.00  0.00    +0.000 A 
ATOM      2  C   UNL     1       3.931   2.519  17.792  0.00  0.00    +0.000 A 
ATOM      3  C   UNL     1       2.932   2.127  18.827  0.00  0.00    +0.000 A 
ATOM      4  O   UNL     1       2.705   0.962  19.133  0.00  0.00    +0.000 OA
ATOM      5  N   UNL     1       2.272   3.209  19.435  0.00  0.00    +0.000 N 
ATOM      6  N   UNL     1       1.356   3.073  20.438  0.00  0.00    +0.000 NA
ATOM      7  C   UNL     1       1.025   4.334  20.738  0.00  0.00    +0.000 A 
ATOM      8  C   UNL     1       1.690   5.280  19.939  0.00  0.00    +0.000 A 
ATOM      9  C   UNL     1       2.487   4.536  19.108  0.00  0.00    +0.000 A 
ATOM     10  N   UNL     1       3.385   4.822  18.139  0.00  0.00    +0.000 N 
ATOM     11  H   UNL     1       3.580   5.790  17.868  0.00  0.00    +0.000 HD
ENDROOT
BRANCH   1  14
ATOM     12  C   UNL     1       6.934   5.665  15.852  0.00  0.00    +0.000 A 
ATOM     13  C   UNL     1       5.946   5.297  16.772  0.00  0.00    +0.000 A 
ATOM     14  C   UNL     1       5.073   4.236  16.496  0.00  0.00    +0.000 A 
ATOM     15  C   UNL     1       5.161   3.566  15.274  0.00  0.00    +0.000 A 
ATOM     16  C   UNL     1       6.121   3.949  14.335  0.00  0.00    +0.000 A 
ATOM     17  C   UNL     1       7.005   4.993  14.624  0.00  0.00    +0.000 A 
ATOM     18 CL   UNL     1       8.205   5.394  13.445  0.00  0.00    +0.000 Cl
BRANCH  12  20
ATOM     19  C   UNL     1       7.656   7.359  17.331  0.00  0.00    +0.000 C 
ATOM     20  O   UNL     1       7.826   6.681  16.089  0.00  0.00    +0.000 OA
ENDBRANCH  12  20
ENDBRANCH   1  14
BRANCH   8  21
ATOM     21  C   UNL     1       1.597   6.755  19.979  0.00  0.00    +0.000 A 
ATOM     22  N   UNL     1       2.290   7.541  19.172  0.00  0.00    +0.000 NA
ATOM     23  C   UNL     1       1.928   8.808  19.547  0.00  0.00    +0.000 A 
ATOM     24  C   UNL     1       1.037   8.764  20.598  0.00  0.00    +0.000 A 
ATOM     25  O   UNL     1       0.800   7.441  20.864  0.00  0.00    +0.000 OA
BRANCH  24  26
ATOM     26  C   UNL     1       0.349   9.758  21.408  0.00  0.00    +0.000 A 
ATOM     27  C   UNL     1       0.383  11.112  21.039  0.00  0.00    +0.000 A 
ATOM     28  C   UNL     1      -0.304  12.079  21.778  0.00  0.00    +0.000 A 
ATOM     29  C   UNL     1      -1.029  11.705  22.905  0.00  0.00    +0.000 A 
ATOM     30  C   UNL     1      -1.055  10.370  23.302  0.00  0.00    +0.000 A 
ATOM     31  C   UNL     1      -0.368   9.404  22.561  0.00  0.00    +0.000 A 
ENDBRANCH  24  26
ENDBRANCH   8  21
TORSDOF 4
ENDMDL
MODEL 9
REMARK VINA RESULT:      -8.2      4.129      7.022
REMARK  Name = 
REMARK  5 active torsions:
REMARK  status: ('A' for Active; 'I' for Inactive)
REMARK    1  A    between atoms: C_1  and  O_2
REMARK    2  A    between atoms: O_2  and  C_3
REMARK    3  A    between atoms: C_5  and  C_6
REMARK    4  A    between atoms: C_13  and  C_14
REMARK    5  A    between atoms: C_17  and  C_18
REMARK                            x       y       z     vdW  Elec       q    Type
REMARK                         _______ _______ _______ _____ _____    ______ ____
ROOT
ATOM      1  C   UNL     1       0.739  13.000  20.537  0.00  0.00    +0.000 A 
ATOM      2  C   UNL     1      -0.035  13.270  21.604  0.00  0.00    +0.000 A 
ATOM      3  C   UNL     1      -0.541  12.140  22.434  0.00  0.00    +0.000 A 
ATOM      4  O   UNL     1      -1.242  12.298  23.426  0.00  0.00    +0.000 OA
ATOM      5  N   UNL     1      -0.153  10.867  21.979  0.00  0.00    +0.000 N 
ATOM      6  N   UNL     1      -0.545   9.699  22.566  0.00  0.00    +0.000 NA
ATOM      7  C   UNL     1       0.010   8.756  21.796  0.00  0.00    +0.000 A 
ATOM      8  C   UNL     1       0.768   9.288  20.739  0.00  0.00    +0.000 A 
ATOM      9  C   UNL     1       0.650  10.646  20.874  0.00  0.00    +0.000 A 
ATOM     10  N   UNL     1       1.101  11.717  20.182  0.00  0.00    +0.000 N 
ATOM     11  H   UNL     1       1.693  11.601  19.356  0.00  0.00    +0.000 HD
ENDROOT
BRANCH   1  14
ATOM     12  C   UNL     1       3.025  14.967  18.286  0.00  0.00    +0.000 A 
ATOM     13  C   UNL     1       2.533  13.977  19.145  0.00  0.00    +0.000 A 
ATOM     14  C   UNL     1       1.256  14.093  19.709  0.00  0.00    +0.000 A 
ATOM     15  C   UNL     1       0.482  15.226  19.448  0.00  0.00    +0.000 A 
ATOM     16  C   UNL     1       0.980  16.236  18.622  0.00  0.00    +0.000 A 
ATOM     17  C   UNL     1       2.245  16.105  18.041  0.00  0.00    +0.000 A 
ATOM     18 CL   UNL     1       2.791  17.362  16.987  0.00  0.00    +0.000 Cl
BRANCH  12  20
ATOM     19  C   UNL     1       5.361  15.219  18.534  0.00  0.00    +0.000 C 
ATOM     20  O   UNL     1       4.260  14.886  17.692  0.00  0.00    +0.000 OA
ENDBRANCH  12  20
ENDBRANCH   1  14
BRANCH   8  21
ATOM     21  C   UNL     1       1.514   8.571  19.683  0.00  0.00    +0.000 A 
ATOM     22  N   UNL     1       1.869   9.139  18.543  0.00  0.00    +0.000 NA
ATOM     23  C   UNL     1       2.511   8.141  17.858  0.00  0.00    +0.000 A 
ATOM     24  C   UNL     1       2.509   6.974  18.591  0.00  0.00    +0.000 A 
ATOM     25  O   UNL     1       1.889   7.252  19.781  0.00  0.00    +0.000 OA
BRANCH  24  26
ATOM     26  C   UNL     1       2.998   5.620  18.376  0.00  0.00    +0.000 A 
ATOM     27  C   UNL     1       2.165   4.657  17.784  0.00  0.00    +0.000 A 
ATOM     28  C   UNL     1       2.627   3.363  17.530  0.00  0.00    +0.000 A 
ATOM     29  C   UNL     1       3.928   3.009  17.873  0.00  0.00    +0.000 A 
ATOM     30  C   UNL     1       4.762   3.943  18.483  0.00  0.00    +0.000 A 
ATOM     31  C   UNL     1       4.299   5.238  18.736  0.00  0.00    +0.000 A 
ENDBRANCH  24  26
ENDBRANCH   8  21
TORSDOF 4
ENDMDL
