MODEL 1
REMARK VINA RESULT:      -6.2      0.000      0.000
REMARK  Name = 
REMARK  19 active torsions:
REMARK  status: ('A' for Active; 'I' for Inactive)
REMARK    1  A    between atoms: C_1  and  C_2
REMARK    2  A    between atoms: C_2  and  C_3
REMARK    3  A    between atoms: C_3  and  C_4
REMARK    4  A    between atoms: C_4  and  C_5
REMARK    5  A    between atoms: C_5  and  C_6
REMARK    6  A    between atoms: C_6  and  C_7
REMARK    7  A    between atoms: C_7  and  C_8
REMARK    8  A    between atoms: C_8  and  C_9
REMARK    9  A    between atoms: C_9  and  C_10
REMARK   10  A    between atoms: C_10  and  C_11
REMARK   11  A    between atoms: C_11  and  C_12
REMARK   12  A    between atoms: C_12  and  C_13
REMARK   13  A    between atoms: C_13  and  C_14
REMARK   14  A    between atoms: C_14  and  C_15
REMARK   15  A    between atoms: C_15  and  C_16
REMARK   16  A    between atoms: C_16  and  C_18
REMARK   17  A    between atoms: C_19  and  O_20
REMARK   18  A    between atoms: C_21  and  C_22
REMARK   19  A    between atoms: C_22  and  O_23
REMARK                            x       y       z     vdW  Elec       q    Type
REMARK                         _______ _______ _______ _____ _____    ______ ____
ROOT
ATOM      1  C   UNL     1       8.105   8.337  17.848  0.00  0.00    +0.000 C 
ENDROOT
BRANCH   1   2
ATOM      2  C   UNL     1       8.833   9.175  18.886  0.00  0.00    +0.000 C 
BRANCH   2   3
ATOM      3  C   UNL     1       9.065  10.609  18.410  0.00  0.00    +0.000 C 
ATOM      4  O   UNL     1       8.397  11.175  17.542  0.00  0.00    +0.000 OA
BRANCH   3   5
ATOM      5  C   UNL     1      10.164  11.348  19.052  0.00  0.00    +0.000 C 
ATOM      6  C   UNL     1      11.220  11.833  18.404  0.00  0.00    +0.000 C 
ATOM      7  C   UNL     1      12.171  12.529  19.308  0.00  0.00    +0.000 C 
ATOM      8  O   UNL     1      11.543  12.373  20.597  0.00  0.00    +0.000 OA
ATOM      9  C   UNL     1      10.359  11.717  20.448  0.00  0.00    +0.000 C 
ATOM     10  O   UNL     1       9.600  11.498  21.374  0.00  0.00    +0.000 OA
BRANCH   6  11
ATOM     11  O   UNL     1      11.439  11.733  17.056  0.00  0.00    +0.000 OA
ATOM     12  H   UNL     1      11.965  12.520  16.780  0.00  0.00    +0.000 HD
ENDBRANCH   6  11
BRANCH   7  13
ATOM     13  C   UNL     1      12.330  14.026  19.002  0.00  0.00    +0.000 C 
BRANCH  13  14
ATOM     14  O   UNL     1      11.776  14.860  20.023  0.00  0.00    +0.000 OA
ATOM     15  H   UNL     1      11.977  15.792  19.837  0.00  0.00    +0.000 HD
ENDBRANCH  13  14
ENDBRANCH   7  13
ENDBRANCH   3   5
ENDBRANCH   2   3
ENDBRANCH   1   2
BRANCH   1  16
ATOM     16  C   UNL     1       8.004   6.884  18.296  0.00  0.00    +0.000 C 
BRANCH  16  17
ATOM     17  C   UNL     1       6.790   6.227  17.657  0.00  0.00    +0.000 C 
BRANCH  17  18
ATOM     18  C   UNL     1       7.172   5.579  16.338  0.00  0.00    +0.000 C 
BRANCH  18  19
ATOM     19  C   UNL     1       6.458   4.248  16.187  0.00  0.00    +0.000 C 
BRANCH  19  20
ATOM     20  C   UNL     1       4.963   4.471  16.051  0.00  0.00    +0.000 C 
BRANCH  20  21
ATOM     21  C   UNL     1       4.215   3.599  17.043  0.00  0.00    +0.000 C 
BRANCH  21  22
ATOM     22  C   UNL     1       3.952   4.373  18.321  0.00  0.00    +0.000 C 
BRANCH  22  23
ATOM     23  C   UNL     1       3.167   5.636  18.013  0.00  0.00    +0.000 C 
BRANCH  23  24
ATOM     24  C   UNL     1       2.479   6.145  19.270  0.00  0.00    +0.000 C 
BRANCH  24  25
ATOM     25  C   UNL     1       2.510   5.080  20.355  0.00  0.00    +0.000 C 
BRANCH  25  26
ATOM     26  C   UNL     1       1.118   4.508  20.572  0.00  0.00    +0.000 C 
BRANCH  26  28
ATOM     27  C   UNL     1       0.810   2.579  19.010  0.00  0.00    +0.000 C 
ATOM     28  C   UNL     1       1.130   2.991  20.435  0.00  0.00    +0.000 C 
ENDBRANCH  26  28
ENDBRANCH  25  26
ENDBRANCH  24  25
ENDBRANCH  23  24
ENDBRANCH  22  23
ENDBRANCH  21  22
ENDBRANCH  20  21
ENDBRANCH  19  20
ENDBRANCH  18  19
ENDBRANCH  17  18
ENDBRANCH  16  17
ENDBRANCH   1  16
TORSDOF 18
ENDMDL
MODEL 2
REMARK VINA RESULT:      -6.1      4.263     10.625
REMARK  Name = 
REMARK  19 active torsions:
REMARK  status: ('A' for Active; 'I' for Inactive)
REMARK    1  A    between atoms: C_1  and  C_2
REMARK    2  A    between atoms: C_2  and  C_3
REMARK    3  A    between atoms: C_3  and  C_4
REMARK    4  A    between atoms: C_4  and  C_5
REMARK    5  A    between atoms: C_5  and  C_6
REMARK    6  A    between atoms: C_6  and  C_7
REMARK    7  A    between atoms: C_7  and  C_8
REMARK    8  A    between atoms: C_8  and  C_9
REMARK    9  A    between atoms: C_9  and  C_10
REMARK   10  A    between atoms: C_10  and  C_11
REMARK   11  A    between atoms: C_11  and  C_12
REMARK   12  A    between atoms: C_12  and  C_13
REMARK   13  A    between atoms: C_13  and  C_14
REMARK   14  A    between atoms: C_14  and  C_15
REMARK   15  A    between atoms: C_15  and  C_16
REMARK   16  A    between atoms: C_16  and  C_18
REMARK   17  A    between atoms: C_19  and  O_20
REMARK   18  A    between atoms: C_21  and  C_22
REMARK   19  A    between atoms: C_22  and  O_23
REMARK                            x       y       z     vdW  Elec       q    Type
REMARK                         _______ _______ _______ _____ _____    ______ ____
ROOT
ATOM      1  C   UNL     1       7.341   6.578  17.479  0.00  0.00    +0.000 C 
ENDROOT
BRANCH   1   2
ATOM      2  C   UNL     1       5.884   6.232  17.742  0.00  0.00    +0.000 C 
BRANCH   2   3
ATOM      3  C   UNL     1       5.733   5.139  18.801  0.00  0.00    +0.000 C 
ATOM      4  O   UNL     1       6.639   4.752  19.541  0.00  0.00    +0.000 OA
BRANCH   3   5
ATOM      5  C   UNL     1       4.402   4.525  18.929  0.00  0.00    +0.000 C 
ATOM      6  C   UNL     1       4.177   3.324  19.455  0.00  0.00    +0.000 C 
ATOM      7  C   UNL     1       2.737   2.962  19.451  0.00  0.00    +0.000 C 
ATOM      8  O   UNL     1       2.130   4.111  18.826  0.00  0.00    +0.000 OA
ATOM      9  C   UNL     1       3.090   5.038  18.552  0.00  0.00    +0.000 C 
ATOM     10  O   UNL     1       2.843   6.127  18.069  0.00  0.00    +0.000 OA
BRANCH   6  11
ATOM     11  O   UNL     1       5.136   2.489  19.964  0.00  0.00    +0.000 OA
ATOM     12  H   UNL     1       6.002   2.757  19.576  0.00  0.00    +0.000 HD
ENDBRANCH   6  11
BRANCH   7  13
ATOM     13  C   UNL     1       2.143   2.778  20.855  0.00  0.00    +0.000 C 
BRANCH  13  14
ATOM     14  O   UNL     1       0.750   3.099  20.912  0.00  0.00    +0.000 OA
ATOM     15  H   UNL     1       0.234   2.306  21.130  0.00  0.00    +0.000 HD
ENDBRANCH  13  14
ENDBRANCH   7  13
ENDBRANCH   3   5
ENDBRANCH   2   3
ENDBRANCH   1   2
BRANCH   1  16
ATOM     16  C   UNL     1       7.534   8.086  17.391  0.00  0.00    +0.000 C 
BRANCH  16  17
ATOM     17  C   UNL     1       8.516   8.547  18.457  0.00  0.00    +0.000 C 
BRANCH  17  18
ATOM     18  C   UNL     1       8.797  10.032  18.310  0.00  0.00    +0.000 C 
BRANCH  18  19
ATOM     19  C   UNL     1       9.536  10.545  19.533  0.00  0.00    +0.000 C 
BRANCH  19  20
ATOM     20  C   UNL     1      10.793  11.284  19.110  0.00  0.00    +0.000 C 
BRANCH  20  21
ATOM     21  C   UNL     1      10.608  11.874  17.724  0.00  0.00    +0.000 C 
BRANCH  21  22
ATOM     22  C   UNL     1      11.762  12.805  17.397  0.00  0.00    +0.000 C 
BRANCH  22  23
ATOM     23  C   UNL     1      12.329  13.399  18.675  0.00  0.00    +0.000 C 
BRANCH  23  24
ATOM     24  C   UNL     1      11.802  14.811  18.874  0.00  0.00    +0.000 C 
BRANCH  24  25
ATOM     25  C   UNL     1      11.292  14.986  20.297  0.00  0.00    +0.000 C 
BRANCH  25  26
ATOM     26  C   UNL     1       9.852  14.508  20.404  0.00  0.00    +0.000 C 
BRANCH  26  28
ATOM     27  C   UNL     1       8.456  13.112  21.939  0.00  0.00    +0.000 C 
ATOM     28  C   UNL     1       9.485  14.223  21.855  0.00  0.00    +0.000 C 
ENDBRANCH  26  28
ENDBRANCH  25  26
ENDBRANCH  24  25
ENDBRANCH  23  24
ENDBRANCH  22  23
ENDBRANCH  21  22
ENDBRANCH  20  21
ENDBRANCH  19  20
ENDBRANCH  18  19
ENDBRANCH  17  18
ENDBRANCH  16  17
ENDBRANCH   1  16
TORSDOF 18
ENDMDL
MODEL 3
REMARK VINA RESULT:      -6.1      4.526      7.748
REMARK  Name = 
REMARK  19 active torsions:
REMARK  status: ('A' for Active; 'I' for Inactive)
REMARK    1  A    between atoms: C_1  and  C_2
REMARK    2  A    between atoms: C_2  and  C_3
REMARK    3  A    between atoms: C_3  and  C_4
REMARK    4  A    between atoms: C_4  and  C_5
REMARK    5  A    between atoms: C_5  and  C_6
REMARK    6  A    between atoms: C_6  and  C_7
REMARK    7  A    between atoms: C_7  and  C_8
REMARK    8  A    between atoms: C_8  and  C_9
REMARK    9  A    between atoms: C_9  and  C_10
REMARK   10  A    between atoms: C_10  and  C_11
REMARK   11  A    between atoms: C_11  and  C_12
REMARK   12  A    between atoms: C_12  and  C_13
REMARK   13  A    between atoms: C_13  and  C_14
REMARK   14  A    between atoms: C_14  and  C_15
REMARK   15  A    between atoms: C_15  and  C_16
REMARK   16  A    between atoms: C_16  and  C_18
REMARK   17  A    between atoms: C_19  and  O_20
REMARK   18  A    between atoms: C_21  and  C_22
REMARK   19  A    between atoms: C_22  and  O_23
REMARK                            x       y       z     vdW  Elec       q    Type
REMARK                         _______ _______ _______ _____ _____    ______ ____
ROOT
ATOM      1  C   UNL     1       2.086   3.269  17.922  0.00  0.00    +0.000 C 
ENDROOT
BRANCH   1   2
ATOM      2  C   UNL     1       3.367   2.459  17.800  0.00  0.00    +0.000 C 
BRANCH   2   3
ATOM      3  C   UNL     1       4.530   3.101  18.557  0.00  0.00    +0.000 C 
ATOM      4  O   UNL     1       4.930   2.737  19.664  0.00  0.00    +0.000 OA
BRANCH   3   5
ATOM      5  C   UNL     1       5.205   4.229  17.896  0.00  0.00    +0.000 C 
ATOM      6  C   UNL     1       5.622   5.326  18.522  0.00  0.00    +0.000 C 
ATOM      7  C   UNL     1       6.266   6.297  17.601  0.00  0.00    +0.000 C 
ATOM      8  O   UNL     1       6.155   5.634  16.325  0.00  0.00    +0.000 OA
ATOM      9  C   UNL     1       5.570   4.416  16.496  0.00  0.00    +0.000 C 
ATOM     10  O   UNL     1       5.403   3.626  15.586  0.00  0.00    +0.000 OA
BRANCH   6  11
ATOM     11  O   UNL     1       5.502   5.567  19.865  0.00  0.00    +0.000 OA
ATOM     12  H   UNL     1       5.902   6.450  20.047  0.00  0.00    +0.000 HD
ENDBRANCH   6  11
BRANCH   7  13
ATOM     13  C   UNL     1       7.748   6.552  17.911  0.00  0.00    +0.000 C 
BRANCH  13  14
ATOM     14  O   UNL     1       8.068   6.345  19.290  0.00  0.00    +0.000 OA
ATOM     15  H   UNL     1       8.453   5.463  19.413  0.00  0.00    +0.000 HD
ENDBRANCH  13  14
ENDBRANCH   7  13
ENDBRANCH   3   5
ENDBRANCH   2   3
ENDBRANCH   1   2
BRANCH   1  16
ATOM     16  C   UNL     1       1.083   2.566  18.827  0.00  0.00    +0.000 C 
BRANCH  16  17
ATOM     17  C   UNL     1       1.000   3.283  20.166  0.00  0.00    +0.000 C 
BRANCH  17  18
ATOM     18  C   UNL     1       2.027   4.401  20.231  0.00  0.00    +0.000 C 
BRANCH  18  19
ATOM     19  C   UNL     1       1.446   5.596  20.965  0.00  0.00    +0.000 C 
BRANCH  19  20
ATOM     20  C   UNL     1       2.026   6.883  20.406  0.00  0.00    +0.000 C 
BRANCH  20  21
ATOM     21  C   UNL     1       2.227   6.754  18.907  0.00  0.00    +0.000 C 
BRANCH  21  22
ATOM     22  C   UNL     1       2.696   8.078  18.330  0.00  0.00    +0.000 C 
BRANCH  22  23
ATOM     23  C   UNL     1       1.565   8.742  17.565  0.00  0.00    +0.000 C 
BRANCH  23  24
ATOM     24  C   UNL     1       1.167  10.042  18.244  0.00  0.00    +0.000 C 
BRANCH  24  25
ATOM     25  C   UNL     1      -0.339  10.240  18.159  0.00  0.00    +0.000 C 
BRANCH  25  26
ATOM     26  C   UNL     1      -0.936  10.350  19.554  0.00  0.00    +0.000 C 
BRANCH  26  28
ATOM     27  C   UNL     1      -0.211   9.138  21.618  0.00  0.00    +0.000 C 
ATOM     28  C   UNL     1       0.148  10.219  20.616  0.00  0.00    +0.000 C 
ENDBRANCH  26  28
ENDBRANCH  25  26
ENDBRANCH  24  25
ENDBRANCH  23  24
ENDBRANCH  22  23
ENDBRANCH  21  22
ENDBRANCH  20  21
ENDBRANCH  19  20
ENDBRANCH  18  19
ENDBRANCH  17  18
ENDBRANCH  16  17
ENDBRANCH   1  16
TORSDOF 18
ENDMDL
MODEL 4
REMARK VINA RESULT:      -6.1      5.690      7.680
REMARK  Name = 
REMARK  19 active torsions:
REMARK  status: ('A' for Active; 'I' for Inactive)
REMARK    1  A    between atoms: C_1  and  C_2
REMARK    2  A    between atoms: C_2  and  C_3
REMARK    3  A    between atoms: C_3  and  C_4
REMARK    4  A    between atoms: C_4  and  C_5
REMARK    5  A    between atoms: C_5  and  C_6
REMARK    6  A    between atoms: C_6  and  C_7
REMARK    7  A    between atoms: C_7  and  C_8
REMARK    8  A    between atoms: C_8  and  C_9
REMARK    9  A    between atoms: C_9  and  C_10
REMARK   10  A    between atoms: C_10  and  C_11
REMARK   11  A    between atoms: C_11  and  C_12
REMARK   12  A    between atoms: C_12  and  C_13
REMARK   13  A    between atoms: C_13  and  C_14
REMARK   14  A    between atoms: C_14  and  C_15
REMARK   15  A    between atoms: C_15  and  C_16
REMARK   16  A    between atoms: C_16  and  C_18
REMARK   17  A    between atoms: C_19  and  O_20
REMARK   18  A    between atoms: C_21  and  C_22
REMARK   19  A    between atoms: C_22  and  O_23
REMARK                            x       y       z     vdW  Elec       q    Type
REMARK                         _______ _______ _______ _____ _____    ______ ____
ROOT
ATOM      1  C   UNL     1       4.633   2.673  19.282  0.00  0.00    +0.000 C 
ENDROOT
BRANCH   1   2
ATOM      2  C   UNL     1       4.485   4.184  19.226  0.00  0.00    +0.000 C 
BRANCH   2   3
ATOM      3  C   UNL     1       5.810   4.883  18.920  0.00  0.00    +0.000 C 
ATOM      4  O   UNL     1       6.710   5.066  19.741  0.00  0.00    +0.000 OA
BRANCH   3   5
ATOM      5  C   UNL     1       6.002   5.358  17.540  0.00  0.00    +0.000 C 
ATOM      6  C   UNL     1       6.998   4.972  16.746  0.00  0.00    +0.000 C 
ATOM      7  C   UNL     1       6.942   5.618  15.410  0.00  0.00    +0.000 C 
ATOM      8  O   UNL     1       5.780   6.465  15.523  0.00  0.00    +0.000 OA
ATOM      9  C   UNL     1       5.210   6.291  16.748  0.00  0.00    +0.000 C 
ATOM     10  O   UNL     1       4.183   6.848  17.088  0.00  0.00    +0.000 OA
BRANCH   6  11
ATOM     11  O   UNL     1       7.977   4.076  17.081  0.00  0.00    +0.000 OA
ATOM     12  H   UNL     1       8.042   3.417  16.349  0.00  0.00    +0.000 HD
ENDBRANCH   6  11
BRANCH   7  13
ATOM     13  C   UNL     1       6.734   4.627  14.254  0.00  0.00    +0.000 C 
BRANCH  13  14
ATOM     14  O   UNL     1       6.319   3.334  14.704  0.00  0.00    +0.000 OA
ATOM     15  H   UNL     1       5.619   3.423  15.371  0.00  0.00    +0.000 HD
ENDBRANCH  13  14
ENDBRANCH   7  13
ENDBRANCH   3   5
ENDBRANCH   2   3
ENDBRANCH   1   2
BRANCH   1  16
ATOM     16  C   UNL     1       3.537   1.988  18.476  0.00  0.00    +0.000 C 
BRANCH  16  17
ATOM     17  C   UNL     1       2.308   2.882  18.407  0.00  0.00    +0.000 C 
BRANCH  17  18
ATOM     18  C   UNL     1       1.220   2.355  19.327  0.00  0.00    +0.000 C 
BRANCH  18  19
ATOM     19  C   UNL     1       0.676   3.483  20.186  0.00  0.00    +0.000 C 
BRANCH  19  20
ATOM     20  C   UNL     1       1.820   4.250  20.825  0.00  0.00    +0.000 C 
BRANCH  20  21
ATOM     21  C   UNL     1       1.438   5.709  20.992  0.00  0.00    +0.000 C 
BRANCH  21  22
ATOM     22  C   UNL     1       1.993   6.526  19.839  0.00  0.00    +0.000 C 
BRANCH  22  23
ATOM     23  C   UNL     1       1.938   8.006  20.177  0.00  0.00    +0.000 C 
BRANCH  23  24
ATOM     24  C   UNL     1       0.819   8.276  21.170  0.00  0.00    +0.000 C 
BRANCH  24  25
ATOM     25  C   UNL     1      -0.038   9.439  20.693  0.00  0.00    +0.000 C 
BRANCH  25  26
ATOM     26  C   UNL     1       0.597  10.761  21.095  0.00  0.00    +0.000 C 
BRANCH  26  28
ATOM     27  C   UNL     1      -1.297  11.488  19.633  0.00  0.00    +0.000 C 
ATOM     28  C   UNL     1       0.003  11.911  20.292  0.00  0.00    +0.000 C 
ENDBRANCH  26  28
ENDBRANCH  25  26
ENDBRANCH  24  25
ENDBRANCH  23  24
ENDBRANCH  22  23
ENDBRANCH  21  22
ENDBRANCH  20  21
ENDBRANCH  19  20
ENDBRANCH  18  19
ENDBRANCH  17  18
ENDBRANCH  16  17
ENDBRANCH   1  16
TORSDOF 18
ENDMDL
MODEL 5
REMARK VINA RESULT:      -6.0      5.312      8.615
REMARK  Name = 
REMARK  19 active torsions:
REMARK  status: ('A' for Active; 'I' for Inactive)
REMARK    1  A    between atoms: C_1  and  C_2
REMARK    2  A    between atoms: C_2  and  C_3
REMARK    3  A    between atoms: C_3  and  C_4
REMARK    4  A    between atoms: C_4  and  C_5
REMARK    5  A    between atoms: C_5  and  C_6
REMARK    6  A    between atoms: C_6  and  C_7
REMARK    7  A    between atoms: C_7  and  C_8
REMARK    8  A    between atoms: C_8  and  C_9
REMARK    9  A    between atoms: C_9  and  C_10
REMARK   10  A    between atoms: C_10  and  C_11
REMARK   11  A    between atoms: C_11  and  C_12
REMARK   12  A    between atoms: C_12  and  C_13
REMARK   13  A    between atoms: C_13  and  C_14
REMARK   14  A    between atoms: C_14  and  C_15
REMARK   15  A    between atoms: C_15  and  C_16
REMARK   16  A    between atoms: C_16  and  C_18
REMARK   17  A    between atoms: C_19  and  O_20
REMARK   18  A    between atoms: C_21  and  C_22
REMARK   19  A    between atoms: C_22  and  O_23
REMARK                            x       y       z     vdW  Elec       q    Type
REMARK                         _______ _______ _______ _____ _____    ______ ____
ROOT
ATOM      1  C   UNL     1       3.313   7.638  17.756  0.00  0.00    +0.000 C 
ENDROOT
BRANCH   1   2
ATOM      2  C   UNL     1       3.416   6.145  18.025  0.00  0.00    +0.000 C 
BRANCH   2   3
ATOM      3  C   UNL     1       4.823   5.732  18.457  0.00  0.00    +0.000 C 
ATOM      4  O   UNL     1       5.159   5.502  19.620  0.00  0.00    +0.000 OA
BRANCH   3   5
ATOM      5  C   UNL     1       5.829   5.603  17.391  0.00  0.00    +0.000 C 
ATOM      6  C   UNL     1       6.001   4.512  16.651  0.00  0.00    +0.000 C 
ATOM      7  C   UNL     1       7.092   4.666  15.654  0.00  0.00    +0.000 C 
ATOM      8  O   UNL     1       7.565   6.003  15.918  0.00  0.00    +0.000 OA
ATOM      9  C   UNL     1       6.811   6.565  16.904  0.00  0.00    +0.000 C 
ATOM     10  O   UNL     1       6.965   7.709  17.287  0.00  0.00    +0.000 OA
BRANCH   6  11
ATOM     11  O   UNL     1       5.270   3.359  16.755  0.00  0.00    +0.000 OA
ATOM     12  H   UNL     1       5.665   2.697  16.139  0.00  0.00    +0.000 HD
ENDBRANCH   6  11
BRANCH   7  13
ATOM     13  C   UNL     1       6.614   4.579  14.197  0.00  0.00    +0.000 C 
BRANCH  13  14
ATOM     14  O   UNL     1       6.278   3.245  13.806  0.00  0.00    +0.000 OA
ATOM     15  H   UNL     1       7.053   2.667  13.897  0.00  0.00    +0.000 HD
ENDBRANCH  13  14
ENDBRANCH   7  13
ENDBRANCH   3   5
ENDBRANCH   2   3
ENDBRANCH   1   2
BRANCH   1  16
ATOM     16  C   UNL     1       1.860   8.093  17.762  0.00  0.00    +0.000 C 
BRANCH  16  17
ATOM     17  C   UNL     1       1.652   9.155  18.831  0.00  0.00    +0.000 C 
BRANCH  17  18
ATOM     18  C   UNL     1       1.364   8.504  20.173  0.00  0.00    +0.000 C 
BRANCH  18  19
ATOM     19  C   UNL     1       0.226   9.231  20.868  0.00  0.00    +0.000 C 
BRANCH  19  20
ATOM     20  C   UNL     1       0.645  10.649  21.210  0.00  0.00    +0.000 C 
BRANCH  20  21
ATOM     21  C   UNL     1      -0.487  11.368  21.921  0.00  0.00    +0.000 C 
BRANCH  21  22
ATOM     22  C   UNL     1      -1.434  11.980  20.905  0.00  0.00    +0.000 C 
BRANCH  22  23
ATOM     23  C   UNL     1      -0.643  12.668  19.805  0.00  0.00    +0.000 C 
BRANCH  23  24
ATOM     24  C   UNL     1      -0.986  12.059  18.455  0.00  0.00    +0.000 C 
BRANCH  24  25
ATOM     25  C   UNL     1      -2.229  11.189  18.571  0.00  0.00    +0.000 C 
BRANCH  25  26
ATOM     26  C   UNL     1      -2.128   9.999  17.629  0.00  0.00    +0.000 C 
BRANCH  26  28
ATOM     27  C   UNL     1      -3.856  10.846  16.033  0.00  0.00    +0.000 C 
ATOM     28  C   UNL     1      -2.409  10.422  16.193  0.00  0.00    +0.000 C 
ENDBRANCH  26  28
ENDBRANCH  25  26
ENDBRANCH  24  25
ENDBRANCH  23  24
ENDBRANCH  22  23
ENDBRANCH  21  22
ENDBRANCH  20  21
ENDBRANCH  19  20
ENDBRANCH  18  19
ENDBRANCH  17  18
ENDBRANCH  16  17
ENDBRANCH   1  16
TORSDOF 18
ENDMDL
MODEL 6
REMARK VINA RESULT:      -6.0      5.238      7.541
REMARK  Name = 
REMARK  19 active torsions:
REMARK  status: ('A' for Active; 'I' for Inactive)
REMARK    1  A    between atoms: C_1  and  C_2
REMARK    2  A    between atoms: C_2  and  C_3
REMARK    3  A    between atoms: C_3  and  C_4
REMARK    4  A    between atoms: C_4  and  C_5
REMARK    5  A    between atoms: C_5  and  C_6
REMARK    6  A    between atoms: C_6  and  C_7
REMARK    7  A    between atoms: C_7  and  C_8
REMARK    8  A    between atoms: C_8  and  C_9
REMARK    9  A    between atoms: C_9  and  C_10
REMARK   10  A    between atoms: C_10  and  C_11
REMARK   11  A    between atoms: C_11  and  C_12
REMARK   12  A    between atoms: C_12  and  C_13
REMARK   13  A    between atoms: C_13  and  C_14
REMARK   14  A    between atoms: C_14  and  C_15
REMARK   15  A    between atoms: C_15  and  C_16
REMARK   16  A    between atoms: C_16  and  C_18
REMARK   17  A    between atoms: C_19  and  O_20
REMARK   18  A    between atoms: C_21  and  C_22
REMARK   19  A    between atoms: C_22  and  O_23
REMARK                            x       y       z     vdW  Elec       q    Type
REMARK                         _______ _______ _______ _____ _____    ______ ____
ROOT
ATOM      1  C   UNL     1       7.448   5.150  18.515  0.00  0.00    +0.000 C 
ENDROOT
BRANCH   1   2
ATOM      2  C   UNL     1       7.447   4.440  17.171  0.00  0.00    +0.000 C 
BRANCH   2   3
ATOM      3  C   UNL     1       7.434   5.422  16.000  0.00  0.00    +0.000 C 
ATOM      4  O   UNL     1       7.628   6.635  16.102  0.00  0.00    +0.000 OA
BRANCH   3   5
ATOM      5  C   UNL     1       7.176   4.856  14.666  0.00  0.00    +0.000 C 
ATOM      6  C   UNL     1       6.274   3.911  14.415  0.00  0.00    +0.000 C 
ATOM      7  C   UNL     1       6.235   3.530  12.980  0.00  0.00    +0.000 C 
ATOM      8  O   UNL     1       7.261   4.367  12.409  0.00  0.00    +0.000 OA
ATOM      9  C   UNL     1       7.787   5.165  13.379  0.00  0.00    +0.000 C 
ATOM     10  O   UNL     1       8.638   6.006  13.158  0.00  0.00    +0.000 OA
BRANCH   6  11
ATOM     11  O   UNL     1       5.447   3.337  15.343  0.00  0.00    +0.000 OA
ATOM     12  H   UNL     1       4.633   3.037  14.873  0.00  0.00    +0.000 HD
ENDBRANCH   6  11
BRANCH   7  13
ATOM     13  C   UNL     1       4.894   3.836  12.296  0.00  0.00    +0.000 C 
BRANCH  13  14
ATOM     14  O   UNL     1       4.465   2.786  11.425  0.00  0.00    +0.000 OA
ATOM     15  H   UNL     1       4.057   3.161  10.628  0.00  0.00    +0.000 HD
ENDBRANCH  13  14
ENDBRANCH   7  13
ENDBRANCH   3   5
ENDBRANCH   2   3
ENDBRANCH   1   2
BRANCH   1  16
ATOM     16  C   UNL     1       6.073   5.727  18.826  0.00  0.00    +0.000 C 
BRANCH  16  17
ATOM     17  C   UNL     1       5.000   4.680  18.568  0.00  0.00    +0.000 C 
BRANCH  17  18
ATOM     18  C   UNL     1       3.884   5.266  17.721  0.00  0.00    +0.000 C 
BRANCH  18  19
ATOM     19  C   UNL     1       4.275   6.649  17.230  0.00  0.00    +0.000 C 
BRANCH  19  20
ATOM     20  C   UNL     1       3.216   7.661  17.627  0.00  0.00    +0.000 C 
BRANCH  20  21
ATOM     21  C   UNL     1       2.117   6.980  18.421  0.00  0.00    +0.000 C 
BRANCH  21  22
ATOM     22  C   UNL     1       2.310   7.239  19.904  0.00  0.00    +0.000 C 
BRANCH  22  23
ATOM     23  C   UNL     1       1.374   6.358  20.712  0.00  0.00    +0.000 C 
BRANCH  23  24
ATOM     24  C   UNL     1       1.957   4.961  20.847  0.00  0.00    +0.000 C 
BRANCH  24  25
ATOM     25  C   UNL     1       1.125   3.965  20.052  0.00  0.00    +0.000 C 
BRANCH  25  26
ATOM     26  C   UNL     1       1.745   2.578  20.132  0.00  0.00    +0.000 C 
BRANCH  26  28
ATOM     27  C   UNL     1       3.316   1.596  18.453  0.00  0.00    +0.000 C 
ATOM     28  C   UNL     1       1.874   1.964  18.744  0.00  0.00    +0.000 C 
ENDBRANCH  26  28
ENDBRANCH  25  26
ENDBRANCH  24  25
ENDBRANCH  23  24
ENDBRANCH  22  23
ENDBRANCH  21  22
ENDBRANCH  20  21
ENDBRANCH  19  20
ENDBRANCH  18  19
ENDBRANCH  17  18
ENDBRANCH  16  17
ENDBRANCH   1  16
TORSDOF 18
ENDMDL
MODEL 7
REMARK VINA RESULT:      -6.0      4.368      9.520
REMARK  Name = 
REMARK  19 active torsions:
REMARK  status: ('A' for Active; 'I' for Inactive)
REMARK    1  A    between atoms: C_1  and  C_2
REMARK    2  A    between atoms: C_2  and  C_3
REMARK    3  A    between atoms: C_3  and  C_4
REMARK    4  A    between atoms: C_4  and  C_5
REMARK    5  A    between atoms: C_5  and  C_6
REMARK    6  A    between atoms: C_6  and  C_7
REMARK    7  A    between atoms: C_7  and  C_8
REMARK    8  A    between atoms: C_8  and  C_9
REMARK    9  A    between atoms: C_9  and  C_10
REMARK   10  A    between atoms: C_10  and  C_11
REMARK   11  A    between atoms: C_11  and  C_12
REMARK   12  A    between atoms: C_12  and  C_13
REMARK   13  A    between atoms: C_13  and  C_14
REMARK   14  A    between atoms: C_14  and  C_15
REMARK   15  A    between atoms: C_15  and  C_16
REMARK   16  A    between atoms: C_16  and  C_18
REMARK   17  A    between atoms: C_19  and  O_20
REMARK   18  A    between atoms: C_21  and  C_22
REMARK   19  A    between atoms: C_22  and  O_23
REMARK                            x       y       z     vdW  Elec       q    Type
REMARK                         _______ _______ _______ _____ _____    ______ ____
ROOT
ATOM      1  C   UNL     1       7.397   6.602  17.843  0.00  0.00    +0.000 C 
ENDROOT
BRANCH   1   2
ATOM      2  C   UNL     1       6.206   7.288  17.194  0.00  0.00    +0.000 C 
BRANCH   2   3
ATOM      3  C   UNL     1       5.346   6.312  16.391  0.00  0.00    +0.000 C 
ATOM      4  O   UNL     1       5.411   6.164  15.169  0.00  0.00    +0.000 OA
BRANCH   3   5
ATOM      5  C   UNL     1       4.383   5.501  17.153  0.00  0.00    +0.000 C 
ATOM      6  C   UNL     1       4.461   4.181  17.294  0.00  0.00    +0.000 C 
ATOM      7  C   UNL     1       3.350   3.629  18.112  0.00  0.00    +0.000 C 
ATOM      8  O   UNL     1       2.580   4.808  18.423  0.00  0.00    +0.000 OA
ATOM      9  C   UNL     1       3.195   5.904  17.896  0.00  0.00    +0.000 C 
ATOM     10  O   UNL     1       2.783   7.038  18.055  0.00  0.00    +0.000 OA
BRANCH   6  11
ATOM     11  O   UNL     1       5.445   3.384  16.771  0.00  0.00    +0.000 OA
ATOM     12  H   UNL     1       6.297   3.646  17.192  0.00  0.00    +0.000 HD
ENDBRANCH   6  11
BRANCH   7  13
ATOM     13  C   UNL     1       3.815   2.970  19.419  0.00  0.00    +0.000 C 
BRANCH  13  14
ATOM     14  O   UNL     1       5.189   2.575  19.380  0.00  0.00    +0.000 OA
ATOM     15  H   UNL     1       5.482   2.305  20.266  0.00  0.00    +0.000 HD
ENDBRANCH  13  14
ENDBRANCH   7  13
ENDBRANCH   3   5
ENDBRANCH   2   3
ENDBRANCH   1   2
BRANCH   1  16
ATOM     16  C   UNL     1       8.312   7.619  18.513  0.00  0.00    +0.000 C 
BRANCH  16  17
ATOM     17  C   UNL     1       8.071   9.001  17.925  0.00  0.00    +0.000 C 
BRANCH  17  18
ATOM     18  C   UNL     1       8.797  10.056  18.742  0.00  0.00    +0.000 C 
BRANCH  18  19
ATOM     19  C   UNL     1       9.915  10.671  17.918  0.00  0.00    +0.000 C 
BRANCH  19  20
ATOM     20  C   UNL     1      10.252  12.053  18.447  0.00  0.00    +0.000 C 
BRANCH  20  21
ATOM     21  C   UNL     1      11.154  11.938  19.663  0.00  0.00    +0.000 C 
BRANCH  21  22
ATOM     22  C   UNL     1      10.811  13.022  20.669  0.00  0.00    +0.000 C 
BRANCH  22  23
ATOM     23  C   UNL     1       9.711  12.541  21.598  0.00  0.00    +0.000 C 
BRANCH  23  24
ATOM     24  C   UNL     1       9.112  13.716  22.354  0.00  0.00    +0.000 C 
BRANCH  24  25
ATOM     25  C   UNL     1       8.269  13.219  23.518  0.00  0.00    +0.000 C 
BRANCH  25  26
ATOM     26  C   UNL     1       7.674  11.857  23.193  0.00  0.00    +0.000 C 
BRANCH  26  28
ATOM     27  C   UNL     1       6.172  11.336  25.124  0.00  0.00    +0.000 C 
ATOM     28  C   UNL     1       6.230  11.771  23.672  0.00  0.00    +0.000 C 
ENDBRANCH  26  28
ENDBRANCH  25  26
ENDBRANCH  24  25
ENDBRANCH  23  24
ENDBRANCH  22  23
ENDBRANCH  21  22
ENDBRANCH  20  21
ENDBRANCH  19  20
ENDBRANCH  18  19
ENDBRANCH  17  18
ENDBRANCH  16  17
ENDBRANCH   1  16
TORSDOF 18
ENDMDL
MODEL 8
REMARK VINA RESULT:      -5.9      5.923      8.472
REMARK  Name = 
REMARK  19 active torsions:
REMARK  status: ('A' for Active; 'I' for Inactive)
REMARK    1  A    between atoms: C_1  and  C_2
REMARK    2  A    between atoms: C_2  and  C_3
REMARK    3  A    between atoms: C_3  and  C_4
REMARK    4  A    between atoms: C_4  and  C_5
REMARK    5  A    between atoms: C_5  and  C_6
REMARK    6  A    between atoms: C_6  and  C_7
REMARK    7  A    between atoms: C_7  and  C_8
REMARK    8  A    between atoms: C_8  and  C_9
REMARK    9  A    between atoms: C_9  and  C_10
REMARK   10  A    between atoms: C_10  and  C_11
REMARK   11  A    between atoms: C_11  and  C_12
REMARK   12  A    between atoms: C_12  and  C_13
REMARK   13  A    between atoms: C_13  and  C_14
REMARK   14  A    between atoms: C_14  and  C_15
REMARK   15  A    between atoms: C_15  and  C_16
REMARK   16  A    between atoms: C_16  and  C_18
REMARK   17  A    between atoms: C_19  and  O_20
REMARK   18  A    between atoms: C_21  and  C_22
REMARK   19  A    between atoms: C_22  and  O_23
REMARK                            x       y       z     vdW  Elec       q    Type
REMARK                         _______ _______ _______ _____ _____    ______ ____
ROOT
ATOM      1  C   UNL     1       1.436   8.521  17.676  0.00  0.00    +0.000 C 
ENDROOT
BRANCH   1   2
ATOM      2  C   UNL     1       1.522   9.806  18.484  0.00  0.00    +0.000 C 
BRANCH   2   3
ATOM      3  C   UNL     1       0.197  10.570  18.495  0.00  0.00    +0.000 C 
ATOM      4  O   UNL     1      -0.831  10.194  17.931  0.00  0.00    +0.000 OA
BRANCH   3   5
ATOM      5  C   UNL     1       0.173  11.837  19.243  0.00  0.00    +0.000 C 
ATOM      6  C   UNL     1      -0.396  12.956  18.804  0.00  0.00    +0.000 C 
ATOM      7  C   UNL     1      -0.262  14.078  19.768  0.00  0.00    +0.000 C 
ATOM      8  O   UNL     1       0.490  13.477  20.841  0.00  0.00    +0.000 OA
ATOM      9  C   UNL     1       0.716  12.164  20.556  0.00  0.00    +0.000 C 
ATOM     10  O   UNL     1       1.286  11.407  21.320  0.00  0.00    +0.000 OA
BRANCH   6  11
ATOM     11  O   UNL     1      -1.051  13.097  17.610  0.00  0.00    +0.000 OA
ATOM     12  H   UNL     1      -1.803  13.719  17.753  0.00  0.00    +0.000 HD
ENDBRANCH   6  11
BRANCH   7  13
ATOM     13  C   UNL     1      -1.604  14.586  20.315  0.00  0.00    +0.000 C 
BRANCH  13  14
ATOM     14  O   UNL     1      -2.695  13.718  19.992  0.00  0.00    +0.000 OA
ATOM     15  H   UNL     1      -3.216  13.528  20.790  0.00  0.00    +0.000 HD
ENDBRANCH  13  14
ENDBRANCH   7  13
ENDBRANCH   3   5
ENDBRANCH   2   3
ENDBRANCH   1   2
BRANCH   1  16
ATOM     16  C   UNL     1       2.438   7.492  18.183  0.00  0.00    +0.000 C 
BRANCH  16  17
ATOM     17  C   UNL     1       2.339   7.372  19.696  0.00  0.00    +0.000 C 
BRANCH  17  18
ATOM     18  C   UNL     1       2.731   5.974  20.142  0.00  0.00    +0.000 C 
BRANCH  18  19
ATOM     19  C   UNL     1       1.488   5.162  20.457  0.00  0.00    +0.000 C 
BRANCH  19  20
ATOM     20  C   UNL     1       1.874   3.861  21.138  0.00  0.00    +0.000 C 
BRANCH  20  21
ATOM     21  C   UNL     1       1.235   2.688  20.418  0.00  0.00    +0.000 C 
BRANCH  21  22
ATOM     22  C   UNL     1       1.170   2.965  18.927  0.00  0.00    +0.000 C 
BRANCH  22  23
ATOM     23  C   UNL     1       2.376   2.358  18.231  0.00  0.00    +0.000 C 
BRANCH  23  24
ATOM     24  C   UNL     1       2.765   3.201  17.027  0.00  0.00    +0.000 C 
BRANCH  24  25
ATOM     25  C   UNL     1       3.884   4.162  17.398  0.00  0.00    +0.000 C 
BRANCH  25  26
ATOM     26  C   UNL     1       4.796   4.395  16.203  0.00  0.00    +0.000 C 
BRANCH  26  28
ATOM     27  C   UNL     1       5.869   6.422  17.201  0.00  0.00    +0.000 C 
ATOM     28  C   UNL     1       5.080   5.881  16.023  0.00  0.00    +0.000 C 
ENDBRANCH  26  28
ENDBRANCH  25  26
ENDBRANCH  24  25
ENDBRANCH  23  24
ENDBRANCH  22  23
ENDBRANCH  21  22
ENDBRANCH  20  21
ENDBRANCH  19  20
ENDBRANCH  18  19
ENDBRANCH  17  18
ENDBRANCH  16  17
ENDBRANCH   1  16
TORSDOF 18
ENDMDL
MODEL 9
REMARK VINA RESULT:      -5.9      4.997     11.338
REMARK  Name = 
REMARK  19 active torsions:
REMARK  status: ('A' for Active; 'I' for Inactive)
REMARK    1  A    between atoms: C_1  and  C_2
REMARK    2  A    between atoms: C_2  and  C_3
REMARK    3  A    between atoms: C_3  and  C_4
REMARK    4  A    between atoms: C_4  and  C_5
REMARK    5  A    between atoms: C_5  and  C_6
REMARK    6  A    between atoms: C_6  and  C_7
REMARK    7  A    between atoms: C_7  and  C_8
REMARK    8  A    between atoms: C_8  and  C_9
REMARK    9  A    between atoms: C_9  and  C_10
REMARK   10  A    between atoms: C_10  and  C_11
REMARK   11  A    between atoms: C_11  and  C_12
REMARK   12  A    between atoms: C_12  and  C_13
REMARK   13  A    between atoms: C_13  and  C_14
REMARK   14  A    between atoms: C_14  and  C_15
REMARK   15  A    between atoms: C_15  and  C_16
REMARK   16  A    between atoms: C_16  and  C_18
REMARK   17  A    between atoms: C_19  and  O_20
REMARK   18  A    between atoms: C_21  and  C_22
REMARK   19  A    between atoms: C_22  and  O_23
REMARK                            x       y       z     vdW  Elec       q    Type
REMARK                         _______ _______ _______ _____ _____    ______ ____
ROOT
ATOM      1  C   UNL     1       5.680   6.438  16.563  0.00  0.00    +0.000 C 
ENDROOT
BRANCH   1   2
ATOM      2  C   UNL     1       4.764   5.825  17.611  0.00  0.00    +0.000 C 
BRANCH   2   3
ATOM      3  C   UNL     1       4.312   4.416  17.227  0.00  0.00    +0.000 C 
ATOM      4  O   UNL     1       4.668   3.819  16.210  0.00  0.00    +0.000 OA
BRANCH   3   5
ATOM      5  C   UNL     1       3.390   3.743  18.157  0.00  0.00    +0.000 C 
ATOM      6  C   UNL     1       3.776   3.027  19.209  0.00  0.00    +0.000 C 
ATOM      7  C   UNL     1       2.629   2.463  19.965  0.00  0.00    +0.000 C 
ATOM      8  O   UNL     1       1.497   2.927  19.201  0.00  0.00    +0.000 OA
ATOM      9  C   UNL     1       1.933   3.701  18.169  0.00  0.00    +0.000 C 
ATOM     10  O   UNL     1       1.179   4.263  17.396  0.00  0.00    +0.000 OA
BRANCH   6  11
ATOM     11  O   UNL     1       5.074   2.818  19.593  0.00  0.00    +0.000 OA
ATOM     12  H   UNL     1       5.480   2.193  18.947  0.00  0.00    +0.000 HD
ENDBRANCH   6  11
BRANCH   7  13
ATOM     13  C   UNL     1       2.518   2.991  21.403  0.00  0.00    +0.000 C 
BRANCH  13  14
ATOM     14  O   UNL     1       1.413   2.426  22.115  0.00  0.00    +0.000 OA
ATOM     15  H   UNL     1       0.877   1.879  21.517  0.00  0.00    +0.000 HD
ENDBRANCH  13  14
ENDBRANCH   7  13
ENDBRANCH   3   5
ENDBRANCH   2   3
ENDBRANCH   1   2
BRANCH   1  16
ATOM     16  C   UNL     1       7.057   6.725  17.146  0.00  0.00    +0.000 C 
BRANCH  16  17
ATOM     17  C   UNL     1       7.141   8.178  17.590  0.00  0.00    +0.000 C 
BRANCH  17  18
ATOM     18  C   UNL     1       8.472   8.446  18.271  0.00  0.00    +0.000 C 
BRANCH  18  19
ATOM     19  C   UNL     1       8.781   9.932  18.238  0.00  0.00    +0.000 C 
BRANCH  19  20
ATOM     20  C   UNL     1       9.315  10.384  19.585  0.00  0.00    +0.000 C 
BRANCH  20  21
ATOM     21  C   UNL     1      10.515  11.293  19.391  0.00  0.00    +0.000 C 
BRANCH  21  22
ATOM     22  C   UNL     1      10.379  12.061  18.089  0.00  0.00    +0.000 C 
BRANCH  22  23
ATOM     23  C   UNL     1      11.139  13.373  18.177  0.00  0.00    +0.000 C 
BRANCH  23  24
ATOM     24  C   UNL     1      11.375  13.936  16.785  0.00  0.00    +0.000 C 
BRANCH  24  25
ATOM     25  C   UNL     1      11.190  15.446  16.790  0.00  0.00    +0.000 C 
BRANCH  25  26
ATOM     26  C   UNL     1      10.061  15.835  17.731  0.00  0.00    +0.000 C 
BRANCH  26  28
ATOM     27  C   UNL     1      10.783  18.213  17.447  0.00  0.00    +0.000 C 
ATOM     28  C   UNL     1      10.380  17.143  18.444  0.00  0.00    +0.000 C 
ENDBRANCH  26  28
ENDBRANCH  25  26
ENDBRANCH  24  25
ENDBRANCH  23  24
ENDBRANCH  22  23
ENDBRANCH  21  22
ENDBRANCH  20  21
ENDBRANCH  19  20
ENDBRANCH  18  19
ENDBRANCH  17  18
ENDBRANCH  16  17
ENDBRANCH   1  16
TORSDOF 18
ENDMDL
