MODEL 1
REMARK VINA RESULT:      -8.3      0.000      0.000
REMARK  Name = 
REMARK  10 active torsions:
REMARK  status: ('A' for Active; 'I' for Inactive)
REMARK    1  A    between atoms: C_1  and  O_2
REMARK    2  A    between atoms: O_2  and  C_3
REMARK    3  A    between atoms: C_6  and  C_7
REMARK    4  A    between atoms: C_7  and  C_8
REMARK    5  A    between atoms: C_11  and  O_12
REMARK    6  A    between atoms: O_12  and  C_13
REMARK    7  A    between atoms: N_19  and  C_20
REMARK    8  A    between atoms: C_20  and  C_21
REMARK    9  A    between atoms: C_21  and  C_22
REMARK   10  A    between atoms: C_22  and  C_23
REMARK                            x       y       z     vdW  Elec       q    Type
REMARK                         _______ _______ _______ _____ _____    ______ ____
ROOT
ATOM      1  C   UNL     1       0.724  10.337  19.183  0.00  0.00    +0.000 C 
ATOM      2  N   UNL     1       0.682   9.646  20.466  0.00  0.00    +0.000 N 
ATOM      3  C   UNL     1       1.383   8.498  20.460  0.00  0.00    +0.000 C 
ATOM      4  N   UNL     1       1.507   7.701  21.455  0.00  0.00    +0.000 NA
ATOM      5  N   UNL     1       1.944   8.277  19.251  0.00  0.00    +0.000 N 
ATOM      6  C   UNL     1       1.637   9.314  18.398  0.00  0.00    +0.000 C 
ATOM      7  O   UNL     1       2.029   9.406  17.237  0.00  0.00    +0.000 OA
ATOM      8  H   UNL     1       0.137   9.968  21.244  0.00  0.00    +0.000 HD
ATOM      9  H   UNL     1       0.989   8.072  22.247  0.00  0.00    +0.000 HD
ENDROOT
BRANCH   1  13
ATOM     10  C   UNL     1       2.673  14.227  19.661  0.00  0.00    +0.000 A 
ATOM     11  C   UNL     1       2.616  13.624  18.406  0.00  0.00    +0.000 A 
ATOM     12  C   UNL     1       1.985  12.385  18.241  0.00  0.00    +0.000 A 
ATOM     13  C   UNL     1       1.395  11.717  19.331  0.00  0.00    +0.000 A 
ATOM     14  C   UNL     1       1.513  12.322  20.595  0.00  0.00    +0.000 A 
ATOM     15  C   UNL     1       2.136  13.563  20.757  0.00  0.00    +0.000 A 
BRANCH  10  17
ATOM     16  C   UNL     1       2.454  16.572  19.658  0.00  0.00    +0.000 C 
ATOM     17  O   UNL     1       3.311  15.435  19.718  0.00  0.00    +0.000 OA
ENDBRANCH  10  17
ENDBRANCH   1  13
BRANCH   1  18
ATOM     18  C   UNL     1      -0.689  10.476  18.600  0.00  0.00    +0.000 A 
ATOM     19  C   UNL     1      -1.087   9.761  17.457  0.00  0.00    +0.000 A 
ATOM     20  C   UNL     1      -2.297  10.044  16.814  0.00  0.00    +0.000 A 
ATOM     21  C   UNL     1      -3.146  11.034  17.301  0.00  0.00    +0.000 A 
ATOM     22  C   UNL     1      -2.797  11.723  18.455  0.00  0.00    +0.000 A 
ATOM     23  C   UNL     1      -1.584  11.444  19.100  0.00  0.00    +0.000 A 
BRANCH  21  24
ATOM     24  O   UNL     1      -4.248  11.281  16.531  0.00  0.00    +0.000 OA
ATOM     25  C   UNL     1      -5.318  11.951  17.181  0.00  0.00    +0.000 C 
ENDBRANCH  21  24
ENDBRANCH   1  18
BRANCH   5  26
ATOM     26  C   UNL     1       2.794   7.158  18.861  0.00  0.00    +0.000 C 
BRANCH  26  27
ATOM     27  C   UNL     1       2.041   6.130  18.021  0.00  0.00    +0.000 C 
BRANCH  27  28
ATOM     28  C   UNL     1       2.783   4.796  17.898  0.00  0.00    +0.000 C 
BRANCH  28  29
ATOM     29  C   UNL     1       2.479   3.944  19.111  0.00  0.00    +0.000 A 
ATOM     30  C   UNL     1       1.166   3.831  19.590  0.00  0.00    +0.000 A 
ATOM     31  C   UNL     1       0.906   3.155  20.782  0.00  0.00    +0.000 A 
ATOM     32  C   UNL     1       1.953   2.575  21.498  0.00  0.00    +0.000 A 
ATOM     33  C   UNL     1       3.255   2.667  21.024  0.00  0.00    +0.000 A 
ATOM     34  C   UNL     1       3.520   3.350  19.835  0.00  0.00    +0.000 A 
ENDBRANCH  28  29
ENDBRANCH  27  28
ENDBRANCH  26  27
ENDBRANCH   5  26
TORSDOF 8
ENDMDL
MODEL 2
REMARK VINA RESULT:      -8.2      0.437      1.283
REMARK  Name = 
REMARK  10 active torsions:
REMARK  status: ('A' for Active; 'I' for Inactive)
REMARK    1  A    between atoms: C_1  and  O_2
REMARK    2  A    between atoms: O_2  and  C_3
REMARK    3  A    between atoms: C_6  and  C_7
REMARK    4  A    between atoms: C_7  and  C_8
REMARK    5  A    between atoms: C_11  and  O_12
REMARK    6  A    between atoms: O_12  and  C_13
REMARK    7  A    between atoms: N_19  and  C_20
REMARK    8  A    between atoms: C_20  and  C_21
REMARK    9  A    between atoms: C_21  and  C_22
REMARK   10  A    between atoms: C_22  and  C_23
REMARK                            x       y       z     vdW  Elec       q    Type
REMARK                         _______ _______ _______ _____ _____    ______ ____
ROOT
ATOM      1  C   UNL     1       0.753  10.313  19.206  0.00  0.00    +0.000 C 
ATOM      2  N   UNL     1       0.718   9.583  20.468  0.00  0.00    +0.000 N 
ATOM      3  C   UNL     1       1.402   8.426  20.417  0.00  0.00    +0.000 C 
ATOM      4  N   UNL     1       1.527   7.596  21.385  0.00  0.00    +0.000 NA
ATOM      5  N   UNL     1       1.945   8.235  19.195  0.00  0.00    +0.000 N 
ATOM      6  C   UNL     1       1.641   9.301  18.378  0.00  0.00    +0.000 C 
ATOM      7  O   UNL     1       2.020   9.424  17.216  0.00  0.00    +0.000 OA
ATOM      8  H   UNL     1       0.187   9.888  21.262  0.00  0.00    +0.000 HD
ATOM      9  H   UNL     1       1.025   7.950  22.195  0.00  0.00    +0.000 HD
ENDROOT
BRANCH   1  13
ATOM     10  C   UNL     1       2.673  14.218  19.667  0.00  0.00    +0.000 A 
ATOM     11  C   UNL     1       2.098  13.590  20.768  0.00  0.00    +0.000 A 
ATOM     12  C   UNL     1       1.491  12.335  20.634  0.00  0.00    +0.000 A 
ATOM     13  C   UNL     1       1.445  11.678  19.388  0.00  0.00    +0.000 A 
ATOM     14  C   UNL     1       1.986  12.359  18.284  0.00  0.00    +0.000 A 
ATOM     15  C   UNL     1       2.599  13.607  18.422  0.00  0.00    +0.000 A 
BRANCH  10  17
ATOM     16  C   UNL     1       4.658  15.482  19.768  0.00  0.00    +0.000 C 
ATOM     17  O   UNL     1       3.240  15.441  19.902  0.00  0.00    +0.000 OA
ENDBRANCH  10  17
ENDBRANCH   1  13
BRANCH   1  18
ATOM     18  C   UNL     1      -0.666  10.489  18.647  0.00  0.00    +0.000 A 
ATOM     19  C   UNL     1      -1.092   9.807  17.494  0.00  0.00    +0.000 A 
ATOM     20  C   UNL     1      -2.305  10.124  16.875  0.00  0.00    +0.000 A 
ATOM     21  C   UNL     1      -3.130  11.118  17.396  0.00  0.00    +0.000 A 
ATOM     22  C   UNL     1      -2.753  11.775  18.560  0.00  0.00    +0.000 A 
ATOM     23  C   UNL     1      -1.537  11.460  19.181  0.00  0.00    +0.000 A 
BRANCH  21  24
ATOM     24  O   UNL     1      -4.238  11.401  16.648  0.00  0.00    +0.000 OA
ATOM     25  C   UNL     1      -5.380  11.834  17.373  0.00  0.00    +0.000 C 
ENDBRANCH  21  24
ENDBRANCH   1  18
BRANCH   5  26
ATOM     26  C   UNL     1       2.773   7.117  18.759  0.00  0.00    +0.000 C 
BRANCH  26  27
ATOM     27  C   UNL     1       1.990   6.115  17.916  0.00  0.00    +0.000 C 
BRANCH  27  28
ATOM     28  C   UNL     1       2.654   4.737  17.849  0.00  0.00    +0.000 C 
BRANCH  28  29
ATOM     29  C   UNL     1       2.493   4.042  19.184  0.00  0.00    +0.000 A 
ATOM     30  C   UNL     1       3.563   3.339  19.754  0.00  0.00    +0.000 A 
ATOM     31  C   UNL     1       3.376   2.590  20.915  0.00  0.00    +0.000 A 
ATOM     32  C   UNL     1       2.123   2.549  21.525  0.00  0.00    +0.000 A 
ATOM     33  C   UNL     1       1.059   3.255  20.978  0.00  0.00    +0.000 A 
ATOM     34  C   UNL     1       1.241   4.000  19.810  0.00  0.00    +0.000 A 
ENDBRANCH  28  29
ENDBRANCH  27  28
ENDBRANCH  26  27
ENDBRANCH   5  26
TORSDOF 8
ENDMDL
MODEL 3
REMARK VINA RESULT:      -8.2      2.311      8.227
REMARK  Name = 
REMARK  10 active torsions:
REMARK  status: ('A' for Active; 'I' for Inactive)
REMARK    1  A    between atoms: C_1  and  O_2
REMARK    2  A    between atoms: O_2  and  C_3
REMARK    3  A    between atoms: C_6  and  C_7
REMARK    4  A    between atoms: C_7  and  C_8
REMARK    5  A    between atoms: C_11  and  O_12
REMARK    6  A    between atoms: O_12  and  C_13
REMARK    7  A    between atoms: N_19  and  C_20
REMARK    8  A    between atoms: C_20  and  C_21
REMARK    9  A    between atoms: C_21  and  C_22
REMARK   10  A    between atoms: C_22  and  C_23
REMARK                            x       y       z     vdW  Elec       q    Type
REMARK                         _______ _______ _______ _____ _____    ______ ____
ROOT
ATOM      1  C   UNL     1       0.860  10.954  18.935  0.00  0.00    +0.000 C 
ATOM      2  N   UNL     1       1.704  11.567  17.916  0.00  0.00    +0.000 N 
ATOM      3  C   UNL     1       2.371  12.642  18.373  0.00  0.00    +0.000 C 
ATOM      4  N   UNL     1       3.176  13.363  17.685  0.00  0.00    +0.000 NA
ATOM      5  N   UNL     1       2.077  12.882  19.670  0.00  0.00    +0.000 N 
ATOM      6  C   UNL     1       1.192  11.932  20.130  0.00  0.00    +0.000 C 
ATOM      7  O   UNL     1       0.762  11.874  21.280  0.00  0.00    +0.000 OA
ATOM      8  H   UNL     1       1.731  11.251  16.965  0.00  0.00    +0.000 HD
ATOM      9  H   UNL     1       3.227  12.994  16.738  0.00  0.00    +0.000 HD
ENDROOT
BRANCH   1  13
ATOM     10  C   UNL     1       2.232   6.875  19.731  0.00  0.00    +0.000 A 
ATOM     11  C   UNL     1       1.541   7.582  20.711  0.00  0.00    +0.000 A 
ATOM     12  C   UNL     1       1.088   8.884  20.463  0.00  0.00    +0.000 A 
ATOM     13  C   UNL     1       1.318   9.511  19.222  0.00  0.00    +0.000 A 
ATOM     14  C   UNL     1       2.063   8.794  18.270  0.00  0.00    +0.000 A 
ATOM     15  C   UNL     1       2.506   7.492  18.516  0.00  0.00    +0.000 A 
BRANCH  10  17
ATOM     16  C   UNL     1       3.864   5.194  19.487  0.00  0.00    +0.000 C 
ATOM     17  O   UNL     1       2.632   5.612  20.071  0.00  0.00    +0.000 OA
ENDBRANCH  10  17
ENDBRANCH   1  13
BRANCH   1  18
ATOM     18  C   UNL     1      -0.613  10.985  18.503  0.00  0.00    +0.000 A 
ATOM     19  C   UNL     1      -1.518  11.917  19.040  0.00  0.00    +0.000 A 
ATOM     20  C   UNL     1      -2.891  11.809  18.799  0.00  0.00    +0.000 A 
ATOM     21  C   UNL     1      -3.397  10.781  18.008  0.00  0.00    +0.000 A 
ATOM     22  C   UNL     1      -2.519   9.874  17.429  0.00  0.00    +0.000 A 
ATOM     23  C   UNL     1      -1.142   9.978  17.669  0.00  0.00    +0.000 A 
BRANCH  21  24
ATOM     24  O   UNL     1      -4.760  10.728  17.929  0.00  0.00    +0.000 OA
ATOM     25  C   UNL     1      -5.383  11.814  17.259  0.00  0.00    +0.000 C 
ENDBRANCH  21  24
ENDBRANCH   1  18
BRANCH   5  26
ATOM     26  C   UNL     1       2.616  13.937  20.520  0.00  0.00    +0.000 C 
BRANCH  26  27
ATOM     27  C   UNL     1       1.745  15.190  20.504  0.00  0.00    +0.000 C 
BRANCH  27  28
ATOM     28  C   UNL     1       2.404  16.371  19.786  0.00  0.00    +0.000 C 
BRANCH  28  29
ATOM     29  C   UNL     1       1.444  16.925  18.756  0.00  0.00    +0.000 A 
ATOM     30  C   UNL     1       1.926  17.572  17.609  0.00  0.00    +0.000 A 
ATOM     31  C   UNL     1       1.044  18.197  16.729  0.00  0.00    +0.000 A 
ATOM     32  C   UNL     1      -0.328  18.170  16.978  0.00  0.00    +0.000 A 
ATOM     33  C   UNL     1      -0.818  17.518  18.103  0.00  0.00    +0.000 A 
ATOM     34  C   UNL     1       0.063  16.897  18.991  0.00  0.00    +0.000 A 
ENDBRANCH  28  29
ENDBRANCH  27  28
ENDBRANCH  26  27
ENDBRANCH   5  26
TORSDOF 8
ENDMDL
MODEL 4
REMARK VINA RESULT:      -8.2      1.490      2.124
REMARK  Name = 
REMARK  10 active torsions:
REMARK  status: ('A' for Active; 'I' for Inactive)
REMARK    1  A    between atoms: C_1  and  O_2
REMARK    2  A    between atoms: O_2  and  C_3
REMARK    3  A    between atoms: C_6  and  C_7
REMARK    4  A    between atoms: C_7  and  C_8
REMARK    5  A    between atoms: C_11  and  O_12
REMARK    6  A    between atoms: O_12  and  C_13
REMARK    7  A    between atoms: N_19  and  C_20
REMARK    8  A    between atoms: C_20  and  C_21
REMARK    9  A    between atoms: C_21  and  C_22
REMARK   10  A    between atoms: C_22  and  C_23
REMARK                            x       y       z     vdW  Elec       q    Type
REMARK                         _______ _______ _______ _____ _____    ______ ____
ROOT
ATOM      1  C   UNL     1      -0.155  11.287  19.686  0.00  0.00    +0.000 C 
ATOM      2  N   UNL     1      -0.616  11.377  21.067  0.00  0.00    +0.000 N 
ATOM      3  C   UNL     1      -0.063  10.442  21.860  0.00  0.00    +0.000 C 
ATOM      4  N   UNL     1      -0.298  10.298  23.111  0.00  0.00    +0.000 NA
ATOM      5  N   UNL     1       0.780   9.648  21.162  0.00  0.00    +0.000 N 
ATOM      6  C   UNL     1       0.825  10.058  19.848  0.00  0.00    +0.000 C 
ATOM      7  O   UNL     1       1.526   9.547  18.979  0.00  0.00    +0.000 OA
ATOM      8  H   UNL     1      -1.315  12.029  21.369  0.00  0.00    +0.000 HD
ATOM      9  H   UNL     1      -0.971  11.001  23.407  0.00  0.00    +0.000 HD
ENDROOT
BRANCH   1  13
ATOM     10  C   UNL     1       1.962  14.961  18.603  0.00  0.00    +0.000 A 
ATOM     11  C   UNL     1       2.455  13.725  18.193  0.00  0.00    +0.000 A 
ATOM     12  C   UNL     1       1.779  12.544  18.525  0.00  0.00    +0.000 A 
ATOM     13  C   UNL     1       0.590  12.574  19.279  0.00  0.00    +0.000 A 
ATOM     14  C   UNL     1       0.144  13.830  19.724  0.00  0.00    +0.000 A 
ATOM     15  C   UNL     1       0.814  15.008  19.385  0.00  0.00    +0.000 A 
BRANCH  10  17
ATOM     16  C   UNL     1       1.940  17.247  18.037  0.00  0.00    +0.000 C 
ATOM     17  O   UNL     1       2.695  16.054  18.229  0.00  0.00    +0.000 OA
ENDBRANCH  10  17
ENDBRANCH   1  13
BRANCH   1  18
ATOM     18  C   UNL     1      -1.334  11.015  18.742  0.00  0.00    +0.000 A 
ATOM     19  C   UNL     1      -1.207  10.159  17.634  0.00  0.00    +0.000 A 
ATOM     20  C   UNL     1      -2.215  10.076  16.668  0.00  0.00    +0.000 A 
ATOM     21  C   UNL     1      -3.378  10.832  16.787  0.00  0.00    +0.000 A 
ATOM     22  C   UNL     1      -3.547  11.651  17.895  0.00  0.00    +0.000 A 
ATOM     23  C   UNL     1      -2.539  11.738  18.865  0.00  0.00    +0.000 A 
BRANCH  21  24
ATOM     24  O   UNL     1      -4.241  10.737  15.731  0.00  0.00    +0.000 OA
ATOM     25  C   UNL     1      -3.719  10.127  14.560  0.00  0.00    +0.000 C 
ENDBRANCH  21  24
ENDBRANCH   1  18
BRANCH   5  26
ATOM     26  C   UNL     1       1.582   8.543  21.674  0.00  0.00    +0.000 C 
BRANCH  26  27
ATOM     27  C   UNL     1       1.207   7.213  21.027  0.00  0.00    +0.000 C 
BRANCH  27  28
ATOM     28  C   UNL     1       2.330   6.625  20.168  0.00  0.00    +0.000 C 
BRANCH  28  29
ATOM     29  C   UNL     1       1.945   5.227  19.735  0.00  0.00    +0.000 A 
ATOM     30  C   UNL     1       2.077   4.835  18.396  0.00  0.00    +0.000 A 
ATOM     31  C   UNL     1       1.600   3.595  17.974  0.00  0.00    +0.000 A 
ATOM     32  C   UNL     1       1.000   2.730  18.888  0.00  0.00    +0.000 A 
ATOM     33  C   UNL     1       0.878   3.101  20.221  0.00  0.00    +0.000 A 
ATOM     34  C   UNL     1       1.348   4.346  20.646  0.00  0.00    +0.000 A 
ENDBRANCH  28  29
ENDBRANCH  27  28
ENDBRANCH  26  27
ENDBRANCH   5  26
TORSDOF 8
ENDMDL
MODEL 5
REMARK VINA RESULT:      -8.2      6.038     10.112
REMARK  Name = 
REMARK  10 active torsions:
REMARK  status: ('A' for Active; 'I' for Inactive)
REMARK    1  A    between atoms: C_1  and  O_2
REMARK    2  A    between atoms: O_2  and  C_3
REMARK    3  A    between atoms: C_6  and  C_7
REMARK    4  A    between atoms: C_7  and  C_8
REMARK    5  A    between atoms: C_11  and  O_12
REMARK    6  A    between atoms: O_12  and  C_13
REMARK    7  A    between atoms: N_19  and  C_20
REMARK    8  A    between atoms: C_20  and  C_21
REMARK    9  A    between atoms: C_21  and  C_22
REMARK   10  A    between atoms: C_22  and  C_23
REMARK                            x       y       z     vdW  Elec       q    Type
REMARK                         _______ _______ _______ _____ _____    ______ ____
ROOT
ATOM      1  C   UNL     1       6.139   5.125  17.602  0.00  0.00    +0.000 C 
ATOM      2  N   UNL     1       7.151   4.527  18.465  0.00  0.00    +0.000 N 
ATOM      3  C   UNL     1       8.003   5.436  18.972  0.00  0.00    +0.000 C 
ATOM      4  N   UNL     1       8.983   5.176  19.755  0.00  0.00    +0.000 NA
ATOM      5  N   UNL     1       7.702   6.680  18.539  0.00  0.00    +0.000 N 
ATOM      6  C   UNL     1       6.596   6.634  17.720  0.00  0.00    +0.000 C 
ATOM      7  O   UNL     1       6.069   7.613  17.198  0.00  0.00    +0.000 OA
ATOM      8  H   UNL     1       7.231   3.538  18.610  0.00  0.00    +0.000 HD
ATOM      9  H   UNL     1       9.015   4.175  19.929  0.00  0.00    +0.000 HD
ENDROOT
BRANCH   1  13
ATOM     10  C   UNL     1       2.109   4.462  19.177  0.00  0.00    +0.000 A 
ATOM     11  C   UNL     1       3.201   3.823  19.760  0.00  0.00    +0.000 A 
ATOM     12  C   UNL     1       4.495   4.037  19.271  0.00  0.00    +0.000 A 
ATOM     13  C   UNL     1       4.729   4.899  18.181  0.00  0.00    +0.000 A 
ATOM     14  C   UNL     1       3.605   5.489  17.578  0.00  0.00    +0.000 A 
ATOM     15  C   UNL     1       2.314   5.282  18.073  0.00  0.00    +0.000 A 
BRANCH  10  17
ATOM     16  C   UNL     1       0.815   2.959  20.446  0.00  0.00    +0.000 C 
ATOM     17  O   UNL     1       0.888   4.187  19.726  0.00  0.00    +0.000 OA
ENDBRANCH  10  17
ENDBRANCH   1  13
BRANCH   1  18
ATOM     18  C   UNL     1       6.243   4.559  16.179  0.00  0.00    +0.000 A 
ATOM     19  C   UNL     1       7.109   5.122  15.225  0.00  0.00    +0.000 A 
ATOM     20  C   UNL     1       7.050   4.736  13.882  0.00  0.00    +0.000 A 
ATOM     21  C   UNL     1       6.139   3.773  13.458  0.00  0.00    +0.000 A 
ATOM     22  C   UNL     1       5.303   3.169  14.389  0.00  0.00    +0.000 A 
ATOM     23  C   UNL     1       5.359   3.555  15.736  0.00  0.00    +0.000 A 
BRANCH  21  24
ATOM     24  O   UNL     1       6.112   3.555  12.109  0.00  0.00    +0.000 OA
ATOM     25  C   UNL     1       4.867   3.128  11.577  0.00  0.00    +0.000 C 
ENDBRANCH  21  24
ENDBRANCH   1  18
BRANCH   5  26
ATOM     26  C   UNL     1       8.377   7.925  18.886  0.00  0.00    +0.000 C 
BRANCH  26  27
ATOM     27  C   UNL     1       8.414   8.905  17.717  0.00  0.00    +0.000 C 
BRANCH  27  28
ATOM     28  C   UNL     1       8.219  10.361  18.146  0.00  0.00    +0.000 C 
BRANCH  28  29
ATOM     29  C   UNL     1       9.521  10.895  18.700  0.00  0.00    +0.000 A 
ATOM     30  C   UNL     1       9.665  11.138  20.073  0.00  0.00    +0.000 A 
ATOM     31  C   UNL     1      10.816  11.753  20.564  0.00  0.00    +0.000 A 
ATOM     32  C   UNL     1      11.839  12.119  19.690  0.00  0.00    +0.000 A 
ATOM     33  C   UNL     1      11.714  11.869  18.329  0.00  0.00    +0.000 A 
ATOM     34  C   UNL     1      10.559  11.260  17.833  0.00  0.00    +0.000 A 
ENDBRANCH  28  29
ENDBRANCH  27  28
ENDBRANCH  26  27
ENDBRANCH   5  26
TORSDOF 8
ENDMDL
MODEL 6
REMARK VINA RESULT:      -8.1      2.293      8.204
REMARK  Name = 
REMARK  10 active torsions:
REMARK  status: ('A' for Active; 'I' for Inactive)
REMARK    1  A    between atoms: C_1  and  O_2
REMARK    2  A    between atoms: O_2  and  C_3
REMARK    3  A    between atoms: C_6  and  C_7
REMARK    4  A    between atoms: C_7  and  C_8
REMARK    5  A    between atoms: C_11  and  O_12
REMARK    6  A    between atoms: O_12  and  C_13
REMARK    7  A    between atoms: N_19  and  C_20
REMARK    8  A    between atoms: C_20  and  C_21
REMARK    9  A    between atoms: C_21  and  C_22
REMARK   10  A    between atoms: C_22  and  C_23
REMARK                            x       y       z     vdW  Elec       q    Type
REMARK                         _______ _______ _______ _____ _____    ______ ____
ROOT
ATOM      1  C   UNL     1       0.702  10.732  19.013  0.00  0.00    +0.000 C 
ATOM      2  N   UNL     1       1.420  11.362  17.911  0.00  0.00    +0.000 N 
ATOM      3  C   UNL     1       2.074  12.476  18.288  0.00  0.00    +0.000 C 
ATOM      4  N   UNL     1       2.777  13.219  17.516  0.00  0.00    +0.000 NA
ATOM      5  N   UNL     1       1.886  12.729  19.602  0.00  0.00    +0.000 N 
ATOM      6  C   UNL     1       1.093  11.750  20.157  0.00  0.00    +0.000 C 
ATOM      7  O   UNL     1       0.773  11.695  21.341  0.00  0.00    +0.000 OA
ATOM      8  H   UNL     1       1.376  11.028  16.967  0.00  0.00    +0.000 HD
ATOM      9  H   UNL     1       2.760  12.834  16.576  0.00  0.00    +0.000 HD
ENDROOT
BRANCH   1  13
ATOM     10  C   UNL     1       2.337   6.740  19.753  0.00  0.00    +0.000 A 
ATOM     11  C   UNL     1       1.623   7.398  20.752  0.00  0.00    +0.000 A 
ATOM     12  C   UNL     1       1.086   8.671  20.521  0.00  0.00    +0.000 A 
ATOM     13  C   UNL     1       1.253   9.318  19.281  0.00  0.00    +0.000 A 
ATOM     14  C   UNL     1       2.023   8.654  18.310  0.00  0.00    +0.000 A 
ATOM     15  C   UNL     1       2.551   7.381  18.538  0.00  0.00    +0.000 A 
BRANCH  10  17
ATOM     16  C   UNL     1       2.626   4.501  19.082  0.00  0.00    +0.000 C 
ATOM     17  O   UNL     1       2.821   5.503  20.077  0.00  0.00    +0.000 OA
ENDBRANCH  10  17
ENDBRANCH   1  13
BRANCH   1  18
ATOM     18  C   UNL     1      -0.803  10.685  18.717  0.00  0.00    +0.000 A 
ATOM     19  C   UNL     1      -1.343   9.774  17.793  0.00  0.00    +0.000 A 
ATOM     20  C   UNL     1      -2.675   9.873  17.377  0.00  0.00    +0.000 A 
ATOM     21  C   UNL     1      -3.505  10.871  17.881  0.00  0.00    +0.000 A 
ATOM     22  C   UNL     1      -3.008  11.755  18.829  0.00  0.00    +0.000 A 
ATOM     23  C   UNL     1      -1.673  11.660  19.246  0.00  0.00    +0.000 A 
BRANCH  21  24
ATOM     24  O   UNL     1      -4.752  10.922  17.325  0.00  0.00    +0.000 OA
ATOM     25  C   UNL     1      -5.325  12.216  17.208  0.00  0.00    +0.000 C 
ENDBRANCH  21  24
ENDBRANCH   1  18
BRANCH   5  26
ATOM     26  C   UNL     1       2.449  13.827  20.381  0.00  0.00    +0.000 C 
BRANCH  26  27
ATOM     27  C   UNL     1       1.661  15.121  20.203  0.00  0.00    +0.000 C 
BRANCH  27  28
ATOM     28  C   UNL     1       2.427  16.186  19.413  0.00  0.00    +0.000 C 
BRANCH  28  29
ATOM     29  C   UNL     1       1.450  16.986  18.580  0.00  0.00    +0.000 A 
ATOM     30  C   UNL     1       0.075  16.933  18.849  0.00  0.00    +0.000 A 
ATOM     31  C   UNL     1      -0.835  17.563  18.001  0.00  0.00    +0.000 A 
ATOM     32  C   UNL     1      -0.379  18.262  16.884  0.00  0.00    +0.000 A 
ATOM     33  C   UNL     1       0.983  18.335  16.617  0.00  0.00    +0.000 A 
ATOM     34  C   UNL     1       1.896  17.699  17.460  0.00  0.00    +0.000 A 
ENDBRANCH  28  29
ENDBRANCH  27  28
ENDBRANCH  26  27
ENDBRANCH   5  26
TORSDOF 8
ENDMDL
MODEL 7
REMARK VINA RESULT:      -8.1      6.066     10.227
REMARK  Name = 
REMARK  10 active torsions:
REMARK  status: ('A' for Active; 'I' for Inactive)
REMARK    1  A    between atoms: C_1  and  O_2
REMARK    2  A    between atoms: O_2  and  C_3
REMARK    3  A    between atoms: C_6  and  C_7
REMARK    4  A    between atoms: C_7  and  C_8
REMARK    5  A    between atoms: C_11  and  O_12
REMARK    6  A    between atoms: O_12  and  C_13
REMARK    7  A    between atoms: N_19  and  C_20
REMARK    8  A    between atoms: C_20  and  C_21
REMARK    9  A    between atoms: C_21  and  C_22
REMARK   10  A    between atoms: C_22  and  C_23
REMARK                            x       y       z     vdW  Elec       q    Type
REMARK                         _______ _______ _______ _____ _____    ______ ____
ROOT
ATOM      1  C   UNL     1       5.970   5.079  17.269  0.00  0.00    +0.000 C 
ATOM      2  N   UNL     1       7.043   4.419  18.004  0.00  0.00    +0.000 N 
ATOM      3  C   UNL     1       7.861   5.291  18.621  0.00  0.00    +0.000 C 
ATOM      4  N   UNL     1       8.880   4.975  19.329  0.00  0.00    +0.000 NA
ATOM      5  N   UNL     1       7.477   6.566  18.389  0.00  0.00    +0.000 N 
ATOM      6  C   UNL     1       6.347   6.577  17.603  0.00  0.00    +0.000 C 
ATOM      7  O   UNL     1       5.749   7.590  17.249  0.00  0.00    +0.000 OA
ATOM      8  H   UNL     1       7.182   3.427  17.995  0.00  0.00    +0.000 HD
ATOM      9  H   UNL     1       8.973   3.963  19.348  0.00  0.00    +0.000 HD
ENDROOT
BRANCH   1  13
ATOM     10  C   UNL     1       2.099   3.950  18.970  0.00  0.00    +0.000 A 
ATOM     11  C   UNL     1       2.229   5.144  18.265  0.00  0.00    +0.000 A 
ATOM     12  C   UNL     1       3.461   5.509  17.707  0.00  0.00    +0.000 A 
ATOM     13  C   UNL     1       4.596   4.685  17.843  0.00  0.00    +0.000 A 
ATOM     14  C   UNL     1       4.448   3.512  18.605  0.00  0.00    +0.000 A 
ATOM     15  C   UNL     1       3.217   3.145  19.153  0.00  0.00    +0.000 A 
BRANCH  10  17
ATOM     16  C   UNL     1       0.849   3.096  20.774  0.00  0.00    +0.000 C 
ATOM     17  O   UNL     1       0.857   3.684  19.476  0.00  0.00    +0.000 OA
ENDBRANCH  10  17
ENDBRANCH   1  13
BRANCH   1  18
ATOM     18  C   UNL     1       6.056   4.741  15.774  0.00  0.00    +0.000 A 
ATOM     19  C   UNL     1       5.130   3.878  15.161  0.00  0.00    +0.000 A 
ATOM     20  C   UNL     1       5.332   3.414  13.857  0.00  0.00    +0.000 A 
ATOM     21  C   UNL     1       6.450   3.807  13.126  0.00  0.00    +0.000 A 
ATOM     22  C   UNL     1       7.355   4.694  13.694  0.00  0.00    +0.000 A 
ATOM     23  C   UNL     1       7.157   5.160  15.001  0.00  0.00    +0.000 A 
BRANCH  21  24
ATOM     24  O   UNL     1       6.583   3.209  11.905  0.00  0.00    +0.000 OA
ATOM     25  C   UNL     1       5.522   2.347  11.520  0.00  0.00    +0.000 C 
ENDBRANCH  21  24
ENDBRANCH   1  18
BRANCH   5  26
ATOM     26  C   UNL     1       8.094   7.783  18.904  0.00  0.00    +0.000 C 
BRANCH  26  27
ATOM     27  C   UNL     1       8.453   8.761  17.790  0.00  0.00    +0.000 C 
BRANCH  27  28
ATOM     28  C   UNL     1       8.212  10.224  18.174  0.00  0.00    +0.000 C 
BRANCH  28  29
ATOM     29  C   UNL     1       9.498  10.817  18.704  0.00  0.00    +0.000 A 
ATOM     30  C   UNL     1       9.659  11.057  20.076  0.00  0.00    +0.000 A 
ATOM     31  C   UNL     1      10.789  11.724  20.548  0.00  0.00    +0.000 A 
ATOM     32  C   UNL     1      11.774  12.145  19.656  0.00  0.00    +0.000 A 
ATOM     33  C   UNL     1      11.633  11.899  18.296  0.00  0.00    +0.000 A 
ATOM     34  C   UNL     1      10.499  11.238  17.819  0.00  0.00    +0.000 A 
ENDBRANCH  28  29
ENDBRANCH  27  28
ENDBRANCH  26  27
ENDBRANCH   5  26
TORSDOF 8
ENDMDL
MODEL 8
REMARK VINA RESULT:      -8.1      1.564      2.328
REMARK  Name = 
REMARK  10 active torsions:
REMARK  status: ('A' for Active; 'I' for Inactive)
REMARK    1  A    between atoms: C_1  and  O_2
REMARK    2  A    between atoms: O_2  and  C_3
REMARK    3  A    between atoms: C_6  and  C_7
REMARK    4  A    between atoms: C_7  and  C_8
REMARK    5  A    between atoms: C_11  and  O_12
REMARK    6  A    between atoms: O_12  and  C_13
REMARK    7  A    between atoms: N_19  and  C_20
REMARK    8  A    between atoms: C_20  and  C_21
REMARK    9  A    between atoms: C_21  and  C_22
REMARK   10  A    between atoms: C_22  and  C_23
REMARK                            x       y       z     vdW  Elec       q    Type
REMARK                         _______ _______ _______ _____ _____    ______ ____
ROOT
ATOM      1  C   UNL     1      -0.456  11.201  19.988  0.00  0.00    +0.000 C 
ATOM      2  N   UNL     1      -0.998  10.933  21.315  0.00  0.00    +0.000 N 
ATOM      3  C   UNL     1      -0.343   9.946  21.953  0.00  0.00    +0.000 C 
ATOM      4  N   UNL     1      -0.618   9.512  23.127  0.00  0.00    +0.000 NA
ATOM      5  N   UNL     1       0.652   9.448  21.187  0.00  0.00    +0.000 N 
ATOM      6  C   UNL     1       0.701  10.124  19.988  0.00  0.00    +0.000 C 
ATOM      7  O   UNL     1       1.520   9.913  19.097  0.00  0.00    +0.000 OA
ATOM      8  H   UNL     1      -1.808  11.397  21.680  0.00  0.00    +0.000 HD
ATOM      9  H   UNL     1      -1.410  10.031  23.497  0.00  0.00    +0.000 HD
ENDROOT
BRANCH   1  13
ATOM     10  C   UNL     1       1.057  15.297  19.690  0.00  0.00    +0.000 A 
ATOM     11  C   UNL     1       0.414  14.873  20.850  0.00  0.00    +0.000 A 
ATOM     12  C   UNL     1      -0.064  13.561  20.960  0.00  0.00    +0.000 A 
ATOM     13  C   UNL     1       0.091  12.639  19.906  0.00  0.00    +0.000 A 
ATOM     14  C   UNL     1       0.696  13.108  18.727  0.00  0.00    +0.000 A 
ATOM     15  C   UNL     1       1.180  14.415  18.622  0.00  0.00    +0.000 A 
BRANCH  10  17
ATOM     16  C   UNL     1       2.530  16.890  20.605  0.00  0.00    +0.000 C 
ATOM     17  O   UNL     1       1.486  16.595  19.680  0.00  0.00    +0.000 OA
ENDBRANCH  10  17
ENDBRANCH   1  13
BRANCH   1  18
ATOM     18  C   UNL     1      -1.524  10.959  18.912  0.00  0.00    +0.000 A 
ATOM     19  C   UNL     1      -1.281  10.123  17.809  0.00  0.00    +0.000 A 
ATOM     20  C   UNL     1      -2.174  10.069  16.734  0.00  0.00    +0.000 A 
ATOM     21  C   UNL     1      -3.337  10.834  16.737  0.00  0.00    +0.000 A 
ATOM     22  C   UNL     1      -3.622  11.635  17.836  0.00  0.00    +0.000 A 
ATOM     23  C   UNL     1      -2.728  11.692  18.914  0.00  0.00    +0.000 A 
BRANCH  21  24
ATOM     24  O   UNL     1      -4.076  10.768  15.590  0.00  0.00    +0.000 OA
ATOM     25  C   UNL     1      -3.426  10.191  14.468  0.00  0.00    +0.000 C 
ENDBRANCH  21  24
ENDBRANCH   1  18
BRANCH   5  26
ATOM     26  C   UNL     1       1.595   8.391  21.537  0.00  0.00    +0.000 C 
BRANCH  26  27
ATOM     27  C   UNL     1       1.234   7.059  20.887  0.00  0.00    +0.000 C 
BRANCH  27  28
ATOM     28  C   UNL     1       2.301   6.558  19.911  0.00  0.00    +0.000 C 
BRANCH  28  29
ATOM     29  C   UNL     1       1.977   5.137  19.506  0.00  0.00    +0.000 A 
ATOM     30  C   UNL     1       2.281   4.677  18.217  0.00  0.00    +0.000 A 
ATOM     31  C   UNL     1       1.864   3.412  17.803  0.00  0.00    +0.000 A 
ATOM     32  C   UNL     1       1.152   2.591  18.676  0.00  0.00    +0.000 A 
ATOM     33  C   UNL     1       0.859   3.031  19.961  0.00  0.00    +0.000 A 
ATOM     34  C   UNL     1       1.268   4.299  20.377  0.00  0.00    +0.000 A 
ENDBRANCH  28  29
ENDBRANCH  27  28
ENDBRANCH  26  27
ENDBRANCH   5  26
TORSDOF 8
ENDMDL
MODEL 9
REMARK VINA RESULT:      -8.0      0.656      1.113
REMARK  Name = 
REMARK  10 active torsions:
REMARK  status: ('A' for Active; 'I' for Inactive)
REMARK    1  A    between atoms: C_1  and  O_2
REMARK    2  A    between atoms: O_2  and  C_3
REMARK    3  A    between atoms: C_6  and  C_7
REMARK    4  A    between atoms: C_7  and  C_8
REMARK    5  A    between atoms: C_11  and  O_12
REMARK    6  A    between atoms: O_12  and  C_13
REMARK    7  A    between atoms: N_19  and  C_20
REMARK    8  A    between atoms: C_20  and  C_21
REMARK    9  A    between atoms: C_21  and  C_22
REMARK   10  A    between atoms: C_22  and  C_23
REMARK                            x       y       z     vdW  Elec       q    Type
REMARK                         _______ _______ _______ _____ _____    ______ ____
ROOT
ATOM      1  C   UNL     1       0.824  10.254  19.146  0.00  0.00    +0.000 C 
ATOM      2  N   UNL     1       0.730   9.589  20.441  0.00  0.00    +0.000 N 
ATOM      3  C   UNL     1       1.402   8.425  20.476  0.00  0.00    +0.000 C 
ATOM      4  N   UNL     1       1.478   7.644  21.490  0.00  0.00    +0.000 NA
ATOM      5  N   UNL     1       1.989   8.166  19.288  0.00  0.00    +0.000 N 
ATOM      6  C   UNL     1       1.732   9.192  18.407  0.00  0.00    +0.000 C 
ATOM      7  O   UNL     1       2.157   9.251  17.256  0.00  0.00    +0.000 OA
ATOM      8  H   UNL     1       0.173   9.940  21.197  0.00  0.00    +0.000 HD
ATOM      9  H   UNL     1       0.949   8.044  22.260  0.00  0.00    +0.000 HD
ENDROOT
BRANCH   1  13
ATOM     10  C   UNL     1       2.857  14.103  19.603  0.00  0.00    +0.000 A 
ATOM     11  C   UNL     1       2.831  13.470  18.362  0.00  0.00    +0.000 A 
ATOM     12  C   UNL     1       2.173  12.244  18.203  0.00  0.00    +0.000 A 
ATOM     13  C   UNL     1       1.525  11.619  19.287  0.00  0.00    +0.000 A 
ATOM     14  C   UNL     1       1.613  12.253  20.538  0.00  0.00    +0.000 A 
ATOM     15  C   UNL     1       2.261  13.481  20.693  0.00  0.00    +0.000 A 
BRANCH  10  17
ATOM     16  C   UNL     1       4.659  15.387  18.797  0.00  0.00    +0.000 C 
ATOM     17  O   UNL     1       3.524  15.295  19.655  0.00  0.00    +0.000 OA
ENDBRANCH  10  17
ENDBRANCH   1  13
BRANCH   1  18
ATOM     18  C   UNL     1      -0.569  10.416  18.522  0.00  0.00    +0.000 A 
ATOM     19  C   UNL     1      -1.001   9.598  17.463  0.00  0.00    +0.000 A 
ATOM     20  C   UNL     1      -2.180   9.882  16.767  0.00  0.00    +0.000 A 
ATOM     21  C   UNL     1      -2.966  10.977  17.117  0.00  0.00    +0.000 A 
ATOM     22  C   UNL     1      -2.585  11.774  18.189  0.00  0.00    +0.000 A 
ATOM     23  C   UNL     1      -1.402  11.493  18.887  0.00  0.00    +0.000 A 
BRANCH  21  24
ATOM     24  O   UNL     1      -4.038  11.204  16.301  0.00  0.00    +0.000 OA
ATOM     25  C   UNL     1      -3.969  10.616  15.011  0.00  0.00    +0.000 C 
ENDBRANCH  21  24
ENDBRANCH   1  18
BRANCH   5  26
ATOM     26  C   UNL     1       2.821   7.018  18.943  0.00  0.00    +0.000 C 
BRANCH  26  27
ATOM     27  C   UNL     1       2.147   6.106  17.922  0.00  0.00    +0.000 C 
BRANCH  27  28
ATOM     28  C   UNL     1       2.751   4.700  17.881  0.00  0.00    +0.000 C 
BRANCH  28  29
ATOM     29  C   UNL     1       2.502   4.012  19.206  0.00  0.00    +0.000 A 
ATOM     30  C   UNL     1       3.551   3.378  19.887  0.00  0.00    +0.000 A 
ATOM     31  C   UNL     1       3.296   2.633  21.038  0.00  0.00    +0.000 A 
ATOM     32  C   UNL     1       1.994   2.526  21.526  0.00  0.00    +0.000 A 
ATOM     33  C   UNL     1       0.950   3.164  20.868  0.00  0.00    +0.000 A 
ATOM     34  C   UNL     1       1.200   3.904  19.711  0.00  0.00    +0.000 A 
ENDBRANCH  28  29
ENDBRANCH  27  28
ENDBRANCH  26  27
ENDBRANCH   5  26
TORSDOF 8
ENDMDL
