MODEL 1
REMARK VINA RESULT:      -9.0      0.000      0.000
REMARK  Name = 
REMARK  5 active torsions:
REMARK  status: ('A' for Active; 'I' for Inactive)
REMARK    1  A    between atoms: C_1  and  C_2
REMARK    2  A    between atoms: C_2  and  C_3
REMARK    3  A    between atoms: C_7  and  O_8
REMARK    4  A    between atoms: C_11  and  C_12
REMARK    5  A    between atoms: C_17  and  O_18
REMARK                            x       y       z     vdW  Elec       q    Type
REMARK                         _______ _______ _______ _____ _____    ______ ____
ROOT
ATOM      1  C   UNL     1       2.941   3.175  20.697  0.00  0.00    +0.000 C 
ATOM      2  C   UNL     1       2.146   3.178  19.384  0.00  0.00    +0.000 C 
ATOM      3  C   UNL     1       0.666   2.911  19.681  0.00  0.00    +0.000 C 
ATOM      4  C   UNL     1       2.683   2.135  18.439  0.00  0.00    +0.000 C 
ATOM      5  C   UNL     1       3.565   2.443  17.480  0.00  0.00    +0.000 C 
ATOM      6  C   UNL     1       4.015   3.835  17.372  0.00  0.00    +0.000 A 
ATOM      7  C   UNL     1       5.114   4.235  16.603  0.00  0.00    +0.000 A 
ATOM      8  C   UNL     1       5.456   5.583  16.493  0.00  0.00    +0.000 A 
ATOM      9  C   UNL     1       4.688   6.560  17.127  0.00  0.00    +0.000 A 
ATOM     10  C   UNL     1       3.565   6.205  17.887  0.00  0.00    +0.000 A 
ATOM     11  C   UNL     1       3.267   4.830  18.033  0.00  0.00    +0.000 A 
ATOM     12  O   UNL     1       2.187   4.501  18.823  0.00  0.00    +0.000 OA
ENDROOT
BRANCH  10  13
ATOM     13  C   UNL     1       2.694   7.240  18.448  0.00  0.00    +0.000 A 
ATOM     14  C   UNL     1       2.057   8.338  17.902  0.00  0.00    +0.000 A 
ATOM     15  C   UNL     1       1.378   8.998  18.948  0.00  0.00    +0.000 A 
ATOM     16  C   UNL     1       0.576  10.147  19.043  0.00  0.00    +0.000 A 
ATOM     17  C   UNL     1       0.070  10.514  20.294  0.00  0.00    +0.000 A 
ATOM     18  C   UNL     1       0.361   9.746  21.422  0.00  0.00    +0.000 A 
ATOM     19  C   UNL     1       1.151   8.596  21.357  0.00  0.00    +0.000 A 
ATOM     20  C   UNL     1       1.642   8.261  20.095  0.00  0.00    +0.000 A 
ATOM     21  O   UNL     1       2.443   7.194  19.797  0.00  0.00    +0.000 OA
BRANCH  18  22
ATOM     22  O   UNL     1      -0.127  10.104  22.648  0.00  0.00    +0.000 OA
ATOM     23  H   UNL     1      -0.058  11.067  22.744  0.00  0.00    +0.000 HD
ENDBRANCH  18  22
ENDBRANCH  10  13
BRANCH   7  24
ATOM     24  O   UNL     1       5.922   3.369  15.920  0.00  0.00    +0.000 OA
ATOM     25  H   UNL     1       6.630   3.865  15.481  0.00  0.00    +0.000 HD
ENDBRANCH   7  24
TORSDOF 3
ENDMDL
MODEL 2
REMARK VINA RESULT:      -8.6      1.109      1.573
REMARK  Name = 
REMARK  5 active torsions:
REMARK  status: ('A' for Active; 'I' for Inactive)
REMARK    1  A    between atoms: C_1  and  C_2
REMARK    2  A    between atoms: C_2  and  C_3
REMARK    3  A    between atoms: C_7  and  O_8
REMARK    4  A    between atoms: C_11  and  C_12
REMARK    5  A    between atoms: C_17  and  O_18
REMARK                            x       y       z     vdW  Elec       q    Type
REMARK                         _______ _______ _______ _____ _____    ______ ____
ROOT
ATOM      1  C   UNL     1       2.951   3.023  20.709  0.00  0.00    +0.000 C 
ATOM      2  C   UNL     1       2.150   3.081  19.401  0.00  0.00    +0.000 C 
ATOM      3  C   UNL     1       0.669   2.814  19.695  0.00  0.00    +0.000 C 
ATOM      4  C   UNL     1       2.674   2.070  18.415  0.00  0.00    +0.000 C 
ATOM      5  C   UNL     1       3.554   2.405  17.464  0.00  0.00    +0.000 C 
ATOM      6  C   UNL     1       4.015   3.797  17.405  0.00  0.00    +0.000 A 
ATOM      7  C   UNL     1       5.113   4.216  16.646  0.00  0.00    +0.000 A 
ATOM      8  C   UNL     1       5.466   5.564  16.583  0.00  0.00    +0.000 A 
ATOM      9  C   UNL     1       4.708   6.524  17.257  0.00  0.00    +0.000 A 
ATOM     10  C   UNL     1       3.586   6.150  18.008  0.00  0.00    +0.000 A 
ATOM     11  C   UNL     1       3.277   4.773  18.106  0.00  0.00    +0.000 A 
ATOM     12  O   UNL     1       2.199   4.424  18.888  0.00  0.00    +0.000 OA
ENDROOT
BRANCH  10  13
ATOM     13  C   UNL     1       2.726   7.170  18.611  0.00  0.00    +0.000 A 
ATOM     14  C   UNL     1       2.223   7.349  19.885  0.00  0.00    +0.000 A 
ATOM     15  C   UNL     1       1.414   8.505  19.864  0.00  0.00    +0.000 A 
ATOM     16  C   UNL     1       0.638   9.194  20.811  0.00  0.00    +0.000 A 
ATOM     17  C   UNL     1      -0.063  10.334  20.406  0.00  0.00    +0.000 A 
ATOM     18  C   UNL     1       0.013  10.773  19.084  0.00  0.00    +0.000 A 
ATOM     19  C   UNL     1       0.779  10.111  18.121  0.00  0.00    +0.000 A 
ATOM     20  C   UNL     1       1.463   8.976  18.558  0.00  0.00    +0.000 A 
ATOM     21  O   UNL     1       2.256   8.167  17.793  0.00  0.00    +0.000 OA
BRANCH  18  22
ATOM     22  O   UNL     1      -0.676  11.884  18.682  0.00  0.00    +0.000 OA
ATOM     23  H   UNL     1      -1.262  11.641  17.948  0.00  0.00    +0.000 HD
ENDBRANCH  18  22
ENDBRANCH  10  13
BRANCH   7  24
ATOM     24  O   UNL     1       5.912   3.369  15.928  0.00  0.00    +0.000 OA
ATOM     25  H   UNL     1       6.516   2.907  16.529  0.00  0.00    +0.000 HD
ENDBRANCH   7  24
TORSDOF 3
ENDMDL
MODEL 3
REMARK VINA RESULT:      -8.3      1.415      3.268
REMARK  Name = 
REMARK  5 active torsions:
REMARK  status: ('A' for Active; 'I' for Inactive)
REMARK    1  A    between atoms: C_1  and  C_2
REMARK    2  A    between atoms: C_2  and  C_3
REMARK    3  A    between atoms: C_7  and  O_8
REMARK    4  A    between atoms: C_11  and  C_12
REMARK    5  A    between atoms: C_17  and  O_18
REMARK                            x       y       z     vdW  Elec       q    Type
REMARK                         _______ _______ _______ _____ _____    ______ ____
ROOT
ATOM      1  C   UNL     1       5.600   6.586  15.460  0.00  0.00    +0.000 C 
ATOM      2  C   UNL     1       6.016   6.345  16.918  0.00  0.00    +0.000 C 
ATOM      3  C   UNL     1       6.980   7.450  17.365  0.00  0.00    +0.000 C 
ATOM      4  C   UNL     1       6.669   4.995  17.065  0.00  0.00    +0.000 C 
ATOM      5  C   UNL     1       5.979   3.921  17.467  0.00  0.00    +0.000 C 
ATOM      6  C   UNL     1       4.550   4.082  17.756  0.00  0.00    +0.000 A 
ATOM      7  C   UNL     1       3.669   3.007  17.923  0.00  0.00    +0.000 A 
ATOM      8  C   UNL     1       2.332   3.225  18.256  0.00  0.00    +0.000 A 
ATOM      9  C   UNL     1       1.856   4.522  18.457  0.00  0.00    +0.000 A 
ATOM     10  C   UNL     1       2.711   5.625  18.323  0.00  0.00    +0.000 A 
ATOM     11  C   UNL     1       4.049   5.388  17.930  0.00  0.00    +0.000 A 
ATOM     12  O   UNL     1       4.858   6.489  17.758  0.00  0.00    +0.000 OA
ENDROOT
BRANCH  10  13
ATOM     13  C   UNL     1       2.238   6.971  18.653  0.00  0.00    +0.000 A 
ATOM     14  C   UNL     1       2.088   8.128  17.912  0.00  0.00    +0.000 A 
ATOM     15  C   UNL     1       1.619   9.132  18.784  0.00  0.00    +0.000 A 
ATOM     16  C   UNL     1       1.287  10.491  18.650  0.00  0.00    +0.000 A 
ATOM     17  C   UNL     1       0.856  11.194  19.779  0.00  0.00    +0.000 A 
ATOM     18  C   UNL     1       0.760  10.550  21.014  0.00  0.00    +0.000 A 
ATOM     19  C   UNL     1       1.079   9.200  21.177  0.00  0.00    +0.000 A 
ATOM     20  C   UNL     1       1.509   8.529  20.031  0.00  0.00    +0.000 A 
ATOM     21  O   UNL     1       1.886   7.218  19.956  0.00  0.00    +0.000 OA
BRANCH  18  22
ATOM     22  O   UNL     1       0.345  11.235  22.121  0.00  0.00    +0.000 OA
ATOM     23  H   UNL     1      -0.554  10.948  22.349  0.00  0.00    +0.000 HD
ENDBRANCH  18  22
ENDBRANCH  10  13
BRANCH   7  24
ATOM     24  O   UNL     1       4.029   1.696  17.776  0.00  0.00    +0.000 OA
ATOM     25  H   UNL     1       4.994   1.620  17.817  0.00  0.00    +0.000 HD
ENDBRANCH   7  24
TORSDOF 3
ENDMDL
MODEL 4
REMARK VINA RESULT:      -8.0      1.780      3.610
REMARK  Name = 
REMARK  5 active torsions:
REMARK  status: ('A' for Active; 'I' for Inactive)
REMARK    1  A    between atoms: C_1  and  C_2
REMARK    2  A    between atoms: C_2  and  C_3
REMARK    3  A    between atoms: C_7  and  O_8
REMARK    4  A    between atoms: C_11  and  C_12
REMARK    5  A    between atoms: C_17  and  O_18
REMARK                            x       y       z     vdW  Elec       q    Type
REMARK                         _______ _______ _______ _____ _____    ______ ____
ROOT
ATOM      1  C   UNL     1       5.279   6.550  15.535  0.00  0.00    +0.000 C 
ATOM      2  C   UNL     1       5.838   6.272  16.937  0.00  0.00    +0.000 C 
ATOM      3  C   UNL     1       6.825   7.380  17.323  0.00  0.00    +0.000 C 
ATOM      4  C   UNL     1       6.521   4.930  16.978  0.00  0.00    +0.000 C 
ATOM      5  C   UNL     1       5.889   3.832  17.411  0.00  0.00    +0.000 C 
ATOM      6  C   UNL     1       4.493   3.961  17.843  0.00  0.00    +0.000 A 
ATOM      7  C   UNL     1       3.648   2.866  18.061  0.00  0.00    +0.000 A 
ATOM      8  C   UNL     1       2.347   3.051  18.529  0.00  0.00    +0.000 A 
ATOM      9  C   UNL     1       1.875   4.333  18.815  0.00  0.00    +0.000 A 
ATOM     10  C   UNL     1       2.696   5.454  18.634  0.00  0.00    +0.000 A 
ATOM     11  C   UNL     1       3.993   5.252  18.105  0.00  0.00    +0.000 A 
ATOM     12  O   UNL     1       4.766   6.371  17.890  0.00  0.00    +0.000 OA
ENDROOT
BRANCH  10  13
ATOM     13  C   UNL     1       2.239   6.782  19.049  0.00  0.00    +0.000 A 
ATOM     14  C   UNL     1       1.834   7.305  20.262  0.00  0.00    +0.000 A 
ATOM     15  C   UNL     1       1.466   8.649  20.043  0.00  0.00    +0.000 A 
ATOM     16  C   UNL     1       0.977   9.691  20.849  0.00  0.00    +0.000 A 
ATOM     17  C   UNL     1       0.703  10.928  20.258  0.00  0.00    +0.000 A 
ATOM     18  C   UNL     1       0.916  11.116  18.891  0.00  0.00    +0.000 A 
ATOM     19  C   UNL     1       1.405  10.101  18.066  0.00  0.00    +0.000 A 
ATOM     20  C   UNL     1       1.665   8.879  18.688  0.00  0.00    +0.000 A 
ATOM     21  O   UNL     1       2.131   7.747  18.080  0.00  0.00    +0.000 OA
BRANCH  18  22
ATOM     22  O   UNL     1       0.644  12.323  18.308  0.00  0.00    +0.000 OA
ATOM     23  H   UNL     1       1.267  12.466  17.577  0.00  0.00    +0.000 HD
ENDBRANCH  18  22
ENDBRANCH  10  13
BRANCH   7  24
ATOM     24  O   UNL     1       4.010   1.566  17.838  0.00  0.00    +0.000 OA
ATOM     25  H   UNL     1       3.549   0.991  18.468  0.00  0.00    +0.000 HD
ENDBRANCH   7  24
TORSDOF 3
ENDMDL
MODEL 5
REMARK VINA RESULT:      -7.8      1.709      3.415
REMARK  Name = 
REMARK  5 active torsions:
REMARK  status: ('A' for Active; 'I' for Inactive)
REMARK    1  A    between atoms: C_1  and  C_2
REMARK    2  A    between atoms: C_2  and  C_3
REMARK    3  A    between atoms: C_7  and  O_8
REMARK    4  A    between atoms: C_11  and  C_12
REMARK    5  A    between atoms: C_17  and  O_18
REMARK                            x       y       z     vdW  Elec       q    Type
REMARK                         _______ _______ _______ _____ _____    ______ ____
ROOT
ATOM      1  C   UNL     1       5.242   6.045  15.914  0.00  0.00    +0.000 C 
ATOM      2  C   UNL     1       5.899   6.322  17.274  0.00  0.00    +0.000 C 
ATOM      3  C   UNL     1       6.691   7.632  17.202  0.00  0.00    +0.000 C 
ATOM      4  C   UNL     1       6.807   5.186  17.664  0.00  0.00    +0.000 C 
ATOM      5  C   UNL     1       6.396   4.203  18.475  0.00  0.00    +0.000 C 
ATOM      6  C   UNL     1       5.017   4.248  18.975  0.00  0.00    +0.000 A 
ATOM      7  C   UNL     1       4.387   3.166  19.601  0.00  0.00    +0.000 A 
ATOM      8  C   UNL     1       3.094   3.290  20.109  0.00  0.00    +0.000 A 
ATOM      9  C   UNL     1       2.417   4.508  20.027  0.00  0.00    +0.000 A 
ATOM     10  C   UNL     1       3.021   5.623  19.430  0.00  0.00    +0.000 A 
ATOM     11  C   UNL     1       4.310   5.463  18.870  0.00  0.00    +0.000 A 
ATOM     12  O   UNL     1       4.866   6.558  18.246  0.00  0.00    +0.000 OA
ENDROOT
BRANCH  10  13
ATOM     13  C   UNL     1       2.355   6.927  19.455  0.00  0.00    +0.000 A 
ATOM     14  C   UNL     1       2.084   7.868  18.480  0.00  0.00    +0.000 A 
ATOM     15  C   UNL     1       1.444   8.957  19.109  0.00  0.00    +0.000 A 
ATOM     16  C   UNL     1       0.937  10.195  18.680  0.00  0.00    +0.000 A 
ATOM     17  C   UNL     1       0.364  11.053  19.625  0.00  0.00    +0.000 A 
ATOM     18  C   UNL     1       0.301  10.676  20.967  0.00  0.00    +0.000 A 
ATOM     19  C   UNL     1       0.793   9.451  21.422  0.00  0.00    +0.000 A 
ATOM     20  C   UNL     1       1.360   8.621  20.454  0.00  0.00    +0.000 A 
ATOM     21  O   UNL     1       1.915   7.391  20.669  0.00  0.00    +0.000 OA
BRANCH  18  22
ATOM     22  O   UNL     1      -0.253  11.513  21.895  0.00  0.00    +0.000 OA
ATOM     23  H   UNL     1      -0.799  12.172  21.437  0.00  0.00    +0.000 HD
ENDBRANCH  18  22
ENDBRANCH  10  13
BRANCH   7  24
ATOM     24  O   UNL     1       4.962   1.935  19.759  0.00  0.00    +0.000 OA
ATOM     25  H   UNL     1       5.858   2.041  20.113  0.00  0.00    +0.000 HD
ENDBRANCH   7  24
TORSDOF 3
ENDMDL
MODEL 6
REMARK VINA RESULT:      -7.8      2.029      6.641
REMARK  Name = 
REMARK  5 active torsions:
REMARK  status: ('A' for Active; 'I' for Inactive)
REMARK    1  A    between atoms: C_1  and  C_2
REMARK    2  A    between atoms: C_2  and  C_3
REMARK    3  A    between atoms: C_7  and  O_8
REMARK    4  A    between atoms: C_11  and  C_12
REMARK    5  A    between atoms: C_17  and  O_18
REMARK                            x       y       z     vdW  Elec       q    Type
REMARK                         _______ _______ _______ _____ _____    ______ ____
ROOT
ATOM      1  C   UNL     1       1.899   2.346  18.448  0.00  0.00    +0.000 C 
ATOM      2  C   UNL     1       3.062   2.790  19.346  0.00  0.00    +0.000 C 
ATOM      3  C   UNL     1       4.054   1.632  19.508  0.00  0.00    +0.000 C 
ATOM      4  C   UNL     1       2.552   3.230  20.693  0.00  0.00    +0.000 C 
ATOM      5  C   UNL     1       2.325   4.519  20.973  0.00  0.00    +0.000 C 
ATOM      6  C   UNL     1       2.575   5.511  19.921  0.00  0.00    +0.000 A 
ATOM      7  C   UNL     1       2.134   6.838  19.989  0.00  0.00    +0.000 A 
ATOM      8  C   UNL     1       2.456   7.750  18.984  0.00  0.00    +0.000 A 
ATOM      9  C   UNL     1       3.250   7.359  17.905  0.00  0.00    +0.000 A 
ATOM     10  C   UNL     1       3.733   6.047  17.811  0.00  0.00    +0.000 A 
ATOM     11  C   UNL     1       3.350   5.122  18.809  0.00  0.00    +0.000 A 
ATOM     12  O   UNL     1       3.796   3.826  18.672  0.00  0.00    +0.000 OA
ENDROOT
BRANCH  10  13
ATOM     13  C   UNL     1       4.664   5.676  16.742  0.00  0.00    +0.000 A 
ATOM     14  C   UNL     1       5.910   6.141  16.371  0.00  0.00    +0.000 A 
ATOM     15  C   UNL     1       6.310   5.418  15.227  0.00  0.00    +0.000 A 
ATOM     16  C   UNL     1       7.439   5.425  14.391  0.00  0.00    +0.000 A 
ATOM     17  C   UNL     1       7.477   4.544  13.305  0.00  0.00    +0.000 A 
ATOM     18  C   UNL     1       6.410   3.678  13.065  0.00  0.00    +0.000 A 
ATOM     19  C   UNL     1       5.277   3.647  13.881  0.00  0.00    +0.000 A 
ATOM     20  C   UNL     1       5.270   4.540  14.953  0.00  0.00    +0.000 A 
ATOM     21  O   UNL     1       4.267   4.695  15.868  0.00  0.00    +0.000 OA
BRANCH  18  22
ATOM     22  O   UNL     1       6.441   2.820  12.001  0.00  0.00    +0.000 OA
ATOM     23  H   UNL     1       7.043   2.087  12.206  0.00  0.00    +0.000 HD
ENDBRANCH  18  22
ENDBRANCH  10  13
BRANCH   7  24
ATOM     24  O   UNL     1       1.372   7.337  21.010  0.00  0.00    +0.000 OA
ATOM     25  H   UNL     1       0.461   7.458  20.702  0.00  0.00    +0.000 HD
ENDBRANCH   7  24
TORSDOF 3
ENDMDL
MODEL 7
REMARK VINA RESULT:      -7.1      2.025      3.764
REMARK  Name = 
REMARK  5 active torsions:
REMARK  status: ('A' for Active; 'I' for Inactive)
REMARK    1  A    between atoms: C_1  and  C_2
REMARK    2  A    between atoms: C_2  and  C_3
REMARK    3  A    between atoms: C_7  and  O_8
REMARK    4  A    between atoms: C_11  and  C_12
REMARK    5  A    between atoms: C_17  and  O_18
REMARK                            x       y       z     vdW  Elec       q    Type
REMARK                         _______ _______ _______ _____ _____    ______ ____
ROOT
ATOM      1  C   UNL     1       4.568   5.894  16.448  0.00  0.00    +0.000 C 
ATOM      2  C   UNL     1       5.272   6.021  17.805  0.00  0.00    +0.000 C 
ATOM      3  C   UNL     1       6.288   7.168  17.750  0.00  0.00    +0.000 C 
ATOM      4  C   UNL     1       5.963   4.733  18.166  0.00  0.00    +0.000 C 
ATOM      5  C   UNL     1       5.386   3.824  18.963  0.00  0.00    +0.000 C 
ATOM      6  C   UNL     1       4.041   4.107  19.477  0.00  0.00    +0.000 A 
ATOM      7  C   UNL     1       3.230   3.145  20.089  0.00  0.00    +0.000 A 
ATOM      8  C   UNL     1       1.984   3.490  20.612  0.00  0.00    +0.000 A 
ATOM      9  C   UNL     1       1.537   4.812  20.559  0.00  0.00    +0.000 A 
ATOM     10  C   UNL     1       2.329   5.811  19.976  0.00  0.00    +0.000 A 
ATOM     11  C   UNL     1       3.564   5.431  19.401  0.00  0.00    +0.000 A 
ATOM     12  O   UNL     1       4.304   6.420  18.792  0.00  0.00    +0.000 OA
ENDROOT
BRANCH  10  13
ATOM     13  C   UNL     1       1.910   7.213  20.031  0.00  0.00    +0.000 A 
ATOM     14  C   UNL     1       1.355   7.995  21.026  0.00  0.00    +0.000 A 
ATOM     15  C   UNL     1       1.128   9.276  20.481  0.00  0.00    +0.000 A 
ATOM     16  C   UNL     1       0.593  10.482  20.964  0.00  0.00    +0.000 A 
ATOM     17  C   UNL     1       0.510  11.577  20.098  0.00  0.00    +0.000 A 
ATOM     18  C   UNL     1       0.953  11.465  18.780  0.00  0.00    +0.000 A 
ATOM     19  C   UNL     1       1.492  10.281  18.273  0.00  0.00    +0.000 A 
ATOM     20  C   UNL     1       1.558   9.207  19.162  0.00  0.00    +0.000 A 
ATOM     21  O   UNL     1       2.031   7.956  18.884  0.00  0.00    +0.000 OA
BRANCH  18  22
ATOM     22  O   UNL     1       0.868  12.531  17.928  0.00  0.00    +0.000 OA
ATOM     23  H   UNL     1       0.163  12.362  17.283  0.00  0.00    +0.000 HD
ENDBRANCH  18  22
ENDBRANCH  10  13
BRANCH   7  24
ATOM     24  O   UNL     1       3.574   1.828  20.219  0.00  0.00    +0.000 OA
ATOM     25  H   UNL     1       3.722   1.445  19.342  0.00  0.00    +0.000 HD
ENDBRANCH   7  24
TORSDOF 3
ENDMDL
MODEL 8
REMARK VINA RESULT:      -7.0      2.073      6.481
REMARK  Name = 
REMARK  5 active torsions:
REMARK  status: ('A' for Active; 'I' for Inactive)
REMARK    1  A    between atoms: C_1  and  C_2
REMARK    2  A    between atoms: C_2  and  C_3
REMARK    3  A    between atoms: C_7  and  O_8
REMARK    4  A    between atoms: C_11  and  C_12
REMARK    5  A    between atoms: C_17  and  O_18
REMARK                            x       y       z     vdW  Elec       q    Type
REMARK                         _______ _______ _______ _____ _____    ______ ____
ROOT
ATOM      1  C   UNL     1       1.656   2.154  19.032  0.00  0.00    +0.000 C 
ATOM      2  C   UNL     1       2.895   2.642  19.795  0.00  0.00    +0.000 C 
ATOM      3  C   UNL     1       3.903   1.494  19.922  0.00  0.00    +0.000 C 
ATOM      4  C   UNL     1       2.511   3.149  21.160  0.00  0.00    +0.000 C 
ATOM      5  C   UNL     1       2.305   4.451  21.394  0.00  0.00    +0.000 C 
ATOM      6  C   UNL     1       2.453   5.389  20.276  0.00  0.00    +0.000 A 
ATOM      7  C   UNL     1       2.015   6.718  20.318  0.00  0.00    +0.000 A 
ATOM      8  C   UNL     1       2.239   7.578  19.243  0.00  0.00    +0.000 A 
ATOM      9  C   UNL     1       2.931   7.133  18.116  0.00  0.00    +0.000 A 
ATOM     10  C   UNL     1       3.408   5.818  18.043  0.00  0.00    +0.000 A 
ATOM     11  C   UNL     1       3.123   4.945  19.118  0.00  0.00    +0.000 A 
ATOM     12  O   UNL     1       3.560   3.643  19.004  0.00  0.00    +0.000 OA
ENDROOT
BRANCH  10  13
ATOM     13  C   UNL     1       4.237   5.393  16.912  0.00  0.00    +0.000 A 
ATOM     14  C   UNL     1       4.207   4.291  16.080  0.00  0.00    +0.000 A 
ATOM     15  C   UNL     1       5.292   4.406  15.185  0.00  0.00    +0.000 A 
ATOM     16  C   UNL     1       5.798   3.627  14.131  0.00  0.00    +0.000 A 
ATOM     17  C   UNL     1       6.942   4.067  13.457  0.00  0.00    +0.000 A 
ATOM     18  C   UNL     1       7.563   5.260  13.832  0.00  0.00    +0.000 A 
ATOM     19  C   UNL     1       7.080   6.056  14.873  0.00  0.00    +0.000 A 
ATOM     20  C   UNL     1       5.940   5.586  15.526  0.00  0.00    +0.000 A 
ATOM     21  O   UNL     1       5.305   6.188  16.575  0.00  0.00    +0.000 OA
BRANCH  18  22
ATOM     22  O   UNL     1       8.685   5.691  13.181  0.00  0.00    +0.000 OA
ATOM     23  H   UNL     1       9.341   5.971  13.838  0.00  0.00    +0.000 HD
ENDBRANCH  18  22
ENDBRANCH  10  13
BRANCH   7  24
ATOM     24  O   UNL     1       1.349   7.268  21.378  0.00  0.00    +0.000 OA
ATOM     25  H   UNL     1       1.985   7.685  21.979  0.00  0.00    +0.000 HD
ENDBRANCH   7  24
TORSDOF 3
ENDMDL
MODEL 9
REMARK VINA RESULT:      -6.9      8.390     10.052
REMARK  Name = 
REMARK  5 active torsions:
REMARK  status: ('A' for Active; 'I' for Inactive)
REMARK    1  A    between atoms: C_1  and  C_2
REMARK    2  A    between atoms: C_2  and  C_3
REMARK    3  A    between atoms: C_7  and  O_8
REMARK    4  A    between atoms: C_11  and  C_12
REMARK    5  A    between atoms: C_17  and  O_18
REMARK                            x       y       z     vdW  Elec       q    Type
REMARK                         _______ _______ _______ _____ _____    ______ ____
ROOT
ATOM      1  C   UNL     1      10.234  11.788  20.240  0.00  0.00    +0.000 C 
ATOM      2  C   UNL     1       9.738  11.676  18.792  0.00  0.00    +0.000 C 
ATOM      3  C   UNL     1       8.902  10.399  18.634  0.00  0.00    +0.000 C 
ATOM      4  C   UNL     1      10.900  11.657  17.834  0.00  0.00    +0.000 C 
ATOM      5  C   UNL     1      11.322  12.768  17.218  0.00  0.00    +0.000 C 
ATOM      6  C   UNL     1      10.625  14.027  17.505  0.00  0.00    +0.000 A 
ATOM      7  C   UNL     1      11.122  15.285  17.143  0.00  0.00    +0.000 A 
ATOM      8  C   UNL     1      10.384  16.442  17.391  0.00  0.00    +0.000 A 
ATOM      9  C   UNL     1       9.121  16.361  17.981  0.00  0.00    +0.000 A 
ATOM     10  C   UNL     1       8.577  15.120  18.336  0.00  0.00    +0.000 A 
ATOM     11  C   UNL     1       9.363  13.963  18.129  0.00  0.00    +0.000 A 
ATOM     12  O   UNL     1       8.828  12.758  18.529  0.00  0.00    +0.000 OA
ENDROOT
BRANCH  10  13
ATOM     13  C   UNL     1       7.205  15.031  18.842  0.00  0.00    +0.000 A 
ATOM     14  C   UNL     1       6.663  15.051  20.112  0.00  0.00    +0.000 A 
ATOM     15  C   UNL     1       5.268  14.889  19.981  0.00  0.00    +0.000 A 
ATOM     16  C   UNL     1       4.186  14.818  20.875  0.00  0.00    +0.000 A 
ATOM     17  C   UNL     1       2.899  14.631  20.361  0.00  0.00    +0.000 A 
ATOM     18  C   UNL     1       2.701  14.518  18.984  0.00  0.00    +0.000 A 
ATOM     19  C   UNL     1       3.756  14.588  18.072  0.00  0.00    +0.000 A 
ATOM     20  C   UNL     1       5.028  14.773  18.618  0.00  0.00    +0.000 A 
ATOM     21  O   UNL     1       6.201  14.855  17.922  0.00  0.00    +0.000 OA
BRANCH  18  22
ATOM     22  O   UNL     1       1.446  14.329  18.478  0.00  0.00    +0.000 OA
ATOM     23  H   UNL     1       0.937  13.780  19.097  0.00  0.00    +0.000 HD
ENDBRANCH  18  22
ENDBRANCH  10  13
BRANCH   7  24
ATOM     24  O   UNL     1      12.333  15.482  16.539  0.00  0.00    +0.000 OA
ATOM     25  H   UNL     1      12.491  14.775  15.895  0.00  0.00    +0.000 HD
ENDBRANCH   7  24
TORSDOF 3
ENDMDL
