MODEL 1
REMARK VINA RESULT:      -7.3      0.000      0.000
REMARK  Name = 
REMARK  7 active torsions:
REMARK  status: ('A' for Active; 'I' for Inactive)
REMARK    1  A    between atoms: C_1  and  C_2
REMARK    2  A    between atoms: C_2  and  O_3
REMARK    3  A    between atoms: O_3  and  C_4
REMARK    4  A    between atoms: C_4  and  C_6
REMARK    5  A    between atoms: C_7  and  C_8
REMARK    6  A    between atoms: C_11  and  C_12
REMARK    7  A    between atoms: C_21  and  C_22
REMARK                            x       y       z     vdW  Elec       q    Type
REMARK                         _______ _______ _______ _____ _____    ______ ____
ROOT
ATOM      1  C   UNL     1       6.385   4.787  15.871  0.00  0.00    +0.000 A 
ATOM      2  C   UNL     1       5.040   4.315  15.960  0.00  0.00    +0.000 A 
ATOM      3  N   UNL     1       4.589   3.983  14.739  0.00  0.00    +0.000 NA
ATOM      4  O   UNL     1       5.618   4.218  13.857  0.00  0.00    +0.000 OA
ATOM      5  C   UNL     1       6.684   4.712  14.525  0.00  0.00    +0.000 A 
ATOM      6  C   UNL     1       7.896   4.998  13.731  0.00  0.00    +0.000 C 
ENDROOT
BRANCH   2   7
ATOM      7  C   UNL     1       4.180   4.248  17.148  0.00  0.00    +0.000 A 
ATOM      8  N   UNL     1       3.866   2.976  17.533  0.00  0.00    +0.000 NA
ATOM      9  C   UNL     1       3.108   2.812  18.643  0.00  0.00    +0.000 A 
ATOM     10  C   UNL     1       2.651   3.858  19.424  0.00  0.00    +0.000 A 
ATOM     11  C   UNL     1       2.979   5.157  19.017  0.00  0.00    +0.000 A 
ATOM     12  C   UNL     1       3.741   5.366  17.863  0.00  0.00    +0.000 A 
ATOM     13 CL   UNL     1       4.028   7.003  17.403  0.00  0.00    +0.000 Cl
BRANCH  10  14
ATOM     14  C   UNL     1       1.846   3.604  20.662  0.00  0.00    +0.000 C 
ATOM     15  F   UNL     1       0.590   4.124  20.610  0.00  0.00    +0.000 F 
ATOM     16  F   UNL     1       1.692   2.277  20.915  0.00  0.00    +0.000 F 
ATOM     17  F   UNL     1       2.424   4.133  21.774  0.00  0.00    +0.000 F 
ENDBRANCH  10  14
ENDBRANCH   2   7
BRANCH   1  18
ATOM     18  C   UNL     1       7.323   5.199  16.881  0.00  0.00    +0.000 C 
ATOM     19  O   UNL     1       7.696   4.464  17.790  0.00  0.00    +0.000 OA
BRANCH  18  20
ATOM     20  O   UNL     1       7.596   6.535  16.819  0.00  0.00    +0.000 OA
BRANCH  20  22
ATOM     21  C   UNL     1       8.021   8.655  17.827  0.00  0.00    +0.000 C 
ATOM     22  C   UNL     1       7.786   7.177  18.083  0.00  0.00    +0.000 C 
ENDBRANCH  20  22
ENDBRANCH  18  20
ENDBRANCH   1  18
TORSDOF 5
ENDMDL
MODEL 2
REMARK VINA RESULT:      -7.0      0.848      1.435
REMARK  Name = 
REMARK  7 active torsions:
REMARK  status: ('A' for Active; 'I' for Inactive)
REMARK    1  A    between atoms: C_1  and  C_2
REMARK    2  A    between atoms: C_2  and  O_3
REMARK    3  A    between atoms: O_3  and  C_4
REMARK    4  A    between atoms: C_4  and  C_6
REMARK    5  A    between atoms: C_7  and  C_8
REMARK    6  A    between atoms: C_11  and  C_12
REMARK    7  A    between atoms: C_21  and  C_22
REMARK                            x       y       z     vdW  Elec       q    Type
REMARK                         _______ _______ _______ _____ _____    ______ ____
ROOT
ATOM      1  C   UNL     1       6.321   5.095  15.750  0.00  0.00    +0.000 A 
ATOM      2  C   UNL     1       5.088   4.393  15.909  0.00  0.00    +0.000 A 
ATOM      3  N   UNL     1       4.761   3.775  14.762  0.00  0.00    +0.000 NA
ATOM      4  O   UNL     1       5.764   4.050  13.861  0.00  0.00    +0.000 OA
ATOM      5  C   UNL     1       6.688   4.849  14.442  0.00  0.00    +0.000 A 
ATOM      6  C   UNL     1       7.856   5.223  13.621  0.00  0.00    +0.000 C 
ENDROOT
BRANCH   2   7
ATOM      7  C   UNL     1       4.205   4.366  17.082  0.00  0.00    +0.000 A 
ATOM      8  N   UNL     1       3.988   3.114  17.583  0.00  0.00    +0.000 NA
ATOM      9  C   UNL     1       3.218   2.992  18.689  0.00  0.00    +0.000 A 
ATOM     10  C   UNL     1       2.655   4.064  19.357  0.00  0.00    +0.000 A 
ATOM     11  C   UNL     1       2.884   5.342  18.833  0.00  0.00    +0.000 A 
ATOM     12  C   UNL     1       3.656   5.505  17.678  0.00  0.00    +0.000 A 
ATOM     13 CL   UNL     1       3.819   7.110  17.067  0.00  0.00    +0.000 Cl
BRANCH  10  14
ATOM     14  C   UNL     1       1.842   3.861  20.599  0.00  0.00    +0.000 C 
ATOM     15  F   UNL     1       2.356   4.484  21.693  0.00  0.00    +0.000 F 
ATOM     16  F   UNL     1       0.571   4.327  20.465  0.00  0.00    +0.000 F 
ATOM     17  F   UNL     1       1.727   2.548  20.935  0.00  0.00    +0.000 F 
ENDBRANCH  10  14
ENDBRANCH   2   7
BRANCH   1  18
ATOM     18  C   UNL     1       7.120   5.849  16.680  0.00  0.00    +0.000 C 
ATOM     19  O   UNL     1       7.279   7.063  16.598  0.00  0.00    +0.000 OA
BRANCH  18  20
ATOM     20  O   UNL     1       7.818   5.044  17.532  0.00  0.00    +0.000 OA
BRANCH  20  22
ATOM     21  C   UNL     1       6.589   5.393  19.547  0.00  0.00    +0.000 C 
ATOM     22  C   UNL     1       7.942   5.535  18.870  0.00  0.00    +0.000 C 
ENDBRANCH  20  22
ENDBRANCH  18  20
ENDBRANCH   1  18
TORSDOF 5
ENDMDL
MODEL 3
REMARK VINA RESULT:      -7.0      4.303      5.992
REMARK  Name = 
REMARK  7 active torsions:
REMARK  status: ('A' for Active; 'I' for Inactive)
REMARK    1  A    between atoms: C_1  and  C_2
REMARK    2  A    between atoms: C_2  and  O_3
REMARK    3  A    between atoms: O_3  and  C_4
REMARK    4  A    between atoms: C_4  and  C_6
REMARK    5  A    between atoms: C_7  and  C_8
REMARK    6  A    between atoms: C_11  and  C_12
REMARK    7  A    between atoms: C_21  and  C_22
REMARK                            x       y       z     vdW  Elec       q    Type
REMARK                         _______ _______ _______ _____ _____    ______ ____
ROOT
ATOM      1  C   UNL     1       3.270   3.721  18.826  0.00  0.00    +0.000 A 
ATOM      2  C   UNL     1       3.865   5.016  18.928  0.00  0.00    +0.000 A 
ATOM      3  N   UNL     1       5.146   4.901  19.317  0.00  0.00    +0.000 NA
ATOM      4  O   UNL     1       5.401   3.557  19.459  0.00  0.00    +0.000 OA
ATOM      5  C   UNL     1       4.281   2.851  19.182  0.00  0.00    +0.000 A 
ATOM      6  C   UNL     1       4.384   1.381  19.258  0.00  0.00    +0.000 C 
ENDROOT
BRANCH   2   7
ATOM      7  C   UNL     1       3.227   6.323  18.738  0.00  0.00    +0.000 A 
ATOM      8  N   UNL     1       2.342   6.657  19.724  0.00  0.00    +0.000 NA
ATOM      9  C   UNL     1       1.733   7.864  19.655  0.00  0.00    +0.000 A 
ATOM     10  C   UNL     1       1.969   8.790  18.656  0.00  0.00    +0.000 A 
ATOM     11  C   UNL     1       2.877   8.435  17.651  0.00  0.00    +0.000 A 
ATOM     12  C   UNL     1       3.509   7.188  17.677  0.00  0.00    +0.000 A 
ATOM     13 CL   UNL     1       4.553   6.814  16.355  0.00  0.00    +0.000 Cl
BRANCH  10  14
ATOM     14  C   UNL     1       1.286  10.124  18.661  0.00  0.00    +0.000 C 
ATOM     15  F   UNL     1       0.121  10.139  17.960  0.00  0.00    +0.000 F 
ATOM     16  F   UNL     1       0.974  10.540  19.917  0.00  0.00    +0.000 F 
ATOM     17  F   UNL     1       2.060  11.104  18.122  0.00  0.00    +0.000 F 
ENDBRANCH  10  14
ENDBRANCH   2   7
BRANCH   1  18
ATOM     18  C   UNL     1       1.963   3.300  18.396  0.00  0.00    +0.000 C 
ATOM     19  O   UNL     1       1.457   3.659  17.337  0.00  0.00    +0.000 OA
BRANCH  18  20
ATOM     20  O   UNL     1       1.291   2.623  19.372  0.00  0.00    +0.000 OA
BRANCH  20  22
ATOM     21  C   UNL     1       1.478   2.657  21.750  0.00  0.00    +0.000 C 
ATOM     22  C   UNL     1       0.957   3.395  20.529  0.00  0.00    +0.000 C 
ENDBRANCH  20  22
ENDBRANCH  18  20
ENDBRANCH   1  18
TORSDOF 5
ENDMDL
MODEL 4
REMARK VINA RESULT:      -6.9      0.760      1.308
REMARK  Name = 
REMARK  7 active torsions:
REMARK  status: ('A' for Active; 'I' for Inactive)
REMARK    1  A    between atoms: C_1  and  C_2
REMARK    2  A    between atoms: C_2  and  O_3
REMARK    3  A    between atoms: O_3  and  C_4
REMARK    4  A    between atoms: C_4  and  C_6
REMARK    5  A    between atoms: C_7  and  C_8
REMARK    6  A    between atoms: C_11  and  C_12
REMARK    7  A    between atoms: C_21  and  C_22
REMARK                            x       y       z     vdW  Elec       q    Type
REMARK                         _______ _______ _______ _____ _____    ______ ____
ROOT
ATOM      1  C   UNL     1       6.315   4.661  15.884  0.00  0.00    +0.000 A 
ATOM      2  C   UNL     1       4.974   4.217  16.094  0.00  0.00    +0.000 A 
ATOM      3  N   UNL     1       4.382   3.973  14.912  0.00  0.00    +0.000 NA
ATOM      4  O   UNL     1       5.315   4.239  13.937  0.00  0.00    +0.000 OA
ATOM      5  C   UNL     1       6.463   4.664  14.512  0.00  0.00    +0.000 A 
ATOM      6  C   UNL     1       7.589   4.969  13.606  0.00  0.00    +0.000 C 
ENDROOT
BRANCH   2   7
ATOM      7  C   UNL     1       4.247   4.096  17.363  0.00  0.00    +0.000 A 
ATOM      8  N   UNL     1       4.092   2.809  17.793  0.00  0.00    +0.000 NA
ATOM      9  C   UNL     1       3.468   2.600  18.976  0.00  0.00    +0.000 A 
ATOM     10  C   UNL     1       2.997   3.615  19.788  0.00  0.00    +0.000 A 
ATOM     11  C   UNL     1       3.161   4.930  19.335  0.00  0.00    +0.000 A 
ATOM     12  C   UNL     1       3.781   5.184  18.107  0.00  0.00    +0.000 A 
ATOM     13 CL   UNL     1       3.868   6.831  17.602  0.00  0.00    +0.000 Cl
BRANCH  10  14
ATOM     14  C   UNL     1       2.347   3.315  21.104  0.00  0.00    +0.000 C 
ATOM     15  F   UNL     1       2.980   2.342  21.813  0.00  0.00    +0.000 F 
ATOM     16  F   UNL     1       2.302   4.404  21.917  0.00  0.00    +0.000 F 
ATOM     17  F   UNL     1       1.059   2.898  20.963  0.00  0.00    +0.000 F 
ENDBRANCH  10  14
ENDBRANCH   2   7
BRANCH   1  18
ATOM     18  C   UNL     1       7.370   4.986  16.807  0.00  0.00    +0.000 C 
ATOM     19  O   UNL     1       8.192   4.165  17.203  0.00  0.00    +0.000 OA
BRANCH  18  20
ATOM     20  O   UNL     1       7.236   6.242  17.324  0.00  0.00    +0.000 OA
BRANCH  20  22
ATOM     21  C   UNL     1       7.118   5.626  19.626  0.00  0.00    +0.000 C 
ATOM     22  C   UNL     1       7.866   6.449  18.592  0.00  0.00    +0.000 C 
ENDBRANCH  20  22
ENDBRANCH  18  20
ENDBRANCH   1  18
TORSDOF 5
ENDMDL
MODEL 5
REMARK VINA RESULT:      -6.8      1.542      1.982
REMARK  Name = 
REMARK  7 active torsions:
REMARK  status: ('A' for Active; 'I' for Inactive)
REMARK    1  A    between atoms: C_1  and  C_2
REMARK    2  A    between atoms: C_2  and  O_3
REMARK    3  A    between atoms: O_3  and  C_4
REMARK    4  A    between atoms: C_4  and  C_6
REMARK    5  A    between atoms: C_7  and  C_8
REMARK    6  A    between atoms: C_11  and  C_12
REMARK    7  A    between atoms: C_21  and  C_22
REMARK                            x       y       z     vdW  Elec       q    Type
REMARK                         _______ _______ _______ _____ _____    ______ ____
ROOT
ATOM      1  C   UNL     1       5.606   5.242  15.699  0.00  0.00    +0.000 A 
ATOM      2  C   UNL     1       5.133   4.083  16.386  0.00  0.00    +0.000 A 
ATOM      3  N   UNL     1       5.689   2.979  15.859  0.00  0.00    +0.000 NA
ATOM      4  O   UNL     1       6.525   3.397  14.850  0.00  0.00    +0.000 OA
ATOM      5  C   UNL     1       6.467   4.744  14.741  0.00  0.00    +0.000 A 
ATOM      6  C   UNL     1       7.329   5.369  13.719  0.00  0.00    +0.000 C 
ENDROOT
BRANCH   2   7
ATOM      7  C   UNL     1       4.131   4.010  17.456  0.00  0.00    +0.000 A 
ATOM      8  N   UNL     1       2.899   3.598  17.035  0.00  0.00    +0.000 NA
ATOM      9  C   UNL     1       1.919   3.462  17.959  0.00  0.00    +0.000 A 
ATOM     10  C   UNL     1       2.097   3.695  19.310  0.00  0.00    +0.000 A 
ATOM     11  C   UNL     1       3.365   4.117  19.729  0.00  0.00    +0.000 A 
ATOM     12  C   UNL     1       4.396   4.290  18.800  0.00  0.00    +0.000 A 
ATOM     13 CL   UNL     1       5.899   4.885  19.403  0.00  0.00    +0.000 Cl
BRANCH  10  14
ATOM     14  C   UNL     1       0.978   3.490  20.285  0.00  0.00    +0.000 C 
ATOM     15  F   UNL     1       1.371   2.909  21.450  0.00  0.00    +0.000 F 
ATOM     16  F   UNL     1       0.377   4.659  20.633  0.00  0.00    +0.000 F 
ATOM     17  F   UNL     1      -0.007   2.696  19.783  0.00  0.00    +0.000 F 
ENDBRANCH  10  14
ENDBRANCH   2   7
BRANCH   1  18
ATOM     18  C   UNL     1       5.369   6.645  15.914  0.00  0.00    +0.000 C 
ATOM     19  O   UNL     1       4.874   7.380  15.066  0.00  0.00    +0.000 OA
BRANCH  18  20
ATOM     20  O   UNL     1       5.923   7.090  17.080  0.00  0.00    +0.000 OA
BRANCH  20  22
ATOM     21  C   UNL     1       7.827   8.398  17.679  0.00  0.00    +0.000 C 
ATOM     22  C   UNL     1       7.353   7.067  17.121  0.00  0.00    +0.000 C 
ENDBRANCH  20  22
ENDBRANCH  18  20
ENDBRANCH   1  18
TORSDOF 5
ENDMDL
MODEL 6
REMARK VINA RESULT:      -6.8      1.482      1.935
REMARK  Name = 
REMARK  7 active torsions:
REMARK  status: ('A' for Active; 'I' for Inactive)
REMARK    1  A    between atoms: C_1  and  C_2
REMARK    2  A    between atoms: C_2  and  O_3
REMARK    3  A    between atoms: O_3  and  C_4
REMARK    4  A    between atoms: C_4  and  C_6
REMARK    5  A    between atoms: C_7  and  C_8
REMARK    6  A    between atoms: C_11  and  C_12
REMARK    7  A    between atoms: C_21  and  C_22
REMARK                            x       y       z     vdW  Elec       q    Type
REMARK                         _______ _______ _______ _____ _____    ______ ____
ROOT
ATOM      1  C   UNL     1       6.337   4.816  15.773  0.00  0.00    +0.000 A 
ATOM      2  C   UNL     1       4.979   4.420  15.969  0.00  0.00    +0.000 A 
ATOM      3  N   UNL     1       4.436   4.048  14.797  0.00  0.00    +0.000 NA
ATOM      4  O   UNL     1       5.418   4.182  13.843  0.00  0.00    +0.000 OA
ATOM      5  C   UNL     1       6.548   4.654  14.418  0.00  0.00    +0.000 A 
ATOM      6  C   UNL     1       7.719   4.833  13.538  0.00  0.00    +0.000 C 
ENDROOT
BRANCH   2   7
ATOM      7  C   UNL     1       4.193   4.461  17.208  0.00  0.00    +0.000 A 
ATOM      8  N   UNL     1       3.903   5.724  17.638  0.00  0.00    +0.000 NA
ATOM      9  C   UNL     1       3.147   5.863  18.753  0.00  0.00    +0.000 A 
ATOM     10  C   UNL     1       2.632   4.799  19.471  0.00  0.00    +0.000 A 
ATOM     11  C   UNL     1       2.938   3.510  19.020  0.00  0.00    +0.000 A 
ATOM     12  C   UNL     1       3.735   3.327  17.885  0.00  0.00    +0.000 A 
ATOM     13 CL   UNL     1       4.118   1.701  17.453  0.00  0.00    +0.000 Cl
BRANCH  10  14
ATOM     14  C   UNL     1       1.773   5.024  20.677  0.00  0.00    +0.000 C 
ATOM     15  F   UNL     1       2.307   4.529  21.826  0.00  0.00    +0.000 F 
ATOM     16  F   UNL     1       1.543   6.345  20.909  0.00  0.00    +0.000 F 
ATOM     17  F   UNL     1       0.547   4.446  20.555  0.00  0.00    +0.000 F 
ENDBRANCH  10  14
ENDBRANCH   2   7
BRANCH   1  18
ATOM     18  C   UNL     1       7.356   5.231  16.700  0.00  0.00    +0.000 C 
ATOM     19  O   UNL     1       7.763   4.519  17.613  0.00  0.00    +0.000 OA
BRANCH  18  20
ATOM     20  O   UNL     1       7.672   6.551  16.564  0.00  0.00    +0.000 OA
BRANCH  20  22
ATOM     21  C   UNL     1       8.019   8.588  17.757  0.00  0.00    +0.000 C 
ATOM     22  C   UNL     1       7.072   7.423  17.527  0.00  0.00    +0.000 C 
ENDBRANCH  20  22
ENDBRANCH  18  20
ENDBRANCH   1  18
TORSDOF 5
ENDMDL
MODEL 7
REMARK VINA RESULT:      -6.7      3.944      5.547
REMARK  Name = 
REMARK  7 active torsions:
REMARK  status: ('A' for Active; 'I' for Inactive)
REMARK    1  A    between atoms: C_1  and  C_2
REMARK    2  A    between atoms: C_2  and  O_3
REMARK    3  A    between atoms: O_3  and  C_4
REMARK    4  A    between atoms: C_4  and  C_6
REMARK    5  A    between atoms: C_7  and  C_8
REMARK    6  A    between atoms: C_11  and  C_12
REMARK    7  A    between atoms: C_21  and  C_22
REMARK                            x       y       z     vdW  Elec       q    Type
REMARK                         _______ _______ _______ _____ _____    ______ ____
ROOT
ATOM      1  C   UNL     1       3.088   5.243  17.792  0.00  0.00    +0.000 A 
ATOM      2  C   UNL     1       3.232   6.584  18.264  0.00  0.00    +0.000 A 
ATOM      3  N   UNL     1       4.382   7.108  17.808  0.00  0.00    +0.000 NA
ATOM      4  O   UNL     1       4.984   6.140  17.039  0.00  0.00    +0.000 OA
ATOM      5  C   UNL     1       4.223   5.021  17.040  0.00  0.00    +0.000 A 
ATOM      6  C   UNL     1       4.710   3.883  16.235  0.00  0.00    +0.000 C 
ENDROOT
BRANCH   2   7
ATOM      7  C   UNL     1       2.352   7.323  19.176  0.00  0.00    +0.000 A 
ATOM      8  N   UNL     1       2.111   6.680  20.357  0.00  0.00    +0.000 NA
ATOM      9  C   UNL     1       1.340   7.302  21.279  0.00  0.00    +0.000 A 
ATOM     10  C   UNL     1       0.799   8.563  21.106  0.00  0.00    +0.000 A 
ATOM     11  C   UNL     1       1.053   9.211  19.891  0.00  0.00    +0.000 A 
ATOM     12  C   UNL     1       1.826   8.590  18.905  0.00  0.00    +0.000 A 
ATOM     13 CL   UNL     1       2.018   9.436  17.414  0.00  0.00    +0.000 Cl
BRANCH  10  14
ATOM     14  C   UNL     1      -0.016   9.210  22.184  0.00  0.00    +0.000 C 
ATOM     15  F   UNL     1      -1.072   8.456  22.593  0.00  0.00    +0.000 F 
ATOM     16  F   UNL     1       0.716   9.466  23.301  0.00  0.00    +0.000 F 
ATOM     17  F   UNL     1      -0.537  10.405  21.794  0.00  0.00    +0.000 F 
ENDBRANCH  10  14
ENDBRANCH   2   7
BRANCH   1  18
ATOM     18  C   UNL     1       2.024   4.286  17.942  0.00  0.00    +0.000 C 
ATOM     19  O   UNL     1       1.017   4.286  17.241  0.00  0.00    +0.000 OA
BRANCH  18  20
ATOM     20  O   UNL     1       2.177   3.513  19.057  0.00  0.00    +0.000 OA
BRANCH  20  22
ATOM     21  C   UNL     1       1.435   2.993  21.264  0.00  0.00    +0.000 C 
ATOM     22  C   UNL     1       1.000   3.356  19.855  0.00  0.00    +0.000 C 
ENDBRANCH  20  22
ENDBRANCH  18  20
ENDBRANCH   1  18
TORSDOF 5
ENDMDL
MODEL 8
REMARK VINA RESULT:      -6.6      1.727      2.212
REMARK  Name = 
REMARK  7 active torsions:
REMARK  status: ('A' for Active; 'I' for Inactive)
REMARK    1  A    between atoms: C_1  and  C_2
REMARK    2  A    between atoms: C_2  and  O_3
REMARK    3  A    between atoms: O_3  and  C_4
REMARK    4  A    between atoms: C_4  and  C_6
REMARK    5  A    between atoms: C_7  and  C_8
REMARK    6  A    between atoms: C_11  and  C_12
REMARK    7  A    between atoms: C_21  and  C_22
REMARK                            x       y       z     vdW  Elec       q    Type
REMARK                         _______ _______ _______ _____ _____    ______ ____
ROOT
ATOM      1  C   UNL     1       5.780   5.285  15.835  0.00  0.00    +0.000 A 
ATOM      2  C   UNL     1       5.189   4.087  16.342  0.00  0.00    +0.000 A 
ATOM      3  N   UNL     1       5.615   3.030  15.631  0.00  0.00    +0.000 NA
ATOM      4  O   UNL     1       6.482   3.514  14.679  0.00  0.00    +0.000 OA
ATOM      5  C   UNL     1       6.571   4.859  14.787  0.00  0.00    +0.000 A 
ATOM      6  C   UNL     1       7.486   5.544  13.854  0.00  0.00    +0.000 C 
ENDROOT
BRANCH   2   7
ATOM      7  C   UNL     1       4.196   3.950  17.414  0.00  0.00    +0.000 A 
ATOM      8  N   UNL     1       2.986   3.476  16.991  0.00  0.00    +0.000 NA
ATOM      9  C   UNL     1       2.018   3.279  17.917  0.00  0.00    +0.000 A 
ATOM     10  C   UNL     1       2.187   3.508  19.270  0.00  0.00    +0.000 A 
ATOM     11  C   UNL     1       3.431   3.995  19.689  0.00  0.00    +0.000 A 
ATOM     12  C   UNL     1       4.448   4.232  18.759  0.00  0.00    +0.000 A 
ATOM     13 CL   UNL     1       5.919   4.903  19.364  0.00  0.00    +0.000 Cl
BRANCH  10  14
ATOM     14  C   UNL     1       1.083   3.234  20.245  0.00  0.00    +0.000 C 
ATOM     15  F   UNL     1       0.034   2.558  19.703  0.00  0.00    +0.000 F 
ATOM     16  F   UNL     1       1.502   2.490  21.303  0.00  0.00    +0.000 F 
ATOM     17  F   UNL     1       0.561   4.376  20.771  0.00  0.00    +0.000 F 
ENDBRANCH  10  14
ENDBRANCH   2   7
BRANCH   1  18
ATOM     18  C   UNL     1       5.700   6.652  16.277  0.00  0.00    +0.000 C 
ATOM     19  O   UNL     1       6.664   7.276  16.708  0.00  0.00    +0.000 OA
BRANCH  18  20
ATOM     20  O   UNL     1       4.412   7.101  16.336  0.00  0.00    +0.000 OA
BRANCH  20  22
ATOM     21  C   UNL     1       2.590   7.229  17.872  0.00  0.00    +0.000 C 
ATOM     22  C   UNL     1       4.020   7.660  17.594  0.00  0.00    +0.000 C 
ENDBRANCH  20  22
ENDBRANCH  18  20
ENDBRANCH   1  18
TORSDOF 5
ENDMDL
MODEL 9
REMARK VINA RESULT:      -6.6      1.696      2.121
REMARK  Name = 
REMARK  7 active torsions:
REMARK  status: ('A' for Active; 'I' for Inactive)
REMARK    1  A    between atoms: C_1  and  C_2
REMARK    2  A    between atoms: C_2  and  O_3
REMARK    3  A    between atoms: O_3  and  C_4
REMARK    4  A    between atoms: C_4  and  C_6
REMARK    5  A    between atoms: C_7  and  C_8
REMARK    6  A    between atoms: C_11  and  C_12
REMARK    7  A    between atoms: C_21  and  C_22
REMARK                            x       y       z     vdW  Elec       q    Type
REMARK                         _______ _______ _______ _____ _____    ______ ____
ROOT
ATOM      1  C   UNL     1       6.311   5.095  15.721  0.00  0.00    +0.000 A 
ATOM      2  C   UNL     1       5.019   4.528  15.948  0.00  0.00    +0.000 A 
ATOM      3  N   UNL     1       4.561   3.965  14.818  0.00  0.00    +0.000 NA
ATOM      4  O   UNL     1       5.534   4.141  13.861  0.00  0.00    +0.000 OA
ATOM      5  C   UNL     1       6.572   4.828  14.392  0.00  0.00    +0.000 A 
ATOM      6  C   UNL     1       7.724   5.083  13.505  0.00  0.00    +0.000 C 
ENDROOT
BRANCH   2   7
ATOM      7  C   UNL     1       4.209   4.582  17.170  0.00  0.00    +0.000 A 
ATOM      8  N   UNL     1       3.878   5.848  17.561  0.00  0.00    +0.000 NA
ATOM      9  C   UNL     1       3.098   5.996  18.657  0.00  0.00    +0.000 A 
ATOM     10  C   UNL     1       2.597   4.939  19.395  0.00  0.00    +0.000 A 
ATOM     11  C   UNL     1       2.945   3.647  18.984  0.00  0.00    +0.000 A 
ATOM     12  C   UNL     1       3.767   3.455  17.869  0.00  0.00    +0.000 A 
ATOM     13 CL   UNL     1       4.201   1.829  17.489  0.00  0.00    +0.000 Cl
BRANCH  10  14
ATOM     14  C   UNL     1       1.708   5.174  20.578  0.00  0.00    +0.000 C 
ATOM     15  F   UNL     1       1.413   6.485  20.785  0.00  0.00    +0.000 F 
ATOM     16  F   UNL     1       0.514   4.535  20.461  0.00  0.00    +0.000 F 
ATOM     17  F   UNL     1       2.262   4.727  21.738  0.00  0.00    +0.000 F 
ENDBRANCH  10  14
ENDBRANCH   2   7
BRANCH   1  18
ATOM     18  C   UNL     1       7.240   5.745  16.607  0.00  0.00    +0.000 C 
ATOM     19  O   UNL     1       7.600   6.909  16.465  0.00  0.00    +0.000 OA
BRANCH  18  20
ATOM     20  O   UNL     1       7.806   4.873  17.492  0.00  0.00    +0.000 OA
BRANCH  20  22
ATOM     21  C   UNL     1       6.687   5.410  19.529  0.00  0.00    +0.000 C 
ATOM     22  C   UNL     1       8.022   5.395  18.806  0.00  0.00    +0.000 C 
ENDBRANCH  20  22
ENDBRANCH  18  20
ENDBRANCH   1  18
TORSDOF 5
ENDMDL
