MODEL 1
REMARK VINA RESULT:      -8.0      0.000      0.000
REMARK  Name = 
REMARK  9 active torsions:
REMARK  status: ('A' for Active; 'I' for Inactive)
REMARK    1  A    between atoms: C_1  and  C_2
REMARK    2  A    between atoms: C_4  and  O_5
REMARK    3  A    between atoms: O_5  and  C_6
REMARK    4  A    between atoms: C_6  and  C_7
REMARK    5  A    between atoms: C_7  and  C_8
REMARK    6  A    between atoms: C_8  and  C_9
REMARK    7  A    between atoms: C_10  and  C_11
REMARK    8  A    between atoms: C_11  and  O_13
REMARK    9  A    between atoms: C_22  and  C_23
REMARK                            x       y       z     vdW  Elec       q    Type
REMARK                         _______ _______ _______ _____ _____    ______ ____
ROOT
ATOM      1  C   UNL     1       2.819   7.234  18.652  0.00  0.00    +0.000 C 
ENDROOT
BRANCH   1   2
ATOM      2  C   UNL     1       3.230   5.889  18.083  0.00  0.00    +0.000 A 
ATOM      3  C   UNL     1       4.303   5.656  17.228  0.00  0.00    +0.000 A 
ATOM      4  S   UNL     1       4.441   3.996  16.833  0.00  0.00    +0.000 S 
ATOM      5  C   UNL     1       3.104   3.551  17.799  0.00  0.00    +0.000 A 
ATOM      6  C   UNL     1       2.598   2.248  17.982  0.00  0.00    +0.000 A 
ATOM      7  C   UNL     1       1.498   2.062  18.818  0.00  0.00    +0.000 A 
ATOM      8  C   UNL     1       0.913   3.141  19.461  0.00  0.00    +0.000 A 
ATOM      9  C   UNL     1       1.420   4.431  19.273  0.00  0.00    +0.000 A 
ATOM     10  C   UNL     1       2.535   4.658  18.424  0.00  0.00    +0.000 A 
BRANCH   3  11
ATOM     11  C   UNL     1       5.262   6.613  16.682  0.00  0.00    +0.000 C 
ATOM     12  O   UNL     1       6.119   7.208  17.316  0.00  0.00    +0.000 OA
BRANCH  11  13
ATOM     13  O   UNL     1       5.120   6.805  15.339  0.00  0.00    +0.000 OA
ATOM     14  H   UNL     1       5.913   6.518  14.848  0.00  0.00    +0.000 HD
ENDBRANCH  11  13
ENDBRANCH   3  11
ENDBRANCH   1   2
BRANCH   1  15
ATOM     15  C   UNL     1       2.360   8.183  17.546  0.00  0.00    +0.000 C 
BRANCH  15  16
ATOM     16  C   UNL     1       1.959   9.558  18.066  0.00  0.00    +0.000 C 
BRANCH  16  17
ATOM     17  O   UNL     1       0.543   9.528  18.284  0.00  0.00    +0.000 OA
BRANCH  17  21
ATOM     18  C   UNL     1       0.012   9.482  23.202  0.00  0.00    +0.000 C 
ATOM     19  C   UNL     1      -0.242  10.126  21.867  0.00  0.00    +0.000 A 
ATOM     20  C   UNL     1       0.278   9.507  20.719  0.00  0.00    +0.000 A 
ATOM     21  C   UNL     1       0.078  10.054  19.455  0.00  0.00    +0.000 A 
ATOM     22  C   UNL     1      -0.652  11.239  19.332  0.00  0.00    +0.000 A 
ATOM     23  C   UNL     1      -1.188  11.886  20.459  0.00  0.00    +0.000 A 
ATOM     24  C   UNL     1      -1.969  13.159  20.274  0.00  0.00    +0.000 C 
ATOM     25  C   UNL     1      -0.974  11.320  21.730  0.00  0.00    +0.000 A 
ATOM     26 CL   UNL     1      -1.618  12.097  23.141  0.00  0.00    +0.000 Cl
ENDBRANCH  17  21
ENDBRANCH  16  17
ENDBRANCH  15  16
ENDBRANCH   1  15
TORSDOF 7
ENDMDL
MODEL 2
REMARK VINA RESULT:      -8.0      0.184      1.743
REMARK  Name = 
REMARK  9 active torsions:
REMARK  status: ('A' for Active; 'I' for Inactive)
REMARK    1  A    between atoms: C_1  and  C_2
REMARK    2  A    between atoms: C_4  and  O_5
REMARK    3  A    between atoms: O_5  and  C_6
REMARK    4  A    between atoms: C_6  and  C_7
REMARK    5  A    between atoms: C_7  and  C_8
REMARK    6  A    between atoms: C_8  and  C_9
REMARK    7  A    between atoms: C_10  and  C_11
REMARK    8  A    between atoms: C_11  and  O_13
REMARK    9  A    between atoms: C_22  and  C_23
REMARK                            x       y       z     vdW  Elec       q    Type
REMARK                         _______ _______ _______ _____ _____    ______ ____
ROOT
ATOM      1  C   UNL     1       2.888   7.182  18.660  0.00  0.00    +0.000 C 
ENDROOT
BRANCH   1   2
ATOM      2  C   UNL     1       3.288   5.851  18.054  0.00  0.00    +0.000 A 
ATOM      3  C   UNL     1       4.350   5.636  17.180  0.00  0.00    +0.000 A 
ATOM      4  S   UNL     1       4.478   3.985  16.745  0.00  0.00    +0.000 S 
ATOM      5  C   UNL     1       3.153   3.520  17.717  0.00  0.00    +0.000 A 
ATOM      6  C   UNL     1       2.647   2.214  17.876  0.00  0.00    +0.000 A 
ATOM      7  C   UNL     1       1.557   2.011  18.722  0.00  0.00    +0.000 A 
ATOM      8  C   UNL     1       0.983   3.076  19.398  0.00  0.00    +0.000 A 
ATOM      9  C   UNL     1       1.491   4.369  19.233  0.00  0.00    +0.000 A 
ATOM     10  C   UNL     1       2.595   4.613  18.375  0.00  0.00    +0.000 A 
BRANCH   3  11
ATOM     11  C   UNL     1       5.304   6.603  16.645  0.00  0.00    +0.000 C 
ATOM     12  O   UNL     1       6.160   7.193  17.284  0.00  0.00    +0.000 OA
BRANCH  11  13
ATOM     13  O   UNL     1       5.156   6.813  15.305  0.00  0.00    +0.000 OA
ATOM     14  H   UNL     1       5.196   5.977  14.803  0.00  0.00    +0.000 HD
ENDBRANCH  11  13
ENDBRANCH   3  11
ENDBRANCH   1   2
BRANCH   1  15
ATOM     15  C   UNL     1       2.139   8.045  17.646  0.00  0.00    +0.000 C 
BRANCH  15  16
ATOM     16  C   UNL     1       1.909   9.472  18.130  0.00  0.00    +0.000 C 
BRANCH  16  17
ATOM     17  O   UNL     1       0.494   9.693  18.130  0.00  0.00    +0.000 OA
BRANCH  17  21
ATOM     18  C   UNL     1      -2.273  13.123  20.378  0.00  0.00    +0.000 C 
ATOM     19  C   UNL     1      -1.386  11.911  20.446  0.00  0.00    +0.000 A 
ATOM     20  C   UNL     1      -0.875  11.391  19.246  0.00  0.00    +0.000 A 
ATOM     21  C   UNL     1      -0.050  10.271  19.243  0.00  0.00    +0.000 A 
ATOM     22  C   UNL     1       0.272   9.656  20.455  0.00  0.00    +0.000 A 
ATOM     23  C   UNL     1      -0.221  10.149  21.676  0.00  0.00    +0.000 A 
ATOM     24  C   UNL     1       0.158   9.454  22.956  0.00  0.00    +0.000 C 
ATOM     25  C   UNL     1      -1.056  11.282  21.661  0.00  0.00    +0.000 A 
ATOM     26 CL   UNL     1      -1.684  11.913  23.150  0.00  0.00    +0.000 Cl
ENDBRANCH  17  21
ENDBRANCH  16  17
ENDBRANCH  15  16
ENDBRANCH   1  15
TORSDOF 7
ENDMDL
MODEL 3
REMARK VINA RESULT:      -8.0      1.764      2.570
REMARK  Name = 
REMARK  9 active torsions:
REMARK  status: ('A' for Active; 'I' for Inactive)
REMARK    1  A    between atoms: C_1  and  C_2
REMARK    2  A    between atoms: C_4  and  O_5
REMARK    3  A    between atoms: O_5  and  C_6
REMARK    4  A    between atoms: C_6  and  C_7
REMARK    5  A    between atoms: C_7  and  C_8
REMARK    6  A    between atoms: C_8  and  C_9
REMARK    7  A    between atoms: C_10  and  C_11
REMARK    8  A    between atoms: C_11  and  O_13
REMARK    9  A    between atoms: C_22  and  C_23
REMARK                            x       y       z     vdW  Elec       q    Type
REMARK                         _______ _______ _______ _____ _____    ______ ____
ROOT
ATOM      1  C   UNL     1       2.861   7.283  18.623  0.00  0.00    +0.000 C 
ENDROOT
BRANCH   1   2
ATOM      2  C   UNL     1       3.203   5.905  18.091  0.00  0.00    +0.000 A 
ATOM      3  C   UNL     1       4.214   5.606  17.182  0.00  0.00    +0.000 A 
ATOM      4  S   UNL     1       4.287   3.927  16.856  0.00  0.00    +0.000 S 
ATOM      5  C   UNL     1       3.005   3.560  17.923  0.00  0.00    +0.000 A 
ATOM      6  C   UNL     1       2.481   2.281  18.197  0.00  0.00    +0.000 A 
ATOM      7  C   UNL     1       1.432   2.160  19.107  0.00  0.00    +0.000 A 
ATOM      8  C   UNL     1       0.915   3.282  19.737  0.00  0.00    +0.000 A 
ATOM      9  C   UNL     1       1.439   4.549  19.458  0.00  0.00    +0.000 A 
ATOM     10  C   UNL     1       2.502   4.709  18.531  0.00  0.00    +0.000 A 
BRANCH   3  11
ATOM     11  C   UNL     1       5.158   6.512  16.535  0.00  0.00    +0.000 C 
ATOM     12  O   UNL     1       5.101   6.900  15.379  0.00  0.00    +0.000 OA
BRANCH  11  13
ATOM     13  O   UNL     1       6.167   6.912  17.361  0.00  0.00    +0.000 OA
ATOM     14  H   UNL     1       6.943   7.224  16.858  0.00  0.00    +0.000 HD
ENDBRANCH  11  13
ENDBRANCH   3  11
ENDBRANCH   1   2
BRANCH   1  15
ATOM     15  C   UNL     1       2.092   8.098  17.585  0.00  0.00    +0.000 C 
BRANCH  15  16
ATOM     16  C   UNL     1       1.980   9.574  17.947  0.00  0.00    +0.000 C 
BRANCH  16  17
ATOM     17  O   UNL     1       1.001   9.679  18.987  0.00  0.00    +0.000 OA
BRANCH  17  21
ATOM     18  C   UNL     1      -2.941   9.841  16.001  0.00  0.00    +0.000 C 
ATOM     19  C   UNL     1      -2.220  10.301  17.237  0.00  0.00    +0.000 A 
ATOM     20  C   UNL     1      -0.952   9.762  17.509  0.00  0.00    +0.000 A 
ATOM     21  C   UNL     1      -0.235  10.147  18.638  0.00  0.00    +0.000 A 
ATOM     22  C   UNL     1      -0.789  11.085  19.513  0.00  0.00    +0.000 A 
ATOM     23  C   UNL     1      -2.056  11.646  19.272  0.00  0.00    +0.000 A 
ATOM     24  C   UNL     1      -2.609  12.655  20.242  0.00  0.00    +0.000 C 
ATOM     25  C   UNL     1      -2.768  11.244  18.127  0.00  0.00    +0.000 A 
ATOM     26 CL   UNL     1      -4.335  11.914  17.805  0.00  0.00    +0.000 Cl
ENDBRANCH  17  21
ENDBRANCH  16  17
ENDBRANCH  15  16
ENDBRANCH   1  15
TORSDOF 7
ENDMDL
MODEL 4
REMARK VINA RESULT:      -7.9      3.725      7.704
REMARK  Name = 
REMARK  9 active torsions:
REMARK  status: ('A' for Active; 'I' for Inactive)
REMARK    1  A    between atoms: C_1  and  C_2
REMARK    2  A    between atoms: C_4  and  O_5
REMARK    3  A    between atoms: O_5  and  C_6
REMARK    4  A    between atoms: C_6  and  C_7
REMARK    5  A    between atoms: C_7  and  C_8
REMARK    6  A    between atoms: C_8  and  C_9
REMARK    7  A    between atoms: C_10  and  C_11
REMARK    8  A    between atoms: C_11  and  O_13
REMARK    9  A    between atoms: C_22  and  C_23
REMARK                            x       y       z     vdW  Elec       q    Type
REMARK                         _______ _______ _______ _____ _____    ______ ____
ROOT
ATOM      1  C   UNL     1       0.241   9.833  18.162  0.00  0.00    +0.000 C 
ENDROOT
BRANCH   1   2
ATOM      2  C   UNL     1      -0.193  10.682  19.342  0.00  0.00    +0.000 A 
ATOM      3  C   UNL     1      -0.613  12.008  19.286  0.00  0.00    +0.000 A 
ATOM      4  S   UNL     1      -1.038  12.597  20.836  0.00  0.00    +0.000 S 
ATOM      5  C   UNL     1      -0.699  11.110  21.606  0.00  0.00    +0.000 A 
ATOM      6  C   UNL     1      -0.838  10.826  22.979  0.00  0.00    +0.000 A 
ATOM      7  C   UNL     1      -0.522   9.548  23.440  0.00  0.00    +0.000 A 
ATOM      8  C   UNL     1      -0.082   8.572  22.560  0.00  0.00    +0.000 A 
ATOM      9  C   UNL     1       0.054   8.863  21.199  0.00  0.00    +0.000 A 
ATOM     10  C   UNL     1      -0.251  10.155  20.696  0.00  0.00    +0.000 A 
BRANCH   3  11
ATOM     11  C   UNL     1      -0.732  12.881  18.121  0.00  0.00    +0.000 C 
ATOM     12  O   UNL     1      -0.153  13.943  17.961  0.00  0.00    +0.000 OA
BRANCH  11  13
ATOM     13  O   UNL     1      -1.586  12.395  17.175  0.00  0.00    +0.000 OA
ATOM     14  H   UNL     1      -1.144  11.755  16.585  0.00  0.00    +0.000 HD
ENDBRANCH  11  13
ENDBRANCH   3  11
ENDBRANCH   1   2
BRANCH   1  15
ATOM     15  C   UNL     1       1.762   9.831  18.016  0.00  0.00    +0.000 C 
BRANCH  15  16
ATOM     16  C   UNL     1       2.346   8.431  17.868  0.00  0.00    +0.000 C 
BRANCH  16  17
ATOM     17  O   UNL     1       2.308   7.820  19.163  0.00  0.00    +0.000 OA
BRANCH  17  21
ATOM     18  C   UNL     1       1.834   3.432  21.397  0.00  0.00    +0.000 C 
ATOM     19  C   UNL     1       2.307   4.262  20.236  0.00  0.00    +0.000 A 
ATOM     20  C   UNL     1       2.075   5.646  20.268  0.00  0.00    +0.000 A 
ATOM     21  C   UNL     1       2.488   6.467  19.223  0.00  0.00    +0.000 A 
ATOM     22  C   UNL     1       3.143   5.901  18.126  0.00  0.00    +0.000 A 
ATOM     23  C   UNL     1       3.393   4.518  18.061  0.00  0.00    +0.000 A 
ATOM     24  C   UNL     1       4.105   3.956  16.860  0.00  0.00    +0.000 C 
ATOM     25  C   UNL     1       2.966   3.702  19.125  0.00  0.00    +0.000 A 
ATOM     26 CL   UNL     1       3.255   1.993  19.073  0.00  0.00    +0.000 Cl
ENDBRANCH  17  21
ENDBRANCH  16  17
ENDBRANCH  15  16
ENDBRANCH   1  15
TORSDOF 7
ENDMDL
MODEL 5
REMARK VINA RESULT:      -7.8      3.755      7.885
REMARK  Name = 
REMARK  9 active torsions:
REMARK  status: ('A' for Active; 'I' for Inactive)
REMARK    1  A    between atoms: C_1  and  C_2
REMARK    2  A    between atoms: C_4  and  O_5
REMARK    3  A    between atoms: O_5  and  C_6
REMARK    4  A    between atoms: C_6  and  C_7
REMARK    5  A    between atoms: C_7  and  C_8
REMARK    6  A    between atoms: C_8  and  C_9
REMARK    7  A    between atoms: C_10  and  C_11
REMARK    8  A    between atoms: C_11  and  O_13
REMARK    9  A    between atoms: C_22  and  C_23
REMARK                            x       y       z     vdW  Elec       q    Type
REMARK                         _______ _______ _______ _____ _____    ______ ____
ROOT
ATOM      1  C   UNL     1       1.516  10.837  18.639  0.00  0.00    +0.000 C 
ENDROOT
BRANCH   1   2
ATOM      2  C   UNL     1       0.497  11.305  19.661  0.00  0.00    +0.000 A 
ATOM      3  C   UNL     1      -0.400  12.357  19.500  0.00  0.00    +0.000 A 
ATOM      4  S   UNL     1      -1.395  12.548  20.879  0.00  0.00    +0.000 S 
ATOM      5  C   UNL     1      -0.680  11.235  21.704  0.00  0.00    +0.000 A 
ATOM      6  C   UNL     1      -1.023  10.761  22.986  0.00  0.00    +0.000 A 
ATOM      7  C   UNL     1      -0.338   9.666  23.508  0.00  0.00    +0.000 A 
ATOM      8  C   UNL     1       0.664   9.048  22.776  0.00  0.00    +0.000 A 
ATOM      9  C   UNL     1       1.000   9.525  21.504  0.00  0.00    +0.000 A 
ATOM     10  C   UNL     1       0.328  10.643  20.945  0.00  0.00    +0.000 A 
BRANCH   3  11
ATOM     11  C   UNL     1      -0.573  13.242  18.352  0.00  0.00    +0.000 C 
ATOM     12  O   UNL     1      -0.230  14.412  18.291  0.00  0.00    +0.000 OA
BRANCH  11  13
ATOM     13  O   UNL     1      -1.184  12.633  17.295  0.00  0.00    +0.000 OA
ATOM     14  H   UNL     1      -0.564  12.062  16.802  0.00  0.00    +0.000 HD
ENDBRANCH  11  13
ENDBRANCH   3  11
ENDBRANCH   1   2
BRANCH   1  15
ATOM     15  C   UNL     1       1.031   9.585  17.911  0.00  0.00    +0.000 C 
BRANCH  15  16
ATOM     16  C   UNL     1       2.118   8.530  17.745  0.00  0.00    +0.000 C 
BRANCH  16  17
ATOM     17  O   UNL     1       2.253   7.863  19.006  0.00  0.00    +0.000 OA
BRANCH  17  21
ATOM     18  C   UNL     1       4.294   3.898  16.866  0.00  0.00    +0.000 C 
ATOM     19  C   UNL     1       3.560   4.527  18.016  0.00  0.00    +0.000 A 
ATOM     20  C   UNL     1       3.263   5.898  17.948  0.00  0.00    +0.000 A 
ATOM     21  C   UNL     1       2.586   6.539  18.982  0.00  0.00    +0.000 A 
ATOM     22  C   UNL     1       2.200   5.803  20.105  0.00  0.00    +0.000 A 
ATOM     23  C   UNL     1       2.481   4.429  20.208  0.00  0.00    +0.000 A 
ATOM     24  C   UNL     1       2.041   3.679  21.436  0.00  0.00    +0.000 C 
ATOM     25  C   UNL     1       3.167   3.797  19.154  0.00  0.00    +0.000 A 
ATOM     26 CL   UNL     1       3.533   2.104  19.253  0.00  0.00    +0.000 Cl
ENDBRANCH  17  21
ENDBRANCH  16  17
ENDBRANCH  15  16
ENDBRANCH   1  15
TORSDOF 7
ENDMDL
MODEL 6
REMARK VINA RESULT:      -7.7      3.957      8.065
REMARK  Name = 
REMARK  9 active torsions:
REMARK  status: ('A' for Active; 'I' for Inactive)
REMARK    1  A    between atoms: C_1  and  C_2
REMARK    2  A    between atoms: C_4  and  O_5
REMARK    3  A    between atoms: O_5  and  C_6
REMARK    4  A    between atoms: C_6  and  C_7
REMARK    5  A    between atoms: C_7  and  C_8
REMARK    6  A    between atoms: C_8  and  C_9
REMARK    7  A    between atoms: C_10  and  C_11
REMARK    8  A    between atoms: C_11  and  O_13
REMARK    9  A    between atoms: C_22  and  C_23
REMARK                            x       y       z     vdW  Elec       q    Type
REMARK                         _______ _______ _______ _____ _____    ______ ____
ROOT
ATOM      1  C   UNL     1       0.719   9.659  19.468  0.00  0.00    +0.000 C 
ENDROOT
BRANCH   1   2
ATOM      2  C   UNL     1      -0.470  10.599  19.491  0.00  0.00    +0.000 A 
ATOM      3  C   UNL     1      -0.701  11.604  20.426  0.00  0.00    +0.000 A 
ATOM      4  S   UNL     1      -2.146  12.457  20.085  0.00  0.00    +0.000 S 
ATOM      5  C   UNL     1      -2.482  11.534  18.687  0.00  0.00    +0.000 A 
ATOM      6  C   UNL     1      -3.585  11.689  17.824  0.00  0.00    +0.000 A 
ATOM      7  C   UNL     1      -3.700  10.850  16.717  0.00  0.00    +0.000 A 
ATOM      8  C   UNL     1      -2.742   9.880  16.467  0.00  0.00    +0.000 A 
ATOM      9  C   UNL     1      -1.651   9.731  17.330  0.00  0.00    +0.000 A 
ATOM     10  C   UNL     1      -1.506  10.564  18.470  0.00  0.00    +0.000 A 
BRANCH   3  11
ATOM     11  C   UNL     1       0.111  11.985  21.577  0.00  0.00    +0.000 C 
ATOM     12  O   UNL     1       1.183  12.568  21.536  0.00  0.00    +0.000 OA
BRANCH  11  13
ATOM     13  O   UNL     1      -0.445  11.619  22.768  0.00  0.00    +0.000 OA
ATOM     14  H   UNL     1      -0.458  10.649  22.876  0.00  0.00    +0.000 HD
ENDBRANCH  11  13
ENDBRANCH   3  11
ENDBRANCH   1   2
BRANCH   1  15
ATOM     15  C   UNL     1       1.421   9.691  18.112  0.00  0.00    +0.000 C 
BRANCH  15  16
ATOM     16  C   UNL     1       2.296   8.468  17.862  0.00  0.00    +0.000 C 
BRANCH  16  17
ATOM     17  O   UNL     1       2.430   7.785  19.114  0.00  0.00    +0.000 OA
BRANCH  17  21
ATOM     18  C   UNL     1       1.272   3.299  20.849  0.00  0.00    +0.000 C 
ATOM     19  C   UNL     1       1.985   4.169  19.852  0.00  0.00    +0.000 A 
ATOM     20  C   UNL     1       1.859   5.562  19.972  0.00  0.00    +0.000 A 
ATOM     21  C   UNL     1       2.493   6.420  19.079  0.00  0.00    +0.000 A 
ATOM     22  C   UNL     1       3.267   5.882  18.047  0.00  0.00    +0.000 A 
ATOM     23  C   UNL     1       3.416   4.493  17.896  0.00  0.00    +0.000 A 
ATOM     24  C   UNL     1       4.262   3.962  16.770  0.00  0.00    +0.000 C 
ATOM     25  C   UNL     1       2.765   3.639  18.807  0.00  0.00    +0.000 A 
ATOM     26 CL   UNL     1       2.925   1.919  18.645  0.00  0.00    +0.000 Cl
ENDBRANCH  17  21
ENDBRANCH  16  17
ENDBRANCH  15  16
ENDBRANCH   1  15
TORSDOF 7
ENDMDL
MODEL 7
REMARK VINA RESULT:      -7.7      1.016      1.448
REMARK  Name = 
REMARK  9 active torsions:
REMARK  status: ('A' for Active; 'I' for Inactive)
REMARK    1  A    between atoms: C_1  and  C_2
REMARK    2  A    between atoms: C_4  and  O_5
REMARK    3  A    between atoms: O_5  and  C_6
REMARK    4  A    between atoms: C_6  and  C_7
REMARK    5  A    between atoms: C_7  and  C_8
REMARK    6  A    between atoms: C_8  and  C_9
REMARK    7  A    between atoms: C_10  and  C_11
REMARK    8  A    between atoms: C_11  and  O_13
REMARK    9  A    between atoms: C_22  and  C_23
REMARK                            x       y       z     vdW  Elec       q    Type
REMARK                         _______ _______ _______ _____ _____    ______ ____
ROOT
ATOM      1  C   UNL     1       2.846   7.176  18.611  0.00  0.00    +0.000 C 
ENDROOT
BRANCH   1   2
ATOM      2  C   UNL     1       3.225   5.812  18.068  0.00  0.00    +0.000 A 
ATOM      3  C   UNL     1       4.267   5.543  17.184  0.00  0.00    +0.000 A 
ATOM      4  S   UNL     1       4.375   3.871  16.834  0.00  0.00    +0.000 S 
ATOM      5  C   UNL     1       3.068   3.467  17.856  0.00  0.00    +0.000 A 
ATOM      6  C   UNL     1       2.557   2.176  18.094  0.00  0.00    +0.000 A 
ATOM      7  C   UNL     1       1.484   2.025  18.971  0.00  0.00    +0.000 A 
ATOM      8  C   UNL     1       0.930   3.128  19.603  0.00  0.00    +0.000 A 
ATOM      9  C   UNL     1       1.443   4.407  19.360  0.00  0.00    +0.000 A 
ATOM     10  C   UNL     1       2.530   4.598  18.468  0.00  0.00    +0.000 A 
BRANCH   3  11
ATOM     11  C   UNL     1       5.215   6.474  16.580  0.00  0.00    +0.000 C 
ATOM     12  O   UNL     1       5.184   6.882  15.430  0.00  0.00    +0.000 OA
BRANCH  11  13
ATOM     13  O   UNL     1       6.194   6.874  17.442  0.00  0.00    +0.000 OA
ATOM     14  H   UNL     1       6.365   6.203  18.129  0.00  0.00    +0.000 HD
ENDBRANCH  11  13
ENDBRANCH   3  11
ENDBRANCH   1   2
BRANCH   1  15
ATOM     15  C   UNL     1       2.103   8.000  17.561  0.00  0.00    +0.000 C 
BRANCH  15  16
ATOM     16  C   UNL     1       1.858   9.440  17.994  0.00  0.00    +0.000 C 
BRANCH  16  17
ATOM     17  O   UNL     1       1.425   9.401  19.358  0.00  0.00    +0.000 OA
BRANCH  17  21
ATOM     18  C   UNL     1      -1.137  12.096  22.621  0.00  0.00    +0.000 C 
ATOM     19  C   UNL     1      -0.958  11.553  21.230  0.00  0.00    +0.000 A 
ATOM     20  C   UNL     1       0.153  10.736  20.972  0.00  0.00    +0.000 A 
ATOM     21  C   UNL     1       0.375  10.204  19.705  0.00  0.00    +0.000 A 
ATOM     22  C   UNL     1      -0.525  10.492  18.676  0.00  0.00    +0.000 A 
ATOM     23  C   UNL     1      -1.649  11.307  18.898  0.00  0.00    +0.000 A 
ATOM     24  C   UNL     1      -2.592  11.585  17.758  0.00  0.00    +0.000 C 
ATOM     25  C   UNL     1      -1.857  11.838  20.185  0.00  0.00    +0.000 A 
ATOM     26 CL   UNL     1      -3.232  12.850  20.490  0.00  0.00    +0.000 Cl
ENDBRANCH  17  21
ENDBRANCH  16  17
ENDBRANCH  15  16
ENDBRANCH   1  15
TORSDOF 7
ENDMDL
MODEL 8
REMARK VINA RESULT:      -7.7      1.353      1.720
REMARK  Name = 
REMARK  9 active torsions:
REMARK  status: ('A' for Active; 'I' for Inactive)
REMARK    1  A    between atoms: C_1  and  C_2
REMARK    2  A    between atoms: C_4  and  O_5
REMARK    3  A    between atoms: O_5  and  C_6
REMARK    4  A    between atoms: C_6  and  C_7
REMARK    5  A    between atoms: C_7  and  C_8
REMARK    6  A    between atoms: C_8  and  C_9
REMARK    7  A    between atoms: C_10  and  C_11
REMARK    8  A    between atoms: C_11  and  O_13
REMARK    9  A    between atoms: C_22  and  C_23
REMARK                            x       y       z     vdW  Elec       q    Type
REMARK                         _______ _______ _______ _____ _____    ______ ____
ROOT
ATOM      1  C   UNL     1       2.878   7.190  18.704  0.00  0.00    +0.000 C 
ENDROOT
BRANCH   1   2
ATOM      2  C   UNL     1       3.263   5.859  18.088  0.00  0.00    +0.000 A 
ATOM      3  C   UNL     1       4.318   5.639  17.207  0.00  0.00    +0.000 A 
ATOM      4  S   UNL     1       4.428   3.990  16.760  0.00  0.00    +0.000 S 
ATOM      5  C   UNL     1       3.102   3.532  17.735  0.00  0.00    +0.000 A 
ATOM      6  C   UNL     1       2.583   2.231  17.887  0.00  0.00    +0.000 A 
ATOM      7  C   UNL     1       1.495   2.032  18.735  0.00  0.00    +0.000 A 
ATOM      8  C   UNL     1       0.934   3.098  19.421  0.00  0.00    +0.000 A 
ATOM      9  C   UNL     1       1.454   4.387  19.263  0.00  0.00    +0.000 A 
ATOM     10  C   UNL     1       2.557   4.626  18.403  0.00  0.00    +0.000 A 
BRANCH   3  11
ATOM     11  C   UNL     1       5.280   6.600  16.675  0.00  0.00    +0.000 C 
ATOM     12  O   UNL     1       6.138   7.185  17.317  0.00  0.00    +0.000 OA
BRANCH  11  13
ATOM     13  O   UNL     1       5.139   6.810  15.335  0.00  0.00    +0.000 OA
ATOM     14  H   UNL     1       4.595   6.116  14.917  0.00  0.00    +0.000 HD
ENDBRANCH  11  13
ENDBRANCH   3  11
ENDBRANCH   1   2
BRANCH   1  15
ATOM     15  C   UNL     1       2.288   8.132  17.656  0.00  0.00    +0.000 C 
BRANCH  15  16
ATOM     16  C   UNL     1       1.648   9.375  18.263  0.00  0.00    +0.000 C 
BRANCH  16  17
ATOM     17  O   UNL     1       0.345   9.503  17.681  0.00  0.00    +0.000 OA
BRANCH  17  21
ATOM     18  C   UNL     1      -1.069  12.296  21.511  0.00  0.00    +0.000 C 
ATOM     19  C   UNL     1      -1.348  11.690  20.164  0.00  0.00    +0.000 A 
ATOM     20  C   UNL     1      -0.358  10.886  19.577  0.00  0.00    +0.000 A 
ATOM     21  C   UNL     1      -0.556  10.298  18.331  0.00  0.00    +0.000 A 
ATOM     22  C   UNL     1      -1.761  10.514  17.657  0.00  0.00    +0.000 A 
ATOM     23  C   UNL     1      -2.774  11.313  18.215  0.00  0.00    +0.000 A 
ATOM     24  C   UNL     1      -4.056  11.514  17.451  0.00  0.00    +0.000 C 
ATOM     25  C   UNL     1      -2.557  11.902  19.474  0.00  0.00    +0.000 A 
ATOM     26 CL   UNL     1      -3.786  12.897  20.187  0.00  0.00    +0.000 Cl
ENDBRANCH  17  21
ENDBRANCH  16  17
ENDBRANCH  15  16
ENDBRANCH   1  15
TORSDOF 7
ENDMDL
MODEL 9
REMARK VINA RESULT:      -7.7      1.584      1.999
REMARK  Name = 
REMARK  9 active torsions:
REMARK  status: ('A' for Active; 'I' for Inactive)
REMARK    1  A    between atoms: C_1  and  C_2
REMARK    2  A    between atoms: C_4  and  O_5
REMARK    3  A    between atoms: O_5  and  C_6
REMARK    4  A    between atoms: C_6  and  C_7
REMARK    5  A    between atoms: C_7  and  C_8
REMARK    6  A    between atoms: C_8  and  C_9
REMARK    7  A    between atoms: C_10  and  C_11
REMARK    8  A    between atoms: C_11  and  O_13
REMARK    9  A    between atoms: C_22  and  C_23
REMARK                            x       y       z     vdW  Elec       q    Type
REMARK                         _______ _______ _______ _____ _____    ______ ____
ROOT
ATOM      1  C   UNL     1       4.385   6.265  18.487  0.00  0.00    +0.000 C 
ENDROOT
BRANCH   1   2
ATOM      2  C   UNL     1       3.925   4.832  18.306  0.00  0.00    +0.000 A 
ATOM      3  C   UNL     1       4.409   3.929  17.362  0.00  0.00    +0.000 A 
ATOM      4  S   UNL     1       3.643   2.405  17.503  0.00  0.00    +0.000 S 
ATOM      5  C   UNL     1       2.677   2.897  18.823  0.00  0.00    +0.000 A 
ATOM      6  C   UNL     1       1.742   2.106  19.519  0.00  0.00    +0.000 A 
ATOM      7  C   UNL     1       1.042   2.669  20.585  0.00  0.00    +0.000 A 
ATOM      8  C   UNL     1       1.265   3.986  20.957  0.00  0.00    +0.000 A 
ATOM      9  C   UNL     1       2.194   4.764  20.260  0.00  0.00    +0.000 A 
ATOM     10  C   UNL     1       2.920   4.226  19.165  0.00  0.00    +0.000 A 
BRANCH   3  11
ATOM     11  C   UNL     1       5.438   4.133  16.347  0.00  0.00    +0.000 C 
ATOM     12  O   UNL     1       5.241   4.386  15.169  0.00  0.00    +0.000 OA
BRANCH  11  13
ATOM     13  O   UNL     1       6.705   4.011  16.838  0.00  0.00    +0.000 OA
ATOM     14  H   UNL     1       6.791   4.421  17.719  0.00  0.00    +0.000 HD
ENDBRANCH  11  13
ENDBRANCH   3  11
ENDBRANCH   1   2
BRANCH   1  15
ATOM     15  C   UNL     1       3.738   7.185  17.453  0.00  0.00    +0.000 C 
BRANCH  15  16
ATOM     16  C   UNL     1       2.383   7.724  17.896  0.00  0.00    +0.000 C 
BRANCH  16  17
ATOM     17  O   UNL     1       2.404   7.787  19.327  0.00  0.00    +0.000 OA
BRANCH  17  21
ATOM     18  C   UNL     1      -0.046   9.492  23.272  0.00  0.00    +0.000 C 
ATOM     19  C   UNL     1       0.275   9.559  21.805  0.00  0.00    +0.000 A 
ATOM     20  C   UNL     1       1.189   8.633  21.279  0.00  0.00    +0.000 A 
ATOM     21  C   UNL     1       1.527   8.645  19.929  0.00  0.00    +0.000 A 
ATOM     22  C   UNL     1       0.946   9.597  19.088  0.00  0.00    +0.000 A 
ATOM     23  C   UNL     1       0.027  10.540  19.579  0.00  0.00    +0.000 A 
ATOM     24  C   UNL     1      -0.575  11.543  18.632  0.00  0.00    +0.000 C 
ATOM     25  C   UNL     1      -0.303  10.514  20.947  0.00  0.00    +0.000 A 
ATOM     26 CL   UNL     1      -1.430  11.668  21.586  0.00  0.00    +0.000 Cl
ENDBRANCH  17  21
ENDBRANCH  16  17
ENDBRANCH  15  16
ENDBRANCH   1  15
TORSDOF 7
ENDMDL
