MODEL 1
REMARK VINA RESULT:      -7.4      0.000      0.000
REMARK  Name = 
REMARK  5 active torsions:
REMARK  status: ('A' for Active; 'I' for Inactive)
REMARK    1  A    between atoms: C_1  and  C_2
REMARK    2  A    between atoms: C_6  and  N_7
REMARK    3  A    between atoms: C_10  and  C_11
REMARK    4  A    between atoms: C_11  and  C_12
REMARK    5  A    between atoms: C_12  and  N_13
REMARK                            x       y       z     vdW  Elec       q    Type
REMARK                         _______ _______ _______ _____ _____    ______ ____
ROOT
ATOM      1  C   UNL     1       7.257   5.543  19.073  0.00  0.00    +0.000 C 
ATOM      2  C   UNL     1       5.799   5.232  19.247  0.00  0.00    +0.000 A 
ATOM      3  N   UNL     1       5.470   3.945  19.420  0.00  0.00    +0.000 NA
ATOM      4  C   UNL     1       4.154   3.667  19.499  0.00  0.00    +0.000 A 
ATOM      5  C   UNL     1       3.166   4.641  19.402  0.00  0.00    +0.000 A 
ATOM      6  C   UNL     1       3.605   5.960  19.269  0.00  0.00    +0.000 A 
ATOM      7  N   UNL     1       4.922   6.246  19.175  0.00  0.00    +0.000 NA
ATOM      8  C   UNL     1       1.720   4.213  19.339  0.00  0.00    +0.000 C 
ATOM      9  C   UNL     1       1.378   3.344  18.127  0.00  0.00    +0.000 C 
ATOM     10  N   UNL     1       1.675   1.924  18.317  0.00  0.00    +0.000 NA
ATOM     11  C   UNL     1       3.116   1.652  18.389  0.00  0.00    +0.000 C 
ATOM     12  C   UNL     1       3.800   2.209  19.641  0.00  0.00    +0.000 C 
ATOM     13  H   UNL     1       1.289   1.407  17.525  0.00  0.00    +0.000 HD
ENDROOT
BRANCH   6  14
ATOM     14  N   UNL     1       2.716   7.011  19.126  0.00  0.00    +0.000 N 
ATOM     15  C   UNL     1       2.304   7.495  17.811  0.00  0.00    +0.000 C 
ATOM     16  C   UNL     1       2.264   9.030  17.900  0.00  0.00    +0.000 C 
ATOM     17  C   UNL     1       1.321   9.510  19.023  0.00  0.00    +0.000 C 
ATOM     18  C   UNL     1       1.671   8.790  20.346  0.00  0.00    +0.000 C 
ATOM     19  C   UNL     1       1.749   7.266  20.189  0.00  0.00    +0.000 C 
BRANCH  17  20
ATOM     20  C   UNL     1      -0.139   9.326  18.579  0.00  0.00    +0.000 C 
BRANCH  20  21
ATOM     21  C   UNL     1      -0.987  10.581  18.749  0.00  0.00    +0.000 C 
BRANCH  21  22
ATOM     22  N   UNL     1      -2.099  10.587  17.819  0.00  0.00    +0.000 N 
ATOM     23  C   UNL     1      -3.336  11.121  18.040  0.00  0.00    +0.000 A 
ATOM     24  C   UNL     1      -4.063  10.867  16.902  0.00  0.00    +0.000 A 
ATOM     25  C   UNL     1      -3.178  10.165  16.062  0.00  0.00    +0.000 A 
ATOM     26  N   UNL     1      -1.976   9.993  16.621  0.00  0.00    +0.000 NA
ENDBRANCH  21  22
ENDBRANCH  20  21
ENDBRANCH  17  20
ENDBRANCH   6  14
TORSDOF 4
ENDMDL
MODEL 2
REMARK VINA RESULT:      -7.2      1.283      1.339
REMARK  Name = 
REMARK  5 active torsions:
REMARK  status: ('A' for Active; 'I' for Inactive)
REMARK    1  A    between atoms: C_1  and  C_2
REMARK    2  A    between atoms: C_6  and  N_7
REMARK    3  A    between atoms: C_10  and  C_11
REMARK    4  A    between atoms: C_11  and  C_12
REMARK    5  A    between atoms: C_12  and  N_13
REMARK                            x       y       z     vdW  Elec       q    Type
REMARK                         _______ _______ _______ _____ _____    ______ ____
ROOT
ATOM      1  C   UNL     1       5.734   5.894  16.354  0.00  0.00    +0.000 C 
ATOM      2  C   UNL     1       4.796   5.750  17.517  0.00  0.00    +0.000 A 
ATOM      3  N   UNL     1       4.801   4.575  18.159  0.00  0.00    +0.000 NA
ATOM      4  C   UNL     1       3.902   4.429  19.152  0.00  0.00    +0.000 A 
ATOM      5  C   UNL     1       2.999   5.424  19.511  0.00  0.00    +0.000 A 
ATOM      6  C   UNL     1       3.099   6.632  18.817  0.00  0.00    +0.000 A 
ATOM      7  N   UNL     1       3.988   6.782  17.810  0.00  0.00    +0.000 NA
ATOM      8  C   UNL     1       1.927   5.109  20.524  0.00  0.00    +0.000 C 
ATOM      9  C   UNL     1       0.965   4.000  20.092  0.00  0.00    +0.000 C 
ATOM     10  N   UNL     1       1.462   2.650  20.363  0.00  0.00    +0.000 NA
ATOM     11  C   UNL     1       2.611   2.292  19.521  0.00  0.00    +0.000 C 
ATOM     12  C   UNL     1       3.886   3.083  19.828  0.00  0.00    +0.000 C 
ATOM     13  H   UNL     1       0.708   1.988  20.175  0.00  0.00    +0.000 HD
ENDROOT
BRANCH   6  14
ATOM     14  N   UNL     1       2.232   7.683  19.059  0.00  0.00    +0.000 N 
ATOM     15  C   UNL     1       1.559   8.388  17.971  0.00  0.00    +0.000 C 
ATOM     16  C   UNL     1       1.585   9.884  18.334  0.00  0.00    +0.000 C 
ATOM     17  C   UNL     1       0.922  10.147  19.703  0.00  0.00    +0.000 C 
ATOM     18  C   UNL     1       1.530   9.207  20.770  0.00  0.00    +0.000 C 
ATOM     19  C   UNL     1       1.527   7.735  20.335  0.00  0.00    +0.000 C 
BRANCH  17  20
ATOM     20  C   UNL     1      -0.604  10.031  19.565  0.00  0.00    +0.000 C 
BRANCH  20  21
ATOM     21  C   UNL     1      -1.253  11.268  18.956  0.00  0.00    +0.000 C 
BRANCH  21  22
ATOM     22  N   UNL     1      -2.111  10.911  17.843  0.00  0.00    +0.000 N 
ATOM     23  C   UNL     1      -3.318  11.470  17.540  0.00  0.00    +0.000 A 
ATOM     24  C   UNL     1      -3.774  10.801  16.430  0.00  0.00    +0.000 A 
ATOM     25  C   UNL     1      -2.774   9.850  16.151  0.00  0.00    +0.000 A 
ATOM     26  N   UNL     1      -1.755   9.916  17.014  0.00  0.00    +0.000 NA
ENDBRANCH  21  22
ENDBRANCH  20  21
ENDBRANCH  17  20
ENDBRANCH   6  14
TORSDOF 4
ENDMDL
MODEL 3
REMARK VINA RESULT:      -7.2      1.788      3.190
REMARK  Name = 
REMARK  5 active torsions:
REMARK  status: ('A' for Active; 'I' for Inactive)
REMARK    1  A    between atoms: C_1  and  C_2
REMARK    2  A    between atoms: C_6  and  N_7
REMARK    3  A    between atoms: C_10  and  C_11
REMARK    4  A    between atoms: C_11  and  C_12
REMARK    5  A    between atoms: C_12  and  N_13
REMARK                            x       y       z     vdW  Elec       q    Type
REMARK                         _______ _______ _______ _____ _____    ______ ____
ROOT
ATOM      1  C   UNL     1       2.666   2.016  19.100  0.00  0.00    +0.000 C 
ATOM      2  C   UNL     1       3.138   3.267  18.418  0.00  0.00    +0.000 A 
ATOM      3  N   UNL     1       4.183   3.149  17.589  0.00  0.00    +0.000 NA
ATOM      4  C   UNL     1       4.647   4.289  17.042  0.00  0.00    +0.000 A 
ATOM      5  C   UNL     1       4.097   5.538  17.309  0.00  0.00    +0.000 A 
ATOM      6  C   UNL     1       2.981   5.558  18.149  0.00  0.00    +0.000 A 
ATOM      7  N   UNL     1       2.518   4.421  18.714  0.00  0.00    +0.000 NA
ATOM      8  C   UNL     1       4.785   6.771  16.777  0.00  0.00    +0.000 C 
ATOM      9  C   UNL     1       6.207   6.971  17.309  0.00  0.00    +0.000 C 
ATOM     10  N   UNL     1       7.223   6.219  16.570  0.00  0.00    +0.000 NA
ATOM     11  C   UNL     1       7.110   4.769  16.771  0.00  0.00    +0.000 C 
ATOM     12  C   UNL     1       5.856   4.145  16.153  0.00  0.00    +0.000 C 
ATOM     13  H   UNL     1       8.143   6.519  16.898  0.00  0.00    +0.000 HD
ENDROOT
BRANCH   6  14
ATOM     14  N   UNL     1       2.369   6.744  18.518  0.00  0.00    +0.000 N 
ATOM     15  C   UNL     1       1.849   7.679  17.524  0.00  0.00    +0.000 C 
ATOM     16  C   UNL     1       2.207   9.091  18.019  0.00  0.00    +0.000 C 
ATOM     17  C   UNL     1       1.641   9.359  19.430  0.00  0.00    +0.000 C 
ATOM     18  C   UNL     1       2.046   8.211  20.385  0.00  0.00    +0.000 C 
ATOM     19  C   UNL     1       1.714   6.824  19.818  0.00  0.00    +0.000 C 
BRANCH  17  20
ATOM     20  C   UNL     1       0.125   9.589  19.339  0.00  0.00    +0.000 C 
BRANCH  20  21
ATOM     21  C   UNL     1      -0.250  10.882  18.624  0.00  0.00    +0.000 C 
BRANCH  21  22
ATOM     22  N   UNL     1      -1.573  10.789  18.039  0.00  0.00    +0.000 N 
ATOM     23  C   UNL     1      -1.960   9.938  17.045  0.00  0.00    +0.000 A 
ATOM     24  C   UNL     1      -3.281  10.226  16.798  0.00  0.00    +0.000 A 
ATOM     25  C   UNL     1      -3.591  11.272  17.688  0.00  0.00    +0.000 A 
ATOM     26  N   UNL     1      -2.547  11.617  18.449  0.00  0.00    +0.000 NA
ENDBRANCH  21  22
ENDBRANCH  20  21
ENDBRANCH  17  20
ENDBRANCH   6  14
TORSDOF 4
ENDMDL
MODEL 4
REMARK VINA RESULT:      -7.2      2.018      7.852
REMARK  Name = 
REMARK  5 active torsions:
REMARK  status: ('A' for Active; 'I' for Inactive)
REMARK    1  A    between atoms: C_1  and  C_2
REMARK    2  A    between atoms: C_6  and  N_7
REMARK    3  A    between atoms: C_10  and  C_11
REMARK    4  A    between atoms: C_11  and  C_12
REMARK    5  A    between atoms: C_12  and  N_13
REMARK                            x       y       z     vdW  Elec       q    Type
REMARK                         _______ _______ _______ _____ _____    ______ ____
ROOT
ATOM      1  C   UNL     1       0.087   9.534  23.788  0.00  0.00    +0.000 C 
ATOM      2  C   UNL     1       0.399   9.561  22.321  0.00  0.00    +0.000 A 
ATOM      3  N   UNL     1      -0.009  10.635  21.633  0.00  0.00    +0.000 NA
ATOM      4  C   UNL     1       0.207  10.615  20.304  0.00  0.00    +0.000 A 
ATOM      5  C   UNL     1       0.812   9.548  19.649  0.00  0.00    +0.000 A 
ATOM      6  C   UNL     1       1.246   8.492  20.454  0.00  0.00    +0.000 A 
ATOM      7  N   UNL     1       1.021   8.497  21.786  0.00  0.00    +0.000 NA
ATOM      8  C   UNL     1       0.865   9.548  18.141  0.00  0.00    +0.000 C 
ATOM      9  C   UNL     1      -0.510   9.546  17.469  0.00  0.00    +0.000 C 
ATOM     10  N   UNL     1      -1.103  10.877  17.338  0.00  0.00    +0.000 NA
ATOM     11  C   UNL     1      -1.487  11.455  18.632  0.00  0.00    +0.000 C 
ATOM     12  C   UNL     1      -0.305  11.808  19.539  0.00  0.00    +0.000 C 
ATOM     13  H   UNL     1      -1.942  10.799  16.760  0.00  0.00    +0.000 HD
ENDROOT
BRANCH   6  14
ATOM     14  N   UNL     1       1.830   7.359  19.914  0.00  0.00    +0.000 N 
ATOM     15  C   UNL     1       2.909   7.444  18.933  0.00  0.00    +0.000 C 
ATOM     16  C   UNL     1       2.631   6.359  17.879  0.00  0.00    +0.000 C 
ATOM     17  C   UNL     1       2.529   4.958  18.518  0.00  0.00    +0.000 C 
ATOM     18  C   UNL     1       1.530   4.991  19.698  0.00  0.00    +0.000 C 
ATOM     19  C   UNL     1       1.821   6.124  20.691  0.00  0.00    +0.000 C 
BRANCH  17  20
ATOM     20  C   UNL     1       3.934   4.467  18.903  0.00  0.00    +0.000 C 
BRANCH  20  21
ATOM     21  C   UNL     1       4.924   4.495  17.745  0.00  0.00    +0.000 C 
BRANCH  21  22
ATOM     22  N   UNL     1       6.085   5.299  18.073  0.00  0.00    +0.000 N 
ATOM     23  C   UNL     1       6.561   6.362  17.362  0.00  0.00    +0.000 A 
ATOM     24  C   UNL     1       7.685   6.787  18.028  0.00  0.00    +0.000 A 
ATOM     25  C   UNL     1       7.807   5.906  19.120  0.00  0.00    +0.000 A 
ATOM     26  N   UNL     1       6.829   4.996  19.149  0.00  0.00    +0.000 NA
ENDBRANCH  21  22
ENDBRANCH  20  21
ENDBRANCH  17  20
ENDBRANCH   6  14
TORSDOF 4
ENDMDL
MODEL 5
REMARK VINA RESULT:      -7.2      2.545      3.332
REMARK  Name = 
REMARK  5 active torsions:
REMARK  status: ('A' for Active; 'I' for Inactive)
REMARK    1  A    between atoms: C_1  and  C_2
REMARK    2  A    between atoms: C_6  and  N_7
REMARK    3  A    between atoms: C_10  and  C_11
REMARK    4  A    between atoms: C_11  and  C_12
REMARK    5  A    between atoms: C_12  and  N_13
REMARK                            x       y       z     vdW  Elec       q    Type
REMARK                         _______ _______ _______ _____ _____    ______ ____
ROOT
ATOM      1  C   UNL     1       4.960   6.641  16.162  0.00  0.00    +0.000 C 
ATOM      2  C   UNL     1       4.212   6.326  17.424  0.00  0.00    +0.000 A 
ATOM      3  N   UNL     1       4.321   5.079  17.900  0.00  0.00    +0.000 NA
ATOM      4  C   UNL     1       3.586   4.785  18.989  0.00  0.00    +0.000 A 
ATOM      5  C   UNL     1       2.743   5.703  19.606  0.00  0.00    +0.000 A 
ATOM      6  C   UNL     1       2.729   6.991  19.068  0.00  0.00    +0.000 A 
ATOM      7  N   UNL     1       3.452   7.291  17.967  0.00  0.00    +0.000 NA
ATOM      8  C   UNL     1       1.840   5.234  20.721  0.00  0.00    +0.000 C 
ATOM      9  C   UNL     1       0.829   4.165  20.298  0.00  0.00    +0.000 C 
ATOM     10  N   UNL     1       1.370   2.805  20.313  0.00  0.00    +0.000 NA
ATOM     11  C   UNL     1       2.378   2.586  19.269  0.00  0.00    +0.000 C 
ATOM     12  C   UNL     1       3.681   3.363  19.480  0.00  0.00    +0.000 C 
ATOM     13  H   UNL     1       0.599   2.153  20.157  0.00  0.00    +0.000 HD
ENDROOT
BRANCH   6  14
ATOM     14  N   UNL     1       1.903   7.981  19.573  0.00  0.00    +0.000 N 
ATOM     15  C   UNL     1       1.707   8.157  21.010  0.00  0.00    +0.000 C 
ATOM     16  C   UNL     1       0.212   8.460  21.215  0.00  0.00    +0.000 C 
ATOM     17  C   UNL     1      -0.234   9.696  20.406  0.00  0.00    +0.000 C 
ATOM     18  C   UNL     1       0.203   9.543  18.930  0.00  0.00    +0.000 C 
ATOM     19  C   UNL     1       1.689   9.190  18.785  0.00  0.00    +0.000 C 
BRANCH  17  20
ATOM     20  C   UNL     1       0.293  10.970  21.084  0.00  0.00    +0.000 C 
BRANCH  20  21
ATOM     21  C   UNL     1      -0.538  12.210  20.776  0.00  0.00    +0.000 C 
BRANCH  21  22
ATOM     22  N   UNL     1      -1.682  12.301  21.662  0.00  0.00    +0.000 N 
ATOM     23  C   UNL     1      -1.709  11.972  22.987  0.00  0.00    +0.000 A 
ATOM     24  C   UNL     1      -3.000  12.192  23.402  0.00  0.00    +0.000 A 
ATOM     25  C   UNL     1      -3.674  12.641  22.250  0.00  0.00    +0.000 A 
ATOM     26  N   UNL     1      -2.869  12.709  21.185  0.00  0.00    +0.000 NA
ENDBRANCH  21  22
ENDBRANCH  20  21
ENDBRANCH  17  20
ENDBRANCH   6  14
TORSDOF 4
ENDMDL
MODEL 6
REMARK VINA RESULT:      -7.1      4.034      7.338
REMARK  Name = 
REMARK  5 active torsions:
REMARK  status: ('A' for Active; 'I' for Inactive)
REMARK    1  A    between atoms: C_1  and  C_2
REMARK    2  A    between atoms: C_6  and  N_7
REMARK    3  A    between atoms: C_10  and  C_11
REMARK    4  A    between atoms: C_11  and  C_12
REMARK    5  A    between atoms: C_12  and  N_13
REMARK                            x       y       z     vdW  Elec       q    Type
REMARK                         _______ _______ _______ _____ _____    ______ ____
ROOT
ATOM      1  C   UNL     1       1.825   8.505  19.430  0.00  0.00    +0.000 C 
ATOM      2  C   UNL     1       2.222   7.081  19.174  0.00  0.00    +0.000 A 
ATOM      3  N   UNL     1       1.635   6.142  19.927  0.00  0.00    +0.000 NA
ATOM      4  C   UNL     1       2.054   4.875  19.742  0.00  0.00    +0.000 A 
ATOM      5  C   UNL     1       3.047   4.529  18.831  0.00  0.00    +0.000 A 
ATOM      6  C   UNL     1       3.568   5.568  18.057  0.00  0.00    +0.000 A 
ATOM      7  N   UNL     1       3.164   6.844  18.246  0.00  0.00    +0.000 NA
ATOM      8  C   UNL     1       3.560   3.110  18.811  0.00  0.00    +0.000 C 
ATOM      9  C   UNL     1       4.215   2.665  20.121  0.00  0.00    +0.000 C 
ATOM     10  N   UNL     1       3.261   2.188  21.123  0.00  0.00    +0.000 NA
ATOM     11  C   UNL     1       2.411   3.262  21.651  0.00  0.00    +0.000 C 
ATOM     12  C   UNL     1       1.421   3.838  20.634  0.00  0.00    +0.000 C 
ATOM     13  H   UNL     1       3.787   1.784  21.900  0.00  0.00    +0.000 HD
ENDROOT
BRANCH   6  14
ATOM     14  N   UNL     1       4.585   5.354  17.143  0.00  0.00    +0.000 N 
ATOM     15  C   UNL     1       4.514   4.282  16.154  0.00  0.00    +0.000 C 
ATOM     16  C   UNL     1       5.922   3.665  16.073  0.00  0.00    +0.000 C 
ATOM     17  C   UNL     1       6.986   4.724  15.715  0.00  0.00    +0.000 C 
ATOM     18  C   UNL     1       6.860   5.937  16.666  0.00  0.00    +0.000 C 
ATOM     19  C   UNL     1       5.427   6.479  16.750  0.00  0.00    +0.000 C 
BRANCH  17  20
ATOM     20  C   UNL     1       6.871   5.083  14.226  0.00  0.00    +0.000 C 
BRANCH  20  21
ATOM     21  C   UNL     1       7.332   3.967  13.296  0.00  0.00    +0.000 C 
BRANCH  21  22
ATOM     22  N   UNL     1       6.232   3.472  12.492  0.00  0.00    +0.000 N 
ATOM     23  C   UNL     1       4.971   3.991  12.439  0.00  0.00    +0.000 A 
ATOM     24  C   UNL     1       4.269   3.185  11.574  0.00  0.00    +0.000 A 
ATOM     25  C   UNL     1       5.195   2.204  11.171  0.00  0.00    +0.000 A 
ATOM     26  N   UNL     1       6.396   2.378  11.730  0.00  0.00    +0.000 NA
ENDBRANCH  21  22
ENDBRANCH  20  21
ENDBRANCH  17  20
ENDBRANCH   6  14
TORSDOF 4
ENDMDL
MODEL 7
REMARK VINA RESULT:      -7.1      2.661      3.748
REMARK  Name = 
REMARK  5 active torsions:
REMARK  status: ('A' for Active; 'I' for Inactive)
REMARK    1  A    between atoms: C_1  and  C_2
REMARK    2  A    between atoms: C_6  and  N_7
REMARK    3  A    between atoms: C_10  and  C_11
REMARK    4  A    between atoms: C_11  and  C_12
REMARK    5  A    between atoms: C_12  and  N_13
REMARK                            x       y       z     vdW  Elec       q    Type
REMARK                         _______ _______ _______ _____ _____    ______ ____
ROOT
ATOM      1  C   UNL     1       4.954   6.660  16.188  0.00  0.00    +0.000 C 
ATOM      2  C   UNL     1       4.203   6.328  17.444  0.00  0.00    +0.000 A 
ATOM      3  N   UNL     1       4.307   5.074  17.900  0.00  0.00    +0.000 NA
ATOM      4  C   UNL     1       3.568   4.765  18.984  0.00  0.00    +0.000 A 
ATOM      5  C   UNL     1       2.727   5.676  19.613  0.00  0.00    +0.000 A 
ATOM      6  C   UNL     1       2.718   6.973  19.095  0.00  0.00    +0.000 A 
ATOM      7  N   UNL     1       3.445   7.287  18.000  0.00  0.00    +0.000 NA
ATOM      8  C   UNL     1       1.820   5.194  20.718  0.00  0.00    +0.000 C 
ATOM      9  C   UNL     1       0.807   4.135  20.277  0.00  0.00    +0.000 C 
ATOM     10  N   UNL     1       1.342   2.773  20.272  0.00  0.00    +0.000 NA
ATOM     11  C   UNL     1       2.352   2.566  19.227  0.00  0.00    +0.000 C 
ATOM     12  C   UNL     1       3.657   3.336  19.452  0.00  0.00    +0.000 C 
ATOM     13  H   UNL     1       0.570   2.126  20.105  0.00  0.00    +0.000 HD
ENDROOT
BRANCH   6  14
ATOM     14  N   UNL     1       1.895   7.958  19.613  0.00  0.00    +0.000 N 
ATOM     15  C   UNL     1       1.660   8.083  21.050  0.00  0.00    +0.000 C 
ATOM     16  C   UNL     1       0.165   8.404  21.223  0.00  0.00    +0.000 C 
ATOM     17  C   UNL     1      -0.236   9.678  20.450  0.00  0.00    +0.000 C 
ATOM     18  C   UNL     1       0.241   9.573  18.982  0.00  0.00    +0.000 C 
ATOM     19  C   UNL     1       1.725   9.199  18.867  0.00  0.00    +0.000 C 
BRANCH  17  20
ATOM     20  C   UNL     1       0.293  10.916  21.191  0.00  0.00    +0.000 C 
BRANCH  20  21
ATOM     21  C   UNL     1       0.023  12.224  20.456  0.00  0.00    +0.000 C 
BRANCH  21  22
ATOM     22  N   UNL     1       1.259  12.928  20.177  0.00  0.00    +0.000 N 
ATOM     23  C   UNL     1       1.775  13.200  18.943  0.00  0.00    +0.000 A 
ATOM     24  C   UNL     1       2.964  13.851  19.168  0.00  0.00    +0.000 A 
ATOM     25  C   UNL     1       3.079  13.910  20.570  0.00  0.00    +0.000 A 
ATOM     26  N   UNL     1       2.037  13.346  21.189  0.00  0.00    +0.000 NA
ENDBRANCH  21  22
ENDBRANCH  20  21
ENDBRANCH  17  20
ENDBRANCH   6  14
TORSDOF 4
ENDMDL
MODEL 8
REMARK VINA RESULT:      -7.0      2.930      3.710
REMARK  Name = 
REMARK  5 active torsions:
REMARK  status: ('A' for Active; 'I' for Inactive)
REMARK    1  A    between atoms: C_1  and  C_2
REMARK    2  A    between atoms: C_6  and  N_7
REMARK    3  A    between atoms: C_10  and  C_11
REMARK    4  A    between atoms: C_11  and  C_12
REMARK    5  A    between atoms: C_12  and  N_13
REMARK                            x       y       z     vdW  Elec       q    Type
REMARK                         _______ _______ _______ _____ _____    ______ ____
ROOT
ATOM      1  C   UNL     1       4.915   6.681  16.195  0.00  0.00    +0.000 C 
ATOM      2  C   UNL     1       4.176   6.343  17.456  0.00  0.00    +0.000 A 
ATOM      3  N   UNL     1       4.317   5.098  17.928  0.00  0.00    +0.000 NA
ATOM      4  C   UNL     1       3.590   4.781  19.017  0.00  0.00    +0.000 A 
ATOM      5  C   UNL     1       2.725   5.676  19.637  0.00  0.00    +0.000 A 
ATOM      6  C   UNL     1       2.679   6.966  19.104  0.00  0.00    +0.000 A 
ATOM      7  N   UNL     1       3.394   7.288  18.003  0.00  0.00    +0.000 NA
ATOM      8  C   UNL     1       1.835   5.182  20.751  0.00  0.00    +0.000 C 
ATOM      9  C   UNL     1       0.850   4.090  20.325  0.00  0.00    +0.000 C 
ATOM     10  N   UNL     1       1.424   2.744  20.335  0.00  0.00    +0.000 NA
ATOM     11  C   UNL     1       2.436   2.553  19.289  0.00  0.00    +0.000 C 
ATOM     12  C   UNL     1       3.720   3.361  19.502  0.00  0.00    +0.000 C 
ATOM     13  H   UNL     1       0.669   2.073  20.178  0.00  0.00    +0.000 HD
ENDROOT
BRANCH   6  14
ATOM     14  N   UNL     1       1.830   7.934  19.613  0.00  0.00    +0.000 N 
ATOM     15  C   UNL     1       1.576   8.054  21.047  0.00  0.00    +0.000 C 
ATOM     16  C   UNL     1       0.073   8.345  21.204  0.00  0.00    +0.000 C 
ATOM     17  C   UNL     1      -0.345   9.610  20.426  0.00  0.00    +0.000 C 
ATOM     18  C   UNL     1       0.150   9.515  18.963  0.00  0.00    +0.000 C 
ATOM     19  C   UNL     1       1.642   9.172  18.864  0.00  0.00    +0.000 C 
BRANCH  17  20
ATOM     20  C   UNL     1       0.150  10.859  21.173  0.00  0.00    +0.000 C 
BRANCH  20  21
ATOM     21  C   UNL     1      -0.397  10.973  22.591  0.00  0.00    +0.000 C 
BRANCH  21  22
ATOM     22  N   UNL     1      -1.152  12.199  22.759  0.00  0.00    +0.000 N 
ATOM     23  C   UNL     1      -2.426  12.431  22.329  0.00  0.00    +0.000 A 
ATOM     24  C   UNL     1      -2.712  13.728  22.683  0.00  0.00    +0.000 A 
ATOM     25  C   UNL     1      -1.540  14.193  23.310  0.00  0.00    +0.000 A 
ATOM     26  N   UNL     1      -0.585  13.259  23.358  0.00  0.00    +0.000 NA
ENDBRANCH  21  22
ENDBRANCH  20  21
ENDBRANCH  17  20
ENDBRANCH   6  14
TORSDOF 4
ENDMDL
MODEL 9
REMARK VINA RESULT:      -7.0      2.568      4.069
REMARK  Name = 
REMARK  5 active torsions:
REMARK  status: ('A' for Active; 'I' for Inactive)
REMARK    1  A    between atoms: C_1  and  C_2
REMARK    2  A    between atoms: C_6  and  N_7
REMARK    3  A    between atoms: C_10  and  C_11
REMARK    4  A    between atoms: C_11  and  C_12
REMARK    5  A    between atoms: C_12  and  N_13
REMARK                            x       y       z     vdW  Elec       q    Type
REMARK                         _______ _______ _______ _____ _____    ______ ____
ROOT
ATOM      1  C   UNL     1       2.767   1.812  18.703  0.00  0.00    +0.000 C 
ATOM      2  C   UNL     1       3.235   3.110  18.115  0.00  0.00    +0.000 A 
ATOM      3  N   UNL     1       4.279   3.057  17.278  0.00  0.00    +0.000 NA
ATOM      4  C   UNL     1       4.740   4.235  16.816  0.00  0.00    +0.000 A 
ATOM      5  C   UNL     1       4.188   5.460  17.176  0.00  0.00    +0.000 A 
ATOM      6  C   UNL     1       3.073   5.415  18.017  0.00  0.00    +0.000 A 
ATOM      7  N   UNL     1       2.613   4.238  18.496  0.00  0.00    +0.000 NA
ATOM      8  C   UNL     1       4.872   6.730  16.736  0.00  0.00    +0.000 C 
ATOM      9  C   UNL     1       6.295   6.893  17.279  0.00  0.00    +0.000 C 
ATOM     10  N   UNL     1       7.311   6.201  16.486  0.00  0.00    +0.000 NA
ATOM     11  C   UNL     1       7.202   4.740  16.578  0.00  0.00    +0.000 C 
ATOM     12  C   UNL     1       5.948   4.160  15.918  0.00  0.00    +0.000 C 
ATOM     13  H   UNL     1       8.231   6.477  16.833  0.00  0.00    +0.000 HD
ENDROOT
BRANCH   6  14
ATOM     14  N   UNL     1       2.459   6.569  18.473  0.00  0.00    +0.000 N 
ATOM     15  C   UNL     1       1.939   7.576  17.552  0.00  0.00    +0.000 C 
ATOM     16  C   UNL     1       2.295   8.947  18.153  0.00  0.00    +0.000 C 
ATOM     17  C   UNL     1       1.727   9.106  19.580  0.00  0.00    +0.000 C 
ATOM     18  C   UNL     1       2.132   7.890  20.445  0.00  0.00    +0.000 C 
ATOM     19  C   UNL     1       1.802   6.550  19.775  0.00  0.00    +0.000 C 
BRANCH  17  20
ATOM     20  C   UNL     1       0.210   9.341  19.504  0.00  0.00    +0.000 C 
BRANCH  20  21
ATOM     21  C   UNL     1      -0.196  10.781  19.798  0.00  0.00    +0.000 C 
BRANCH  21  22
ATOM     22  N   UNL     1      -0.682  10.917  21.156  0.00  0.00    +0.000 N 
ATOM     23  C   UNL     1      -1.356  11.985  21.672  0.00  0.00    +0.000 A 
ATOM     24  C   UNL     1      -1.585  11.683  22.992  0.00  0.00    +0.000 A 
ATOM     25  C   UNL     1      -0.998  10.417  23.176  0.00  0.00    +0.000 A 
ATOM     26  N   UNL     1      -0.446   9.946  22.054  0.00  0.00    +0.000 NA
ENDBRANCH  21  22
ENDBRANCH  20  21
ENDBRANCH  17  20
ENDBRANCH   6  14
TORSDOF 4
ENDMDL
