MODEL 1
REMARK VINA RESULT:      -7.6      0.000      0.000
REMARK  Name = 
REMARK  7 active torsions:
REMARK  status: ('A' for Active; 'I' for Inactive)
REMARK    1  A    between atoms: C_2  and  C_3
REMARK    2  A    between atoms: C_5  and  C_6
REMARK    3  A    between atoms: C_6  and  C_7
REMARK    4  A    between atoms: C_14  and  N_15
REMARK    5  A    between atoms: N_15  and  C_16
REMARK    6  A    between atoms: C_16  and  C_17
REMARK    7  A    between atoms: C_17  and  N_18
REMARK                            x       y       z     vdW  Elec       q    Type
REMARK                         _______ _______ _______ _____ _____    ______ ____
ROOT
ATOM      1  C   UNL     1       6.966   4.818  16.789  0.00  0.00    +0.000 A 
ATOM      2  N   UNL     1       7.581   5.320  15.658  0.00  0.00    +0.000 NA
ATOM      3  C   UNL     1       6.882   4.789  14.670  0.00  0.00    +0.000 A 
ATOM      4  O   UNL     1       5.892   3.942  15.074  0.00  0.00    +0.000 OA
ATOM      5  C   UNL     1       5.925   3.975  16.443  0.00  0.00    +0.000 A 
ENDROOT
BRANCH   1   7
ATOM      6  N   UNL     1       7.864   5.371  19.158  0.00  0.00    +0.000 NA
ATOM      7  C   UNL     1       7.460   5.117  18.102  0.00  0.00    +0.000 C 
ENDBRANCH   1   7
BRANCH   5   8
ATOM      8  N   UNL     1       4.974   3.246  17.077  0.00  0.00    +0.000 N 
ATOM      9  H   UNL     1       4.966   2.235  16.952  0.00  0.00    +0.000 HD
BRANCH   8  10
ATOM     10  C   UNL     1       3.640   3.848  17.216  0.00  0.00    +0.000 C 
BRANCH  10  11
ATOM     11  C   UNL     1       3.441   4.529  18.588  0.00  0.00    +0.000 C 
BRANCH  11  12
ATOM     12  N   UNL     1       2.023   4.628  19.003  0.00  0.00    +0.000 NA
ATOM     13  C   UNL     1       1.898   4.964  20.440  0.00  0.00    +0.000 C 
ATOM     14  C   UNL     1       2.190   3.778  21.379  0.00  0.00    +0.000 C 
ATOM     15  O   UNL     1       1.358   2.652  21.074  0.00  0.00    +0.000 OA
ATOM     16  C   UNL     1       1.524   2.253  19.708  0.00  0.00    +0.000 C 
ATOM     17  C   UNL     1       1.216   3.416  18.752  0.00  0.00    +0.000 C 
ENDBRANCH  11  12
ENDBRANCH  10  11
ENDBRANCH   8  10
ENDBRANCH   5   8
BRANCH   3  18
ATOM     18  C   UNL     1       7.043   4.938  13.196  0.00  0.00    +0.000 C 
BRANCH  18  19
ATOM     19  C   UNL     1       6.565   3.737  12.408  0.00  0.00    +0.000 A 
ATOM     20  C   UNL     1       7.483   2.804  11.907  0.00  0.00    +0.000 A 
ATOM     21  C   UNL     1       7.041   1.692  11.188  0.00  0.00    +0.000 A 
ATOM     22  C   UNL     1       5.680   1.506  10.952  0.00  0.00    +0.000 A 
ATOM     23  C   UNL     1       4.759   2.436  11.426  0.00  0.00    +0.000 A 
ATOM     24  C   UNL     1       5.198   3.549  12.148  0.00  0.00    +0.000 A 
ENDBRANCH  18  19
ENDBRANCH   3  18
TORSDOF 7
ENDMDL
MODEL 2
REMARK VINA RESULT:      -7.5      0.784      1.189
REMARK  Name = 
REMARK  7 active torsions:
REMARK  status: ('A' for Active; 'I' for Inactive)
REMARK    1  A    between atoms: C_2  and  C_3
REMARK    2  A    between atoms: C_5  and  C_6
REMARK    3  A    between atoms: C_6  and  C_7
REMARK    4  A    between atoms: C_14  and  N_15
REMARK    5  A    between atoms: N_15  and  C_16
REMARK    6  A    between atoms: C_16  and  C_17
REMARK    7  A    between atoms: C_17  and  N_18
REMARK                            x       y       z     vdW  Elec       q    Type
REMARK                         _______ _______ _______ _____ _____    ______ ____
ROOT
ATOM      1  C   UNL     1       6.891   4.719  16.562  0.00  0.00    +0.000 A 
ATOM      2  N   UNL     1       7.636   4.987  15.429  0.00  0.00    +0.000 NA
ATOM      3  C   UNL     1       6.793   4.736  14.443  0.00  0.00    +0.000 A 
ATOM      4  O   UNL     1       5.573   4.280  14.849  0.00  0.00    +0.000 OA
ATOM      5  C   UNL     1       5.622   4.290  16.218  0.00  0.00    +0.000 A 
ENDROOT
BRANCH   1   7
ATOM      6  N   UNL     1       7.939   4.904  18.926  0.00  0.00    +0.000 NA
ATOM      7  C   UNL     1       7.464   4.821  17.872  0.00  0.00    +0.000 C 
ENDBRANCH   1   7
BRANCH   5   8
ATOM      8  N   UNL     1       4.480   3.929  16.854  0.00  0.00    +0.000 N 
ATOM      9  H   UNL     1       3.898   3.202  16.443  0.00  0.00    +0.000 HD
BRANCH   8  10
ATOM     10  C   UNL     1       3.728   4.985  17.547  0.00  0.00    +0.000 C 
BRANCH  10  11
ATOM     11  C   UNL     1       3.365   4.597  18.997  0.00  0.00    +0.000 C 
BRANCH  11  12
ATOM     12  N   UNL     1       3.089   3.153  19.174  0.00  0.00    +0.000 NA
ATOM     13  C   UNL     1       1.672   2.829  18.888  0.00  0.00    +0.000 C 
ATOM     14  C   UNL     1       0.704   3.251  20.011  0.00  0.00    +0.000 C 
ATOM     15  O   UNL     1       1.082   2.681  21.270  0.00  0.00    +0.000 OA
ATOM     16  C   UNL     1       2.424   3.048  21.611  0.00  0.00    +0.000 C 
ATOM     17  C   UNL     1       3.411   2.618  20.514  0.00  0.00    +0.000 C 
ENDBRANCH  11  12
ENDBRANCH  10  11
ENDBRANCH   8  10
ENDBRANCH   5   8
BRANCH   3  18
ATOM     18  C   UNL     1       6.988   4.831  12.969  0.00  0.00    +0.000 C 
BRANCH  18  19
ATOM     19  C   UNL     1       6.576   3.583  12.219  0.00  0.00    +0.000 A 
ATOM     20  C   UNL     1       7.542   2.690  11.736  0.00  0.00    +0.000 A 
ATOM     21  C   UNL     1       7.161   1.534  11.053  0.00  0.00    +0.000 A 
ATOM     22  C   UNL     1       5.812   1.262  10.834  0.00  0.00    +0.000 A 
ATOM     23  C   UNL     1       4.841   2.151  11.291  0.00  0.00    +0.000 A 
ATOM     24  C   UNL     1       5.220   3.308  11.977  0.00  0.00    +0.000 A 
ENDBRANCH  18  19
ENDBRANCH   3  18
TORSDOF 7
ENDMDL
MODEL 3
REMARK VINA RESULT:      -7.5      0.247      1.028
REMARK  Name = 
REMARK  7 active torsions:
REMARK  status: ('A' for Active; 'I' for Inactive)
REMARK    1  A    between atoms: C_2  and  C_3
REMARK    2  A    between atoms: C_5  and  C_6
REMARK    3  A    between atoms: C_6  and  C_7
REMARK    4  A    between atoms: C_14  and  N_15
REMARK    5  A    between atoms: N_15  and  C_16
REMARK    6  A    between atoms: C_16  and  C_17
REMARK    7  A    between atoms: C_17  and  N_18
REMARK                            x       y       z     vdW  Elec       q    Type
REMARK                         _______ _______ _______ _____ _____    ______ ____
ROOT
ATOM      1  C   UNL     1       6.943   4.803  16.790  0.00  0.00    +0.000 A 
ATOM      2  N   UNL     1       7.584   5.269  15.658  0.00  0.00    +0.000 NA
ATOM      3  C   UNL     1       6.881   4.741  14.671  0.00  0.00    +0.000 A 
ATOM      4  O   UNL     1       5.864   3.929  15.077  0.00  0.00    +0.000 OA
ATOM      5  C   UNL     1       5.883   3.984  16.446  0.00  0.00    +0.000 A 
ENDROOT
BRANCH   1   7
ATOM      6  N   UNL     1       7.823   5.371  19.162  0.00  0.00    +0.000 NA
ATOM      7  C   UNL     1       7.431   5.110  18.103  0.00  0.00    +0.000 C 
ENDBRANCH   1   7
BRANCH   5   8
ATOM      8  N   UNL     1       4.904   3.292  17.081  0.00  0.00    +0.000 N 
ATOM      9  H   UNL     1       4.845   2.285  16.942  0.00  0.00    +0.000 HD
BRANCH   8  10
ATOM     10  C   UNL     1       3.604   3.957  17.246  0.00  0.00    +0.000 C 
BRANCH  10  11
ATOM     11  C   UNL     1       3.410   4.529  18.667  0.00  0.00    +0.000 C 
BRANCH  11  12
ATOM     12  N   UNL     1       1.993   4.617  19.085  0.00  0.00    +0.000 NA
ATOM     13  C   UNL     1       1.867   4.953  20.522  0.00  0.00    +0.000 C 
ATOM     14  C   UNL     1       2.171   3.770  21.461  0.00  0.00    +0.000 C 
ATOM     15  O   UNL     1       1.348   2.637  21.160  0.00  0.00    +0.000 OA
ATOM     16  C   UNL     1       1.514   2.239  19.793  0.00  0.00    +0.000 C 
ATOM     17  C   UNL     1       1.195   3.398  18.837  0.00  0.00    +0.000 C 
ENDBRANCH  11  12
ENDBRANCH  10  11
ENDBRANCH   8  10
ENDBRANCH   5   8
BRANCH   3  18
ATOM     18  C   UNL     1       7.063   4.860  13.197  0.00  0.00    +0.000 C 
BRANCH  18  19
ATOM     19  C   UNL     1       6.378   3.764  12.409  0.00  0.00    +0.000 A 
ATOM     20  C   UNL     1       5.000   3.823  12.158  0.00  0.00    +0.000 A 
ATOM     21  C   UNL     1       4.370   2.817  11.423  0.00  0.00    +0.000 A 
ATOM     22  C   UNL     1       5.107   1.736  10.942  0.00  0.00    +0.000 A 
ATOM     23  C   UNL     1       6.473   1.654  11.202  0.00  0.00    +0.000 A 
ATOM     24  C   UNL     1       7.106   2.660  11.935  0.00  0.00    +0.000 A 
ENDBRANCH  18  19
ENDBRANCH   3  18
TORSDOF 7
ENDMDL
MODEL 4
REMARK VINA RESULT:      -7.4      4.410      8.224
REMARK  Name = 
REMARK  7 active torsions:
REMARK  status: ('A' for Active; 'I' for Inactive)
REMARK    1  A    between atoms: C_2  and  C_3
REMARK    2  A    between atoms: C_5  and  C_6
REMARK    3  A    between atoms: C_6  and  C_7
REMARK    4  A    between atoms: C_14  and  N_15
REMARK    5  A    between atoms: N_15  and  C_16
REMARK    6  A    between atoms: C_16  and  C_17
REMARK    7  A    between atoms: C_17  and  N_18
REMARK                            x       y       z     vdW  Elec       q    Type
REMARK                         _______ _______ _______ _____ _____    ______ ____
ROOT
ATOM      1  C   UNL     1       6.376   5.615  17.624  0.00  0.00    +0.000 A 
ATOM      2  N   UNL     1       5.106   5.125  17.861  0.00  0.00    +0.000 NA
ATOM      3  C   UNL     1       4.337   6.191  17.718  0.00  0.00    +0.000 A 
ATOM      4  O   UNL     1       5.018   7.343  17.454  0.00  0.00    +0.000 OA
ATOM      5  C   UNL     1       6.335   6.973  17.368  0.00  0.00    +0.000 A 
ENDROOT
BRANCH   1   7
ATOM      6  N   UNL     1       8.458   4.080  17.823  0.00  0.00    +0.000 NA
ATOM      7  C   UNL     1       7.531   4.772  17.733  0.00  0.00    +0.000 C 
ENDBRANCH   1   7
BRANCH   5   8
ATOM      8  N   UNL     1       7.208   7.959  17.045  0.00  0.00    +0.000 N 
ATOM      9  H   UNL     1       7.567   8.005  16.093  0.00  0.00    +0.000 HD
BRANCH   8  10
ATOM     10  C   UNL     1       8.171   8.374  18.075  0.00  0.00    +0.000 C 
BRANCH  10  11
ATOM     11  C   UNL     1       8.339   9.908  18.141  0.00  0.00    +0.000 C 
BRANCH  11  12
ATOM     12  N   UNL     1       9.664  10.340  18.641  0.00  0.00    +0.000 NA
ATOM     13  C   UNL     1       9.577  10.885  20.016  0.00  0.00    +0.000 C 
ATOM     14  C   UNL     1       8.983  12.305  20.080  0.00  0.00    +0.000 C 
ATOM     15  O   UNL     1       9.711  13.216  19.248  0.00  0.00    +0.000 OA
ATOM     16  C   UNL     1       9.739  12.753  17.892  0.00  0.00    +0.000 C 
ATOM     17  C   UNL     1      10.349  11.345  17.801  0.00  0.00    +0.000 C 
ENDBRANCH  11  12
ENDBRANCH  10  11
ENDBRANCH   8  10
ENDBRANCH   5   8
BRANCH   3  18
ATOM     18  C   UNL     1       2.860   6.330  17.848  0.00  0.00    +0.000 C 
BRANCH  18  19
ATOM     19  C   UNL     1       2.211   5.214  18.637  0.00  0.00    +0.000 A 
ATOM     20  C   UNL     1       2.177   5.259  20.038  0.00  0.00    +0.000 A 
ATOM     21  C   UNL     1       1.571   4.234  20.766  0.00  0.00    +0.000 A 
ATOM     22  C   UNL     1       1.001   3.148  20.104  0.00  0.00    +0.000 A 
ATOM     23  C   UNL     1       1.045   3.080  18.714  0.00  0.00    +0.000 A 
ATOM     24  C   UNL     1       1.650   4.105  17.983  0.00  0.00    +0.000 A 
ENDBRANCH  18  19
ENDBRANCH   3  18
TORSDOF 7
ENDMDL
MODEL 5
REMARK VINA RESULT:      -7.3      3.516      8.929
REMARK  Name = 
REMARK  7 active torsions:
REMARK  status: ('A' for Active; 'I' for Inactive)
REMARK    1  A    between atoms: C_2  and  C_3
REMARK    2  A    between atoms: C_5  and  C_6
REMARK    3  A    between atoms: C_6  and  C_7
REMARK    4  A    between atoms: C_14  and  N_15
REMARK    5  A    between atoms: N_15  and  C_16
REMARK    6  A    between atoms: C_16  and  C_17
REMARK    7  A    between atoms: C_17  and  N_18
REMARK                            x       y       z     vdW  Elec       q    Type
REMARK                         _______ _______ _______ _____ _____    ______ ____
ROOT
ATOM      1  C   UNL     1       2.162   4.985  20.465  0.00  0.00    +0.000 A 
ATOM      2  N   UNL     1       1.633   6.217  20.799  0.00  0.00    +0.000 NA
ATOM      3  C   UNL     1       2.031   6.998  19.810  0.00  0.00    +0.000 A 
ATOM      4  O   UNL     1       2.817   6.377  18.885  0.00  0.00    +0.000 OA
ATOM      5  C   UNL     1       2.886   5.069  19.289  0.00  0.00    +0.000 A 
ENDROOT
BRANCH   1   7
ATOM      6  N   UNL     1       1.862   2.934  22.023  0.00  0.00    +0.000 NA
ATOM      7  C   UNL     1       2.001   3.847  21.322  0.00  0.00    +0.000 C 
ENDBRANCH   1   7
BRANCH   5   8
ATOM      8  N   UNL     1       3.576   4.233  18.475  0.00  0.00    +0.000 N 
ATOM      9  H   UNL     1       3.068   3.507  17.972  0.00  0.00    +0.000 HD
BRANCH   8  10
ATOM     10  C   UNL     1       4.929   3.842  18.896  0.00  0.00    +0.000 C 
BRANCH  10  11
ATOM     11  C   UNL     1       5.820   5.061  19.220  0.00  0.00    +0.000 C 
BRANCH  11  12
ATOM     12  N   UNL     1       7.198   4.948  18.690  0.00  0.00    +0.000 NA
ATOM     13  C   UNL     1       7.947   6.216  18.843  0.00  0.00    +0.000 C 
ATOM     14  C   UNL     1       7.542   7.299  17.824  0.00  0.00    +0.000 C 
ATOM     15  O   UNL     1       7.669   6.826  16.478  0.00  0.00    +0.000 OA
ATOM     16  C   UNL     1       6.885   5.643  16.280  0.00  0.00    +0.000 C 
ATOM     17  C   UNL     1       7.287   4.540  17.273  0.00  0.00    +0.000 C 
ENDBRANCH  11  12
ENDBRANCH  10  11
ENDBRANCH   8  10
ENDBRANCH   5   8
BRANCH   3  18
ATOM     18  C   UNL     1       1.790   8.451  19.581  0.00  0.00    +0.000 C 
BRANCH  18  19
ATOM     19  C   UNL     1       0.971   9.110  20.670  0.00  0.00    +0.000 A 
ATOM     20  C   UNL     1      -0.085   9.971  20.343  0.00  0.00    +0.000 A 
ATOM     21  C   UNL     1      -0.847  10.572  21.346  0.00  0.00    +0.000 A 
ATOM     22  C   UNL     1      -0.555  10.329  22.687  0.00  0.00    +0.000 A 
ATOM     23  C   UNL     1       0.504   9.491  23.027  0.00  0.00    +0.000 A 
ATOM     24  C   UNL     1       1.267   8.887  22.025  0.00  0.00    +0.000 A 
ENDBRANCH  18  19
ENDBRANCH   3  18
TORSDOF 7
ENDMDL
MODEL 6
REMARK VINA RESULT:      -7.2      4.462      8.339
REMARK  Name = 
REMARK  7 active torsions:
REMARK  status: ('A' for Active; 'I' for Inactive)
REMARK    1  A    between atoms: C_2  and  C_3
REMARK    2  A    between atoms: C_5  and  C_6
REMARK    3  A    between atoms: C_6  and  C_7
REMARK    4  A    between atoms: C_14  and  N_15
REMARK    5  A    between atoms: N_15  and  C_16
REMARK    6  A    between atoms: C_16  and  C_17
REMARK    7  A    between atoms: C_17  and  N_18
REMARK                            x       y       z     vdW  Elec       q    Type
REMARK                         _______ _______ _______ _____ _____    ______ ____
ROOT
ATOM      1  C   UNL     1       6.418   5.657  17.644  0.00  0.00    +0.000 A 
ATOM      2  N   UNL     1       5.139   5.189  17.878  0.00  0.00    +0.000 NA
ATOM      3  C   UNL     1       4.389   6.268  17.733  0.00  0.00    +0.000 A 
ATOM      4  O   UNL     1       5.089   7.409  17.472  0.00  0.00    +0.000 OA
ATOM      5  C   UNL     1       6.400   7.016  17.389  0.00  0.00    +0.000 A 
ENDROOT
BRANCH   1   7
ATOM      6  N   UNL     1       8.476   4.090  17.835  0.00  0.00    +0.000 NA
ATOM      7  C   UNL     1       7.559   4.795  17.755  0.00  0.00    +0.000 C 
ENDBRANCH   1   7
BRANCH   5   8
ATOM      8  N   UNL     1       7.290   7.988  17.069  0.00  0.00    +0.000 N 
ATOM      9  H   UNL     1       7.781   7.931  16.179  0.00  0.00    +0.000 HD
BRANCH   8  10
ATOM     10  C   UNL     1       8.087   8.562  18.163  0.00  0.00    +0.000 C 
BRANCH  10  11
ATOM     11  C   UNL     1       8.856   9.830  17.730  0.00  0.00    +0.000 C 
BRANCH  11  12
ATOM     12  N   UNL     1       8.717  10.961  18.675  0.00  0.00    +0.000 NA
ATOM     13  C   UNL     1       8.761  12.266  17.975  0.00  0.00    +0.000 C 
ATOM     14  C   UNL     1      10.178  12.682  17.533  0.00  0.00    +0.000 C 
ATOM     15  O   UNL     1      11.087  12.700  18.640  0.00  0.00    +0.000 OA
ATOM     16  C   UNL     1      11.126  11.422  19.286  0.00  0.00    +0.000 C 
ATOM     17  C   UNL     1       9.726  10.996  19.754  0.00  0.00    +0.000 C 
ENDBRANCH  11  12
ENDBRANCH  10  11
ENDBRANCH   8  10
ENDBRANCH   5   8
BRANCH   3  18
ATOM     18  C   UNL     1       2.914   6.432  17.859  0.00  0.00    +0.000 C 
BRANCH  18  19
ATOM     19  C   UNL     1       2.241   5.312  18.624  0.00  0.00    +0.000 A 
ATOM     20  C   UNL     1       1.704   4.210  17.946  0.00  0.00    +0.000 A 
ATOM     21  C   UNL     1       1.092   3.173  18.652  0.00  0.00    +0.000 A 
ATOM     22  C   UNL     1       0.998   3.231  20.041  0.00  0.00    +0.000 A 
ATOM     23  C   UNL     1       1.509   4.331  20.726  0.00  0.00    +0.000 A 
ATOM     24  C   UNL     1       2.124   5.369  20.023  0.00  0.00    +0.000 A 
ENDBRANCH  18  19
ENDBRANCH   3  18
TORSDOF 7
ENDMDL
MODEL 7
REMARK VINA RESULT:      -7.1      0.740      1.557
REMARK  Name = 
REMARK  7 active torsions:
REMARK  status: ('A' for Active; 'I' for Inactive)
REMARK    1  A    between atoms: C_2  and  C_3
REMARK    2  A    between atoms: C_5  and  C_6
REMARK    3  A    between atoms: C_6  and  C_7
REMARK    4  A    between atoms: C_14  and  N_15
REMARK    5  A    between atoms: N_15  and  C_16
REMARK    6  A    between atoms: C_16  and  C_17
REMARK    7  A    between atoms: C_17  and  N_18
REMARK                            x       y       z     vdW  Elec       q    Type
REMARK                         _______ _______ _______ _____ _____    ______ ____
ROOT
ATOM      1  C   UNL     1       6.975   4.858  16.743  0.00  0.00    +0.000 A 
ATOM      2  N   UNL     1       7.571   5.376  15.609  0.00  0.00    +0.000 NA
ATOM      3  C   UNL     1       6.904   4.799  14.624  0.00  0.00    +0.000 A 
ATOM      4  O   UNL     1       5.953   3.911  15.033  0.00  0.00    +0.000 OA
ATOM      5  C   UNL     1       5.977   3.962  16.403  0.00  0.00    +0.000 A 
ENDROOT
BRANCH   1   7
ATOM      6  N   UNL     1       7.841   5.471  19.109  0.00  0.00    +0.000 NA
ATOM      7  C   UNL     1       7.447   5.197  18.054  0.00  0.00    +0.000 C 
ENDBRANCH   1   7
BRANCH   5   8
ATOM      8  N   UNL     1       5.058   3.196  17.041  0.00  0.00    +0.000 N 
ATOM      9  H   UNL     1       5.300   2.235  17.279  0.00  0.00    +0.000 HD
BRANCH   8  10
ATOM     10  C   UNL     1       3.647   3.393  16.683  0.00  0.00    +0.000 C 
BRANCH  10  11
ATOM     11  C   UNL     1       2.811   3.944  17.859  0.00  0.00    +0.000 C 
BRANCH  11  12
ATOM     12  N   UNL     1       3.509   3.881  19.164  0.00  0.00    +0.000 NA
ATOM     13  C   UNL     1       3.194   2.630  19.891  0.00  0.00    +0.000 C 
ATOM     14  C   UNL     1       1.792   2.623  20.531  0.00  0.00    +0.000 C 
ATOM     15  O   UNL     1       1.609   3.744  21.404  0.00  0.00    +0.000 OA
ATOM     16  C   UNL     1       1.827   4.974  20.702  0.00  0.00    +0.000 C 
ATOM     17  C   UNL     1       3.228   5.012  20.073  0.00  0.00    +0.000 C 
ENDBRANCH  11  12
ENDBRANCH  10  11
ENDBRANCH   8  10
ENDBRANCH   5   8
BRANCH   3  18
ATOM     18  C   UNL     1       7.065   4.938  13.149  0.00  0.00    +0.000 C 
BRANCH  18  19
ATOM     19  C   UNL     1       6.596   3.728  12.370  0.00  0.00    +0.000 A 
ATOM     20  C   UNL     1       5.229   3.506  12.156  0.00  0.00    +0.000 A 
ATOM     21  C   UNL     1       4.796   2.396  11.429  0.00  0.00    +0.000 A 
ATOM     22  C   UNL     1       5.724   1.489  10.918  0.00  0.00    +0.000 A 
ATOM     23  C   UNL     1       7.084   1.686  11.141  0.00  0.00    +0.000 A 
ATOM     24  C   UNL     1       7.520   2.798  11.866  0.00  0.00    +0.000 A 
ENDBRANCH  18  19
ENDBRANCH   3  18
TORSDOF 7
ENDMDL
MODEL 8
REMARK VINA RESULT:      -7.1      1.517      2.326
REMARK  Name = 
REMARK  7 active torsions:
REMARK  status: ('A' for Active; 'I' for Inactive)
REMARK    1  A    between atoms: C_2  and  C_3
REMARK    2  A    between atoms: C_5  and  C_6
REMARK    3  A    between atoms: C_6  and  C_7
REMARK    4  A    between atoms: C_14  and  N_15
REMARK    5  A    between atoms: N_15  and  C_16
REMARK    6  A    between atoms: C_16  and  C_17
REMARK    7  A    between atoms: C_17  and  N_18
REMARK                            x       y       z     vdW  Elec       q    Type
REMARK                         _______ _______ _______ _____ _____    ______ ____
ROOT
ATOM      1  C   UNL     1       5.299   5.760  16.543  0.00  0.00    +0.000 A 
ATOM      2  N   UNL     1       5.591   6.000  15.213  0.00  0.00    +0.000 NA
ATOM      3  C   UNL     1       6.482   5.067  14.925  0.00  0.00    +0.000 A 
ATOM      4  O   UNL     1       6.825   4.272  15.978  0.00  0.00    +0.000 OA
ATOM      5  C   UNL     1       6.046   4.700  17.022  0.00  0.00    +0.000 A 
ENDROOT
BRANCH   1   7
ATOM      6  N   UNL     1       3.655   7.285  17.846  0.00  0.00    +0.000 NA
ATOM      7  C   UNL     1       4.392   6.601  17.270  0.00  0.00    +0.000 C 
ENDBRANCH   1   7
BRANCH   5   8
ATOM      8  N   UNL     1       6.170   4.003  18.178  0.00  0.00    +0.000 N 
ATOM      9  H   UNL     1       6.781   3.188  18.198  0.00  0.00    +0.000 HD
BRANCH   8  10
ATOM     10  C   UNL     1       4.978   3.886  19.030  0.00  0.00    +0.000 C 
BRANCH  10  11
ATOM     11  C   UNL     1       3.904   2.960  18.416  0.00  0.00    +0.000 C 
BRANCH  11  12
ATOM     12  N   UNL     1       3.167   2.158  19.419  0.00  0.00    +0.000 NA
ATOM     13  C   UNL     1       1.792   1.847  18.964  0.00  0.00    +0.000 C 
ATOM     14  C   UNL     1       0.823   3.041  19.065  0.00  0.00    +0.000 C 
ATOM     15  O   UNL     1       0.781   3.570  20.396  0.00  0.00    +0.000 OA
ATOM     16  C   UNL     1       2.090   3.958  20.829  0.00  0.00    +0.000 C 
ATOM     17  C   UNL     1       3.069   2.776  20.758  0.00  0.00    +0.000 C 
ENDBRANCH  11  12
ENDBRANCH  10  11
ENDBRANCH   8  10
ENDBRANCH   5   8
BRANCH   3  18
ATOM     18  C   UNL     1       7.195   4.788  13.647  0.00  0.00    +0.000 C 
BRANCH  18  19
ATOM     19  C   UNL     1       6.451   3.842  12.729  0.00  0.00    +0.000 A 
ATOM     20  C   UNL     1       5.064   3.953  12.566  0.00  0.00    +0.000 A 
ATOM     21  C   UNL     1       4.379   3.087  11.712  0.00  0.00    +0.000 A 
ATOM     22  C   UNL     1       5.070   2.093  11.021  0.00  0.00    +0.000 A 
ATOM     23  C   UNL     1       6.446   1.958  11.190  0.00  0.00    +0.000 A 
ATOM     24  C   UNL     1       7.134   2.825  12.042  0.00  0.00    +0.000 A 
ENDBRANCH  18  19
ENDBRANCH   3  18
TORSDOF 7
ENDMDL
MODEL 9
REMARK VINA RESULT:      -7.0      1.116      1.682
REMARK  Name = 
REMARK  7 active torsions:
REMARK  status: ('A' for Active; 'I' for Inactive)
REMARK    1  A    between atoms: C_2  and  C_3
REMARK    2  A    between atoms: C_5  and  C_6
REMARK    3  A    between atoms: C_6  and  C_7
REMARK    4  A    between atoms: C_14  and  N_15
REMARK    5  A    between atoms: N_15  and  C_16
REMARK    6  A    between atoms: C_16  and  C_17
REMARK    7  A    between atoms: C_17  and  N_18
REMARK                            x       y       z     vdW  Elec       q    Type
REMARK                         _______ _______ _______ _____ _____    ______ ____
ROOT
ATOM      1  C   UNL     1       6.948   5.062  16.396  0.00  0.00    +0.000 A 
ATOM      2  N   UNL     1       7.752   4.840  15.294  0.00  0.00    +0.000 NA
ATOM      3  C   UNL     1       6.938   5.051  14.275  0.00  0.00    +0.000 A 
ATOM      4  O   UNL     1       5.655   5.346  14.632  0.00  0.00    +0.000 OA
ATOM      5  C   UNL     1       5.661   5.379  16.002  0.00  0.00    +0.000 A 
ENDROOT
BRANCH   1   7
ATOM      6  N   UNL     1       7.834   4.733  18.811  0.00  0.00    +0.000 NA
ATOM      7  C   UNL     1       7.444   4.884  17.729  0.00  0.00    +0.000 C 
ENDBRANCH   1   7
BRANCH   5   8
ATOM      8  N   UNL     1       4.488   5.720  16.591  0.00  0.00    +0.000 N 
ATOM      9  H   UNL     1       4.141   6.671  16.481  0.00  0.00    +0.000 HD
BRANCH   8  10
ATOM     10  C   UNL     1       4.183   5.112  17.894  0.00  0.00    +0.000 C 
BRANCH  10  11
ATOM     11  C   UNL     1       2.705   4.682  18.014  0.00  0.00    +0.000 C 
BRANCH  11  12
ATOM     12  N   UNL     1       2.517   3.217  18.108  0.00  0.00    +0.000 NA
ATOM     13  C   UNL     1       1.140   2.869  18.528  0.00  0.00    +0.000 C 
ATOM     14  C   UNL     1       0.878   3.096  20.030  0.00  0.00    +0.000 C 
ATOM     15  O   UNL     1       1.821   2.385  20.840  0.00  0.00    +0.000 OA
ATOM     16  C   UNL     1       3.162   2.766  20.510  0.00  0.00    +0.000 C 
ATOM     17  C   UNL     1       3.454   2.528  19.020  0.00  0.00    +0.000 C 
ENDBRANCH  11  12
ENDBRANCH  10  11
ENDBRANCH   8  10
ENDBRANCH   5   8
BRANCH   3  18
ATOM     18  C   UNL     1       7.198   4.970  12.810  0.00  0.00    +0.000 C 
BRANCH  18  19
ATOM     19  C   UNL     1       6.709   3.686  12.176  0.00  0.00    +0.000 A 
ATOM     20  C   UNL     1       5.338   3.407  12.099  0.00  0.00    +0.000 A 
ATOM     21  C   UNL     1       4.886   2.227  11.506  0.00  0.00    +0.000 A 
ATOM     22  C   UNL     1       5.800   1.307  10.993  0.00  0.00    +0.000 A 
ATOM     23  C   UNL     1       7.166   1.562  11.082  0.00  0.00    +0.000 A 
ATOM     24  C   UNL     1       7.620   2.742  11.673  0.00  0.00    +0.000 A 
ENDBRANCH  18  19
ENDBRANCH   3  18
TORSDOF 7
ENDMDL
