MODEL 1
REMARK VINA RESULT:      -8.7      0.000      0.000
REMARK  Name = 
REMARK  6 active torsions:
REMARK  status: ('A' for Active; 'I' for Inactive)
REMARK    1  A    between atoms: C_2  and  O_3
REMARK    2  A    between atoms: C_2  and  C_4
REMARK    3  A    between atoms: C_8  and  C_9
REMARK    4  A    between atoms: N_11  and  C_12
REMARK    5  A    between atoms: C_16  and  C_17
REMARK    6  A    between atoms: C_17  and  O_19
REMARK                            x       y       z     vdW  Elec       q    Type
REMARK                         _______ _______ _______ _____ _____    ______ ____
ROOT
ATOM      1  C   UNL     1       6.029   4.566  15.956  0.00  0.00    +0.000 A 
ATOM      2  C   UNL     1       4.743   4.698  16.424  0.00  0.00    +0.000 A 
ATOM      3  N   UNL     1       4.875   4.810  17.789  0.00  0.00    +0.000 N 
ATOM      4  N   UNL     1       6.183   4.738  18.124  0.00  0.00    +0.000 NA
ATOM      5  N   UNL     1       6.894   4.591  17.013  0.00  0.00    +0.000 NA
ENDROOT
BRANCH   1  10
ATOM      6  C   UNL     1       6.180   3.452  12.376  0.00  0.00    +0.000 A 
ATOM      7  C   UNL     1       7.221   4.244  11.877  0.00  0.00    +0.000 A 
ATOM      8  C   UNL     1       7.876   5.140  12.721  0.00  0.00    +0.000 A 
ATOM      9  C   UNL     1       7.487   5.252  14.059  0.00  0.00    +0.000 A 
ATOM     10  C   UNL     1       6.434   4.477  14.566  0.00  0.00    +0.000 A 
ATOM     11  C   UNL     1       5.776   3.585  13.710  0.00  0.00    +0.000 A 
BRANCH   6  13
ATOM     12  O   UNL     1       4.325   2.674  11.109  0.00  0.00    +0.000 OA
ATOM     13  C   UNL     1       5.455   2.481  11.520  0.00  0.00    +0.000 C 
BRANCH  13  14
ATOM     14  O   UNL     1       6.146   1.346  11.284  0.00  0.00    +0.000 OA
ATOM     15  H   UNL     1       6.314   1.150  10.345  0.00  0.00    +0.000 HD
ENDBRANCH  13  14
ENDBRANCH   6  13
ENDBRANCH   1  10
BRANCH   3  16
ATOM     16  C   UNL     1       3.861   5.018  18.757  0.00  0.00    +0.000 A 
ATOM     17  C   UNL     1       3.277   6.282  18.923  0.00  0.00    +0.000 A 
ATOM     18  C   UNL     1       2.284   6.475  19.884  0.00  0.00    +0.000 A 
ATOM     19  C   UNL     1       1.882   5.416  20.696  0.00  0.00    +0.000 A 
ATOM     20  C   UNL     1       2.468   4.152  20.551  0.00  0.00    +0.000 A 
ATOM     21  C   UNL     1       3.439   3.944  19.563  0.00  0.00    +0.000 A 
BRANCH  20  22
ATOM     22  C   UNL     1       1.991   3.064  21.443  0.00  0.00    +0.000 C 
ATOM     23  O   UNL     1       2.738   2.458  22.192  0.00  0.00    +0.000 OA
BRANCH  22  24
ATOM     24  O   UNL     1       0.682   2.769  21.310  0.00  0.00    +0.000 OA
ATOM     25  H   UNL     1       0.475   1.860  21.027  0.00  0.00    +0.000 HD
ENDBRANCH  22  24
ENDBRANCH  20  22
ENDBRANCH   3  16
TORSDOF 6
ENDMDL
MODEL 2
REMARK VINA RESULT:      -8.7      0.431      8.070
REMARK  Name = 
REMARK  6 active torsions:
REMARK  status: ('A' for Active; 'I' for Inactive)
REMARK    1  A    between atoms: C_2  and  O_3
REMARK    2  A    between atoms: C_2  and  C_4
REMARK    3  A    between atoms: C_8  and  C_9
REMARK    4  A    between atoms: N_11  and  C_12
REMARK    5  A    between atoms: C_16  and  C_17
REMARK    6  A    between atoms: C_17  and  O_19
REMARK                            x       y       z     vdW  Elec       q    Type
REMARK                         _______ _______ _______ _____ _____    ______ ____
ROOT
ATOM      1  C   UNL     1       4.907   5.003  17.847  0.00  0.00    +0.000 A 
ATOM      2  C   UNL     1       4.749   4.992  16.482  0.00  0.00    +0.000 A 
ATOM      3  N   UNL     1       5.999   4.707  15.985  0.00  0.00    +0.000 N 
ATOM      4  N   UNL     1       6.871   4.563  17.009  0.00  0.00    +0.000 NA
ATOM      5  N   UNL     1       6.214   4.740  18.147  0.00  0.00    +0.000 NA
ENDROOT
BRANCH   1  10
ATOM      6  C   UNL     1       2.431   4.275  20.571  0.00  0.00    +0.000 A 
ATOM      7  C   UNL     1       1.807   5.519  20.727  0.00  0.00    +0.000 A 
ATOM      8  C   UNL     1       2.200   6.595  19.931  0.00  0.00    +0.000 A 
ATOM      9  C   UNL     1       3.218   6.432  18.987  0.00  0.00    +0.000 A 
ATOM     10  C   UNL     1       3.861   5.196  18.834  0.00  0.00    +0.000 A 
ATOM     11  C   UNL     1       3.467   4.122  19.642  0.00  0.00    +0.000 A 
BRANCH   6  13
ATOM     12  O   UNL     1       2.849   2.456  22.044  0.00  0.00    +0.000 OA
ATOM     13  C   UNL     1       2.048   3.099  21.390  0.00  0.00    +0.000 C 
BRANCH  13  14
ATOM     14  O   UNL     1       0.739   2.780  21.300  0.00  0.00    +0.000 OA
ATOM     15  H   UNL     1       0.368   2.797  20.400  0.00  0.00    +0.000 HD
ENDBRANCH  13  14
ENDBRANCH   6  13
ENDBRANCH   1  10
BRANCH   3  16
ATOM     16  C   UNL     1       6.389   4.527  14.634  0.00  0.00    +0.000 A 
ATOM     17  C   UNL     1       7.458   5.256  14.093  0.00  0.00    +0.000 A 
ATOM     18  C   UNL     1       7.828   5.073  12.761  0.00  0.00    +0.000 A 
ATOM     19  C   UNL     1       7.125   4.179  11.955  0.00  0.00    +0.000 A 
ATOM     20  C   UNL     1       6.045   3.456  12.479  0.00  0.00    +0.000 A 
ATOM     21  C   UNL     1       5.692   3.608  13.826  0.00  0.00    +0.000 A 
BRANCH  20  22
ATOM     22  C   UNL     1       5.340   2.515  11.571  0.00  0.00    +0.000 C 
ATOM     23  O   UNL     1       4.256   2.772  11.076  0.00  0.00    +0.000 OA
BRANCH  22  24
ATOM     24  O   UNL     1       5.972   1.337  11.391  0.00  0.00    +0.000 OA
ATOM     25  H   UNL     1       5.766   0.863  10.565  0.00  0.00    +0.000 HD
ENDBRANCH  22  24
ENDBRANCH  20  22
ENDBRANCH   3  16
TORSDOF 6
ENDMDL
MODEL 3
REMARK VINA RESULT:      -8.2      0.823      1.057
REMARK  Name = 
REMARK  6 active torsions:
REMARK  status: ('A' for Active; 'I' for Inactive)
REMARK    1  A    between atoms: C_2  and  O_3
REMARK    2  A    between atoms: C_2  and  C_4
REMARK    3  A    between atoms: C_8  and  C_9
REMARK    4  A    between atoms: N_11  and  C_12
REMARK    5  A    between atoms: C_16  and  C_17
REMARK    6  A    between atoms: C_17  and  O_19
REMARK                            x       y       z     vdW  Elec       q    Type
REMARK                         _______ _______ _______ _____ _____    ______ ____
ROOT
ATOM      1  C   UNL     1       5.825   5.072  15.838  0.00  0.00    +0.000 A 
ATOM      2  C   UNL     1       4.581   4.781  16.343  0.00  0.00    +0.000 A 
ATOM      3  N   UNL     1       4.581   5.314  17.611  0.00  0.00    +0.000 N 
ATOM      4  N   UNL     1       5.780   5.891  17.859  0.00  0.00    +0.000 NA
ATOM      5  N   UNL     1       6.543   5.750  16.783  0.00  0.00    +0.000 NA
ENDROOT
BRANCH   1  10
ATOM      6  C   UNL     1       6.074   3.523  12.429  0.00  0.00    +0.000 A 
ATOM      7  C   UNL     1       7.223   4.142  11.920  0.00  0.00    +0.000 A 
ATOM      8  C   UNL     1       7.917   5.064  12.703  0.00  0.00    +0.000 A 
ATOM      9  C   UNL     1       7.462   5.376  13.987  0.00  0.00    +0.000 A 
ATOM     10  C   UNL     1       6.303   4.775  14.501  0.00  0.00    +0.000 A 
ATOM     11  C   UNL     1       5.607   3.856  13.707  0.00  0.00    +0.000 A 
BRANCH   6  13
ATOM     12  O   UNL     1       4.205   2.770  11.167  0.00  0.00    +0.000 OA
ATOM     13  C   UNL     1       5.303   2.532  11.639  0.00  0.00    +0.000 C 
BRANCH  13  14
ATOM     14  O   UNL     1       5.909   1.331  11.537  0.00  0.00    +0.000 OA
ATOM     15  H   UNL     1       6.812   1.289  11.901  0.00  0.00    +0.000 HD
ENDBRANCH  13  14
ENDBRANCH   6  13
ENDBRANCH   1  10
BRANCH   3  16
ATOM     16  C   UNL     1       3.524   5.342  18.555  0.00  0.00    +0.000 A 
ATOM     17  C   UNL     1       3.237   6.510  19.275  0.00  0.00    +0.000 A 
ATOM     18  C   UNL     1       2.198   6.523  20.206  0.00  0.00    +0.000 A 
ATOM     19  C   UNL     1       1.453   5.368  20.438  0.00  0.00    +0.000 A 
ATOM     20  C   UNL     1       1.739   4.190  19.736  0.00  0.00    +0.000 A 
ATOM     21  C   UNL     1       2.758   4.182  18.774  0.00  0.00    +0.000 A 
BRANCH  20  22
ATOM     22  C   UNL     1       0.905   2.995  20.025  0.00  0.00    +0.000 C 
ATOM     23  O   UNL     1       0.329   2.372  19.149  0.00  0.00    +0.000 OA
BRANCH  22  24
ATOM     24  O   UNL     1       0.795   2.698  21.336  0.00  0.00    +0.000 OA
ATOM     25  H   UNL     1       1.358   1.972  21.659  0.00  0.00    +0.000 HD
ENDBRANCH  22  24
ENDBRANCH  20  22
ENDBRANCH   3  16
TORSDOF 6
ENDMDL
MODEL 4
REMARK VINA RESULT:      -8.0      1.740      2.286
REMARK  Name = 
REMARK  6 active torsions:
REMARK  status: ('A' for Active; 'I' for Inactive)
REMARK    1  A    between atoms: C_2  and  O_3
REMARK    2  A    between atoms: C_2  and  C_4
REMARK    3  A    between atoms: C_8  and  C_9
REMARK    4  A    between atoms: N_11  and  C_12
REMARK    5  A    between atoms: C_16  and  C_17
REMARK    6  A    between atoms: C_17  and  O_19
REMARK                            x       y       z     vdW  Elec       q    Type
REMARK                         _______ _______ _______ _____ _____    ______ ____
ROOT
ATOM      1  C   UNL     1       5.988   4.450  16.097  0.00  0.00    +0.000 A 
ATOM      2  C   UNL     1       4.712   4.619  16.581  0.00  0.00    +0.000 A 
ATOM      3  N   UNL     1       4.856   4.671  17.947  0.00  0.00    +0.000 N 
ATOM      4  N   UNL     1       6.163   4.529  18.270  0.00  0.00    +0.000 NA
ATOM      5  N   UNL     1       6.859   4.395  17.149  0.00  0.00    +0.000 NA
ENDROOT
BRANCH   1  10
ATOM      6  C   UNL     1       6.082   3.458  12.480  0.00  0.00    +0.000 A 
ATOM      7  C   UNL     1       7.141   4.238  12.000  0.00  0.00    +0.000 A 
ATOM      8  C   UNL     1       7.827   5.086  12.870  0.00  0.00    +0.000 A 
ATOM      9  C   UNL     1       7.451   5.162  14.214  0.00  0.00    +0.000 A 
ATOM     10  C   UNL     1       6.381   4.398  14.702  0.00  0.00    +0.000 A 
ATOM     11  C   UNL     1       5.692   3.555  13.821  0.00  0.00    +0.000 A 
BRANCH   6  13
ATOM     12  O   UNL     1       4.244   2.823  11.112  0.00  0.00    +0.000 OA
ATOM     13  C   UNL     1       5.324   2.538  11.597  0.00  0.00    +0.000 C 
BRANCH  13  14
ATOM     14  O   UNL     1       5.921   1.340  11.424  0.00  0.00    +0.000 OA
ATOM     15  H   UNL     1       5.486   0.748  10.784  0.00  0.00    +0.000 HD
ENDBRANCH  13  14
ENDBRANCH   6  13
ENDBRANCH   1  10
BRANCH   3  16
ATOM     16  C   UNL     1       3.858   4.885  18.931  0.00  0.00    +0.000 A 
ATOM     17  C   UNL     1       3.382   3.823  19.712  0.00  0.00    +0.000 A 
ATOM     18  C   UNL     1       2.395   4.046  20.672  0.00  0.00    +0.000 A 
ATOM     19  C   UNL     1       1.865   5.322  20.847  0.00  0.00    +0.000 A 
ATOM     20  C   UNL     1       2.322   6.390  20.063  0.00  0.00    +0.000 A 
ATOM     21  C   UNL     1       3.338   6.179  19.122  0.00  0.00    +0.000 A 
BRANCH  20  22
ATOM     22  C   UNL     1       1.721   7.727  20.301  0.00  0.00    +0.000 C 
ATOM     23  O   UNL     1       1.225   8.041  21.371  0.00  0.00    +0.000 OA
BRANCH  22  24
ATOM     24  O   UNL     1       1.718   8.537  19.222  0.00  0.00    +0.000 OA
ATOM     25  H   UNL     1       0.847   8.713  18.822  0.00  0.00    +0.000 HD
ENDBRANCH  22  24
ENDBRANCH  20  22
ENDBRANCH   3  16
TORSDOF 6
ENDMDL
MODEL 5
REMARK VINA RESULT:      -8.0      4.685      6.259
REMARK  Name = 
REMARK  6 active torsions:
REMARK  status: ('A' for Active; 'I' for Inactive)
REMARK    1  A    between atoms: C_2  and  O_3
REMARK    2  A    between atoms: C_2  and  C_4
REMARK    3  A    between atoms: C_8  and  C_9
REMARK    4  A    between atoms: N_11  and  C_12
REMARK    5  A    between atoms: C_16  and  C_17
REMARK    6  A    between atoms: C_17  and  O_19
REMARK                            x       y       z     vdW  Elec       q    Type
REMARK                         _______ _______ _______ _____ _____    ______ ____
ROOT
ATOM      1  C   UNL     1       2.937   7.480  17.994  0.00  0.00    +0.000 A 
ATOM      2  C   UNL     1       2.095   7.810  19.029  0.00  0.00    +0.000 A 
ATOM      3  N   UNL     1       1.606   9.053  18.704  0.00  0.00    +0.000 N 
ATOM      4  N   UNL     1       2.140   9.456  17.528  0.00  0.00    +0.000 NA
ATOM      5  N   UNL     1       2.951   8.502  17.087  0.00  0.00    +0.000 NA
ENDROOT
BRANCH   1  10
ATOM      6  C   UNL     1       5.686   5.055  17.195  0.00  0.00    +0.000 A 
ATOM      7  C   UNL     1       5.069   3.827  17.466  0.00  0.00    +0.000 A 
ATOM      8  C   UNL     1       3.746   3.800  17.906  0.00  0.00    +0.000 A 
ATOM      9  C   UNL     1       3.043   4.995  18.084  0.00  0.00    +0.000 A 
ATOM     10  C   UNL     1       3.656   6.231  17.833  0.00  0.00    +0.000 A 
ATOM     11  C   UNL     1       4.987   6.251  17.398  0.00  0.00    +0.000 A 
BRANCH   6  13
ATOM     12  O   UNL     1       7.479   5.995  15.948  0.00  0.00    +0.000 OA
ATOM     13  C   UNL     1       7.089   5.138  16.721  0.00  0.00    +0.000 C 
BRANCH  13  14
ATOM     14  O   UNL     1       7.878   4.147  17.187  0.00  0.00    +0.000 OA
ATOM     15  H   UNL     1       8.003   4.136  18.153  0.00  0.00    +0.000 HD
ENDBRANCH  13  14
ENDBRANCH   6  13
ENDBRANCH   1  10
BRANCH   3  16
ATOM     16  C   UNL     1       0.656   9.837  19.406  0.00  0.00    +0.000 A 
ATOM     17  C   UNL     1      -0.150  10.763  18.728  0.00  0.00    +0.000 A 
ATOM     18  C   UNL     1      -1.077  11.532  19.431  0.00  0.00    +0.000 A 
ATOM     19  C   UNL     1      -1.193  11.398  20.813  0.00  0.00    +0.000 A 
ATOM     20  C   UNL     1      -0.383  10.486  21.505  0.00  0.00    +0.000 A 
ATOM     21  C   UNL     1       0.524   9.685  20.799  0.00  0.00    +0.000 A 
BRANCH  20  22
ATOM     22  C   UNL     1      -0.559  10.386  22.976  0.00  0.00    +0.000 C 
ATOM     23  O   UNL     1       0.213   9.764  23.687  0.00  0.00    +0.000 OA
BRANCH  22  24
ATOM     24  O   UNL     1      -1.670  10.989  23.446  0.00  0.00    +0.000 OA
ATOM     25  H   UNL     1      -2.216  10.464  24.058  0.00  0.00    +0.000 HD
ENDBRANCH  22  24
ENDBRANCH  20  22
ENDBRANCH   3  16
TORSDOF 6
ENDMDL
MODEL 6
REMARK VINA RESULT:      -7.9      1.112      7.945
REMARK  Name = 
REMARK  6 active torsions:
REMARK  status: ('A' for Active; 'I' for Inactive)
REMARK    1  A    between atoms: C_2  and  O_3
REMARK    2  A    between atoms: C_2  and  C_4
REMARK    3  A    between atoms: C_8  and  C_9
REMARK    4  A    between atoms: N_11  and  C_12
REMARK    5  A    between atoms: C_16  and  C_17
REMARK    6  A    between atoms: C_17  and  O_19
REMARK                            x       y       z     vdW  Elec       q    Type
REMARK                         _______ _______ _______ _____ _____    ______ ____
ROOT
ATOM      1  C   UNL     1       4.285   5.782  17.455  0.00  0.00    +0.000 A 
ATOM      2  C   UNL     1       4.502   4.885  16.436  0.00  0.00    +0.000 A 
ATOM      3  N   UNL     1       5.442   5.485  15.632  0.00  0.00    +0.000 N 
ATOM      4  N   UNL     1       5.767   6.696  16.142  0.00  0.00    +0.000 NA
ATOM      5  N   UNL     1       5.068   6.884  17.253  0.00  0.00    +0.000 NA
ENDROOT
BRANCH   1  10
ATOM      6  C   UNL     1       2.233   4.082  20.096  0.00  0.00    +0.000 A 
ATOM      7  C   UNL     1       1.709   5.176  20.795  0.00  0.00    +0.000 A 
ATOM      8  C   UNL     1       2.027   6.472  20.392  0.00  0.00    +0.000 A 
ATOM      9  C   UNL     1       2.874   6.677  19.299  0.00  0.00    +0.000 A 
ATOM     10  C   UNL     1       3.419   5.589  18.602  0.00  0.00    +0.000 A 
ATOM     11  C   UNL     1       3.101   4.290  19.017  0.00  0.00    +0.000 A 
BRANCH   6  13
ATOM     12  O   UNL     1       1.683   1.808  19.670  0.00  0.00    +0.000 OA
ATOM     13  C   UNL     1       1.922   2.683  20.482  0.00  0.00    +0.000 C 
BRANCH  13  14
ATOM     14  O   UNL     1       1.882   2.486  21.817  0.00  0.00    +0.000 OA
ATOM     15  H   UNL     1       1.034   2.705  22.243  0.00  0.00    +0.000 HD
ENDBRANCH  13  14
ENDBRANCH   6  13
ENDBRANCH   1  10
BRANCH   3  16
ATOM     16  C   UNL     1       6.062   4.970  14.465  0.00  0.00    +0.000 A 
ATOM     17  C   UNL     1       7.332   5.414  14.073  0.00  0.00    +0.000 A 
ATOM     18  C   UNL     1       7.927   4.904  12.919  0.00  0.00    +0.000 A 
ATOM     19  C   UNL     1       7.255   3.963  12.142  0.00  0.00    +0.000 A 
ATOM     20  C   UNL     1       5.978   3.521  12.516  0.00  0.00    +0.000 A 
ATOM     21  C   UNL     1       5.390   4.004  13.692  0.00  0.00    +0.000 A 
BRANCH  20  22
ATOM     22  C   UNL     1       5.316   2.514  11.648  0.00  0.00    +0.000 C 
ATOM     23  O   UNL     1       4.229   2.709  11.130  0.00  0.00    +0.000 OA
BRANCH  22  24
ATOM     24  O   UNL     1       5.989   1.350  11.533  0.00  0.00    +0.000 OA
ATOM     25  H   UNL     1       5.443   0.545  11.473  0.00  0.00    +0.000 HD
ENDBRANCH  22  24
ENDBRANCH  20  22
ENDBRANCH   3  16
TORSDOF 6
ENDMDL
MODEL 7
REMARK VINA RESULT:      -7.8      1.823      8.217
REMARK  Name = 
REMARK  6 active torsions:
REMARK  status: ('A' for Active; 'I' for Inactive)
REMARK    1  A    between atoms: C_2  and  O_3
REMARK    2  A    between atoms: C_2  and  C_4
REMARK    3  A    between atoms: C_8  and  C_9
REMARK    4  A    between atoms: N_11  and  C_12
REMARK    5  A    between atoms: C_16  and  C_17
REMARK    6  A    between atoms: C_17  and  O_19
REMARK                            x       y       z     vdW  Elec       q    Type
REMARK                         _______ _______ _______ _____ _____    ______ ____
ROOT
ATOM      1  C   UNL     1       4.787   4.866  17.862  0.00  0.00    +0.000 A 
ATOM      2  C   UNL     1       4.653   4.882  16.494  0.00  0.00    +0.000 A 
ATOM      3  N   UNL     1       5.913   4.616  16.013  0.00  0.00    +0.000 N 
ATOM      4  N   UNL     1       6.769   4.456  17.049  0.00  0.00    +0.000 NA
ATOM      5  N   UNL     1       6.090   4.606  18.180  0.00  0.00    +0.000 NA
ENDROOT
BRANCH   1  10
ATOM      6  C   UNL     1       2.232   6.501  20.071  0.00  0.00    +0.000 A 
ATOM      7  C   UNL     1       1.691   5.398  20.743  0.00  0.00    +0.000 A 
ATOM      8  C   UNL     1       2.173   4.118  20.472  0.00  0.00    +0.000 A 
ATOM      9  C   UNL     1       3.186   3.937  19.526  0.00  0.00    +0.000 A 
ATOM     10  C   UNL     1       3.723   5.032  18.833  0.00  0.00    +0.000 A 
ATOM     11  C   UNL     1       3.229   6.314  19.105  0.00  0.00    +0.000 A 
BRANCH   6  13
ATOM     12  O   UNL     1       1.529   8.682  19.434  0.00  0.00    +0.000 OA
ATOM     13  C   UNL     1       1.758   7.884  20.325  0.00  0.00    +0.000 C 
BRANCH  13  14
ATOM     14  O   UNL     1       1.652   8.187  21.636  0.00  0.00    +0.000 OA
ATOM     15  H   UNL     1       2.200   7.646  22.233  0.00  0.00    +0.000 HD
ENDBRANCH  13  14
ENDBRANCH   6  13
ENDBRANCH   1  10
BRANCH   3  16
ATOM     16  C   UNL     1       6.329   4.466  14.666  0.00  0.00    +0.000 A 
ATOM     17  C   UNL     1       7.390   5.226  14.154  0.00  0.00    +0.000 A 
ATOM     18  C   UNL     1       7.784   5.074  12.825  0.00  0.00    +0.000 A 
ATOM     19  C   UNL     1       7.113   4.178  11.995  0.00  0.00    +0.000 A 
ATOM     20  C   UNL     1       6.042   3.423  12.490  0.00  0.00    +0.000 A 
ATOM     21  C   UNL     1       5.664   3.546  13.833  0.00  0.00    +0.000 A 
BRANCH  20  22
ATOM     22  C   UNL     1       5.372   2.482  11.556  0.00  0.00    +0.000 C 
ATOM     23  O   UNL     1       5.896   1.446  11.182  0.00  0.00    +0.000 OA
BRANCH  22  24
ATOM     24  O   UNL     1       4.168   2.899  11.114  0.00  0.00    +0.000 OA
ATOM     25  H   UNL     1       3.444   2.884  11.766  0.00  0.00    +0.000 HD
ENDBRANCH  22  24
ENDBRANCH  20  22
ENDBRANCH   3  16
TORSDOF 6
ENDMDL
MODEL 8
REMARK VINA RESULT:      -7.8      5.291      8.793
REMARK  Name = 
REMARK  6 active torsions:
REMARK  status: ('A' for Active; 'I' for Inactive)
REMARK    1  A    between atoms: C_2  and  O_3
REMARK    2  A    between atoms: C_2  and  C_4
REMARK    3  A    between atoms: C_8  and  C_9
REMARK    4  A    between atoms: N_11  and  C_12
REMARK    5  A    between atoms: C_16  and  C_17
REMARK    6  A    between atoms: C_17  and  O_19
REMARK                            x       y       z     vdW  Elec       q    Type
REMARK                         _______ _______ _______ _____ _____    ______ ____
ROOT
ATOM      1  C   UNL     1       1.503   9.050  18.891  0.00  0.00    +0.000 A 
ATOM      2  C   UNL     1       2.212   8.420  17.897  0.00  0.00    +0.000 A 
ATOM      3  N   UNL     1       2.702   7.276  18.483  0.00  0.00    +0.000 N 
ATOM      4  N   UNL     1       2.311   7.229  19.778  0.00  0.00    +0.000 NA
ATOM      5  N   UNL     1       1.579   8.305  20.034  0.00  0.00    +0.000 NA
ENDROOT
BRANCH   1  10
ATOM      6  C   UNL     1      -1.254  11.419  17.959  0.00  0.00    +0.000 A 
ATOM      7  C   UNL     1      -0.758  12.635  18.445  0.00  0.00    +0.000 A 
ATOM      8  C   UNL     1       0.485  12.674  19.073  0.00  0.00    +0.000 A 
ATOM      9  C   UNL     1       1.230  11.501  19.226  0.00  0.00    +0.000 A 
ATOM     10  C   UNL     1       0.737  10.275  18.759  0.00  0.00    +0.000 A 
ATOM     11  C   UNL     1      -0.517  10.241  18.135  0.00  0.00    +0.000 A 
BRANCH   6  13
ATOM     12  O   UNL     1      -3.604  11.072  17.868  0.00  0.00    +0.000 OA
ATOM     13  C   UNL     1      -2.569  11.324  17.278  0.00  0.00    +0.000 C 
BRANCH  13  14
ATOM     14  O   UNL     1      -2.500  11.495  15.941  0.00  0.00    +0.000 OA
ATOM     15  H   UNL     1      -2.880  10.772  15.411  0.00  0.00    +0.000 HD
ENDBRANCH  13  14
ENDBRANCH   6  13
ENDBRANCH   1  10
BRANCH   3  16
ATOM     16  C   UNL     1       3.461   6.237  17.889  0.00  0.00    +0.000 A 
ATOM     17  C   UNL     1       2.925   4.950  17.744  0.00  0.00    +0.000 A 
ATOM     18  C   UNL     1       3.685   3.935  17.164  0.00  0.00    +0.000 A 
ATOM     19  C   UNL     1       4.988   4.191  16.741  0.00  0.00    +0.000 A 
ATOM     20  C   UNL     1       5.541   5.470  16.893  0.00  0.00    +0.000 A 
ATOM     21  C   UNL     1       4.770   6.502  17.443  0.00  0.00    +0.000 A 
BRANCH  20  22
ATOM     22  C   UNL     1       6.933   5.680  16.418  0.00  0.00    +0.000 C 
ATOM     23  O   UNL     1       7.533   6.727  16.591  0.00  0.00    +0.000 OA
BRANCH  22  24
ATOM     24  O   UNL     1       7.450   4.640  15.732  0.00  0.00    +0.000 OA
ATOM     25  H   UNL     1       7.634   3.835  16.250  0.00  0.00    +0.000 HD
ENDBRANCH  22  24
ENDBRANCH  20  22
ENDBRANCH   3  16
TORSDOF 6
ENDMDL
MODEL 9
REMARK VINA RESULT:      -7.8      4.952      6.562
REMARK  Name = 
REMARK  6 active torsions:
REMARK  status: ('A' for Active; 'I' for Inactive)
REMARK    1  A    between atoms: C_2  and  O_3
REMARK    2  A    between atoms: C_2  and  C_4
REMARK    3  A    between atoms: C_8  and  C_9
REMARK    4  A    between atoms: N_11  and  C_12
REMARK    5  A    between atoms: C_16  and  C_17
REMARK    6  A    between atoms: C_17  and  O_19
REMARK                            x       y       z     vdW  Elec       q    Type
REMARK                         _______ _______ _______ _____ _____    ______ ____
ROOT
ATOM      1  C   UNL     1       2.825   7.230  18.295  0.00  0.00    +0.000 A 
ATOM      2  C   UNL     1       2.288   7.399  19.550  0.00  0.00    +0.000 A 
ATOM      3  N   UNL     1       1.657   8.620  19.502  0.00  0.00    +0.000 N 
ATOM      4  N   UNL     1       1.817   9.164  18.273  0.00  0.00    +0.000 NA
ATOM      5  N   UNL     1       2.526   8.323  17.532  0.00  0.00    +0.000 NA
ENDROOT
BRANCH   1  10
ATOM      6  C   UNL     1       5.599   5.069  16.988  0.00  0.00    +0.000 A 
ATOM      7  C   UNL     1       4.952   3.837  16.838  0.00  0.00    +0.000 A 
ATOM      8  C   UNL     1       3.601   3.721  17.162  0.00  0.00    +0.000 A 
ATOM      9  C   UNL     1       2.899   4.829  17.644  0.00  0.00    +0.000 A 
ATOM     10  C   UNL     1       3.541   6.064  17.815  0.00  0.00    +0.000 A 
ATOM     11  C   UNL     1       4.900   6.172  17.494  0.00  0.00    +0.000 A 
BRANCH   6  13
ATOM     12  O   UNL     1       7.476   6.260  16.142  0.00  0.00    +0.000 OA
ATOM     13  C   UNL     1       7.034   5.246  16.653  0.00  0.00    +0.000 C 
BRANCH  13  14
ATOM     14  O   UNL     1       7.791   4.162  16.921  0.00  0.00    +0.000 OA
ATOM     15  H   UNL     1       7.535   3.350  16.448  0.00  0.00    +0.000 HD
ENDBRANCH  13  14
ENDBRANCH   6  13
ENDBRANCH   1  10
BRANCH   3  16
ATOM     16  C   UNL     1       0.897   9.259  20.514  0.00  0.00    +0.000 A 
ATOM     17  C   UNL     1       0.965   8.823  21.845  0.00  0.00    +0.000 A 
ATOM     18  C   UNL     1       0.208   9.456  22.829  0.00  0.00    +0.000 A 
ATOM     19  C   UNL     1      -0.635  10.514  22.492  0.00  0.00    +0.000 A 
ATOM     20  C   UNL     1      -0.723  10.950  21.163  0.00  0.00    +0.000 A 
ATOM     21  C   UNL     1       0.063  10.341  20.176  0.00  0.00    +0.000 A 
BRANCH  20  22
ATOM     22  C   UNL     1      -1.635  12.085  20.869  0.00  0.00    +0.000 C 
ATOM     23  O   UNL     1      -1.852  12.473  19.733  0.00  0.00    +0.000 OA
BRANCH  22  24
ATOM     24  O   UNL     1      -2.151  12.682  21.963  0.00  0.00    +0.000 OA
ATOM     25  H   UNL     1      -1.540  13.247  22.470  0.00  0.00    +0.000 HD
ENDBRANCH  22  24
ENDBRANCH  20  22
ENDBRANCH   3  16
TORSDOF 6
ENDMDL
