MODEL 1
REMARK VINA RESULT:      -7.6      0.000      0.000
REMARK  Name = 
REMARK  11 active torsions:
REMARK  status: ('A' for Active; 'I' for Inactive)
REMARK    1  A    between atoms: C_1  and  N_2
REMARK    2  A    between atoms: N_2  and  C_3
REMARK    3  A    between atoms: N_2  and  C_25
REMARK    4  A    between atoms: C_3  and  C_4
REMARK    5  A    between atoms: C_4  and  C_5
REMARK    6  A    between atoms: C_5  and  C_6
REMARK    7  A    between atoms: C_6  and  C_7
REMARK    8  A    between atoms: C_7  and  C_8
REMARK    9  A    between atoms: C_8  and  O_9
REMARK   10  A    between atoms: O_9  and  C_10
REMARK   11  A    between atoms: C_25  and  C_26
REMARK                            x       y       z     vdW  Elec       q    Type
REMARK                         _______ _______ _______ _____ _____    ______ ____
ROOT
ATOM      1  O   UNL     1       3.613   2.738  19.676  0.00  0.00    +0.000 OA
ENDROOT
BRANCH   1   2
ATOM      2  C   UNL     1       4.393   3.524  18.869  0.00  0.00    +0.000 A 
ATOM      3  C   UNL     1       5.173   4.609  19.288  0.00  0.00    +0.000 A 
ATOM      4  C   UNL     1       5.971   5.295  18.373  0.00  0.00    +0.000 A 
ATOM      5  C   UNL     1       5.982   4.894  17.038  0.00  0.00    +0.000 A 
ATOM      6  C   UNL     1       6.862   5.558  16.064  0.00  0.00    +0.000 A 
ATOM      7  O   UNL     1       7.571   6.504  16.378  0.00  0.00    +0.000 OA
ATOM      8  C   UNL     1       6.854   5.013  14.698  0.00  0.00    +0.000 A 
ATOM      9  C   UNL     1       7.715   5.525  13.727  0.00  0.00    +0.000 A 
ATOM     10  C   UNL     1       7.693   4.982  12.439  0.00  0.00    +0.000 A 
ATOM     11  C   UNL     1       6.811   3.944  12.130  0.00  0.00    +0.000 A 
ATOM     12  C   UNL     1       5.955   3.437  13.108  0.00  0.00    +0.000 A 
ATOM     13  C   UNL     1       5.984   3.969  14.398  0.00  0.00    +0.000 A 
ATOM     14  O   UNL     1       5.129   3.398  15.308  0.00  0.00    +0.000 OA
ATOM     15  C   UNL     1       5.184   3.838  16.606  0.00  0.00    +0.000 A 
ATOM     16  C   UNL     1       4.386   3.157  17.524  0.00  0.00    +0.000 A 
ENDBRANCH   1   2
BRANCH   1  17
ATOM     17  C   UNL     1       2.288   2.515  19.207  0.00  0.00    +0.000 C 
BRANCH  17  18
ATOM     18  C   UNL     1       1.295   3.096  20.204  0.00  0.00    +0.000 C 
BRANCH  18  19
ATOM     19  C   UNL     1       1.051   4.584  19.941  0.00  0.00    +0.000 C 
BRANCH  19  20
ATOM     20  C   UNL     1       1.951   5.530  20.753  0.00  0.00    +0.000 C 
BRANCH  20  21
ATOM     21  C   UNL     1       2.632   6.618  19.917  0.00  0.00    +0.000 C 
BRANCH  21  22
ATOM     22  C   UNL     1       1.613   7.617  19.358  0.00  0.00    +0.000 C 
BRANCH  22  24
ATOM     23  C   UNL     1       3.269   7.642  17.651  0.00  0.00    +0.000 C 
ATOM     24  N   UNL     1       1.941   8.153  18.029  0.00  0.00    +0.000 NA
BRANCH  24  25
ATOM     25  C   UNL     1       1.927   9.633  18.025  0.00  0.00    +0.000 C 
BRANCH  25  26
ATOM     26  C   UNL     1       0.620  10.203  18.530  0.00  0.00    +0.000 A 
ATOM     27  C   UNL     1      -0.563   9.999  17.804  0.00  0.00    +0.000 A 
ATOM     28  C   UNL     1      -1.743  10.629  18.193  0.00  0.00    +0.000 A 
ATOM     29  C   UNL     1      -1.753  11.457  19.314  0.00  0.00    +0.000 A 
ATOM     30  C   UNL     1      -0.591  11.632  20.066  0.00  0.00    +0.000 A 
ATOM     31  C   UNL     1       0.591  11.000  19.681  0.00  0.00    +0.000 A 
ENDBRANCH  25  26
ENDBRANCH  24  25
ENDBRANCH  22  24
ENDBRANCH  21  22
ENDBRANCH  20  21
ENDBRANCH  19  20
ENDBRANCH  18  19
ENDBRANCH  17  18
ENDBRANCH   1  17
TORSDOF 10
ENDMDL
MODEL 2
REMARK VINA RESULT:      -7.6      2.970      8.811
REMARK  Name = 
REMARK  11 active torsions:
REMARK  status: ('A' for Active; 'I' for Inactive)
REMARK    1  A    between atoms: C_1  and  N_2
REMARK    2  A    between atoms: N_2  and  C_3
REMARK    3  A    between atoms: N_2  and  C_25
REMARK    4  A    between atoms: C_3  and  C_4
REMARK    5  A    between atoms: C_4  and  C_5
REMARK    6  A    between atoms: C_5  and  C_6
REMARK    7  A    between atoms: C_6  and  C_7
REMARK    8  A    between atoms: C_7  and  C_8
REMARK    9  A    between atoms: C_8  and  O_9
REMARK   10  A    between atoms: O_9  and  C_10
REMARK   11  A    between atoms: C_25  and  C_26
REMARK                            x       y       z     vdW  Elec       q    Type
REMARK                         _______ _______ _______ _____ _____    ______ ____
ROOT
ATOM      1  O   UNL     1       2.866   6.389  19.701  0.00  0.00    +0.000 OA
ENDROOT
BRANCH   1   2
ATOM      2  C   UNL     1       2.185   7.567  19.546  0.00  0.00    +0.000 A 
ATOM      3  C   UNL     1       2.044   8.282  18.350  0.00  0.00    +0.000 A 
ATOM      4  C   UNL     1       1.274   9.443  18.312  0.00  0.00    +0.000 A 
ATOM      5  C   UNL     1       0.647   9.888  19.476  0.00  0.00    +0.000 A 
ATOM      6  C   UNL     1      -0.223  11.074  19.452  0.00  0.00    +0.000 A 
ATOM      7  O   UNL     1      -0.388  11.729  18.431  0.00  0.00    +0.000 OA
ATOM      8  C   UNL     1      -0.894  11.418  20.714  0.00  0.00    +0.000 A 
ATOM      9  C   UNL     1      -1.801  12.477  20.767  0.00  0.00    +0.000 A 
ATOM     10  C   UNL     1      -2.432  12.777  21.978  0.00  0.00    +0.000 A 
ATOM     11  C   UNL     1      -2.148  12.027  23.121  0.00  0.00    +0.000 A 
ATOM     12  C   UNL     1      -1.240  10.969  23.058  0.00  0.00    +0.000 A 
ATOM     13  C   UNL     1      -0.619  10.660  21.847  0.00  0.00    +0.000 A 
ATOM     14  O   UNL     1       0.241   9.589  21.863  0.00  0.00    +0.000 OA
ATOM     15  C   UNL     1       0.810   9.203  20.677  0.00  0.00    +0.000 A 
ATOM     16  C   UNL     1       1.584   8.044  20.710  0.00  0.00    +0.000 A 
ENDBRANCH   1   2
BRANCH   1  17
ATOM     17  C   UNL     1       2.351   5.517  20.701  0.00  0.00    +0.000 C 
BRANCH  17  18
ATOM     18  C   UNL     1       1.107   4.819  20.170  0.00  0.00    +0.000 C 
BRANCH  18  19
ATOM     19  C   UNL     1       1.034   3.369  20.657  0.00  0.00    +0.000 C 
BRANCH  19  20
ATOM     20  C   UNL     1       0.958   2.324  19.532  0.00  0.00    +0.000 C 
BRANCH  20  21
ATOM     21  C   UNL     1       2.323   1.805  19.065  0.00  0.00    +0.000 C 
BRANCH  21  22
ATOM     22  C   UNL     1       2.702   2.381  17.696  0.00  0.00    +0.000 C 
BRANCH  22  24
ATOM     23  C   UNL     1       4.445   3.447  18.915  0.00  0.00    +0.000 C 
ATOM     24  N   UNL     1       4.079   2.889  17.602  0.00  0.00    +0.000 NA
BRANCH  24  25
ATOM     25  C   UNL     1       4.206   3.913  16.541  0.00  0.00    +0.000 C 
BRANCH  25  26
ATOM     26  C   UNL     1       5.292   4.924  16.836  0.00  0.00    +0.000 A 
ATOM     27  C   UNL     1       6.599   4.491  17.107  0.00  0.00    +0.000 A 
ATOM     28  C   UNL     1       7.572   5.405  17.506  0.00  0.00    +0.000 A 
ATOM     29  C   UNL     1       7.250   6.756  17.627  0.00  0.00    +0.000 A 
ATOM     30  C   UNL     1       5.964   7.200  17.318  0.00  0.00    +0.000 A 
ATOM     31  C   UNL     1       4.990   6.288  16.914  0.00  0.00    +0.000 A 
ENDBRANCH  25  26
ENDBRANCH  24  25
ENDBRANCH  22  24
ENDBRANCH  21  22
ENDBRANCH  20  21
ENDBRANCH  19  20
ENDBRANCH  18  19
ENDBRANCH  17  18
ENDBRANCH   1  17
TORSDOF 10
ENDMDL
MODEL 3
REMARK VINA RESULT:      -7.6      1.259      1.847
REMARK  Name = 
REMARK  11 active torsions:
REMARK  status: ('A' for Active; 'I' for Inactive)
REMARK    1  A    between atoms: C_1  and  N_2
REMARK    2  A    between atoms: N_2  and  C_3
REMARK    3  A    between atoms: N_2  and  C_25
REMARK    4  A    between atoms: C_3  and  C_4
REMARK    5  A    between atoms: C_4  and  C_5
REMARK    6  A    between atoms: C_5  and  C_6
REMARK    7  A    between atoms: C_6  and  C_7
REMARK    8  A    between atoms: C_7  and  C_8
REMARK    9  A    between atoms: C_8  and  O_9
REMARK   10  A    between atoms: O_9  and  C_10
REMARK   11  A    between atoms: C_25  and  C_26
REMARK                            x       y       z     vdW  Elec       q    Type
REMARK                         _______ _______ _______ _____ _____    ______ ____
ROOT
ATOM      1  O   UNL     1       3.488   2.823  19.595  0.00  0.00    +0.000 OA
ENDROOT
BRANCH   1   2
ATOM      2  C   UNL     1       4.324   3.565  18.805  0.00  0.00    +0.000 A 
ATOM      3  C   UNL     1       5.202   4.562  19.249  0.00  0.00    +0.000 A 
ATOM      4  C   UNL     1       6.047   5.207  18.347  0.00  0.00    +0.000 A 
ATOM      5  C   UNL     1       6.008   4.853  16.998  0.00  0.00    +0.000 A 
ATOM      6  C   UNL     1       6.931   5.471  16.035  0.00  0.00    +0.000 A 
ATOM      7  O   UNL     1       7.725   6.340  16.371  0.00  0.00    +0.000 OA
ATOM      8  C   UNL     1       6.860   4.977  14.652  0.00  0.00    +0.000 A 
ATOM      9  C   UNL     1       7.752   5.446  13.686  0.00  0.00    +0.000 A 
ATOM     10  C   UNL     1       7.668   4.952  12.381  0.00  0.00    +0.000 A 
ATOM     11  C   UNL     1       6.695   4.007  12.049  0.00  0.00    +0.000 A 
ATOM     12  C   UNL     1       5.809   3.543  13.022  0.00  0.00    +0.000 A 
ATOM     13  C   UNL     1       5.899   4.025  14.329  0.00  0.00    +0.000 A 
ATOM     14  O   UNL     1       5.007   3.500  15.231  0.00  0.00    +0.000 OA
ATOM     15  C   UNL     1       5.115   3.887  16.543  0.00  0.00    +0.000 A 
ATOM     16  C   UNL     1       4.270   3.247  17.448  0.00  0.00    +0.000 A 
ENDBRANCH   1   2
BRANCH   1  17
ATOM     17  C   UNL     1       2.122   3.221  19.575  0.00  0.00    +0.000 C 
BRANCH  17  18
ATOM     18  C   UNL     1       1.808   4.013  20.836  0.00  0.00    +0.000 C 
BRANCH  18  19
ATOM     19  C   UNL     1       1.864   5.520  20.574  0.00  0.00    +0.000 C 
BRANCH  19  20
ATOM     20  C   UNL     1       1.934   5.905  19.087  0.00  0.00    +0.000 C 
BRANCH  20  21
ATOM     21  C   UNL     1       2.341   7.361  18.835  0.00  0.00    +0.000 C 
BRANCH  21  22
ATOM     22  C   UNL     1       1.861   8.281  19.962  0.00  0.00    +0.000 C 
BRANCH  22  24
ATOM     23  C   UNL     1       1.053   9.478  18.072  0.00  0.00    +0.000 C 
ATOM     24  N   UNL     1       0.951   9.354  19.536  0.00  0.00    +0.000 NA
BRANCH  24  25
ATOM     25  C   UNL     1       1.279  10.636  20.197  0.00  0.00    +0.000 C 
BRANCH  25  26
ATOM     26  C   UNL     1       0.234  11.054  21.209  0.00  0.00    +0.000 A 
ATOM     27  C   UNL     1      -0.061  10.220  22.297  0.00  0.00    +0.000 A 
ATOM     28  C   UNL     1      -1.110  10.534  23.158  0.00  0.00    +0.000 A 
ATOM     29  C   UNL     1      -1.864  11.687  22.944  0.00  0.00    +0.000 A 
ATOM     30  C   UNL     1      -1.549  12.543  21.888  0.00  0.00    +0.000 A 
ATOM     31  C   UNL     1      -0.498  12.233  21.028  0.00  0.00    +0.000 A 
ENDBRANCH  25  26
ENDBRANCH  24  25
ENDBRANCH  22  24
ENDBRANCH  21  22
ENDBRANCH  20  21
ENDBRANCH  19  20
ENDBRANCH  18  19
ENDBRANCH  17  18
ENDBRANCH   1  17
TORSDOF 10
ENDMDL
MODEL 4
REMARK VINA RESULT:      -7.6      3.815     10.128
REMARK  Name = 
REMARK  11 active torsions:
REMARK  status: ('A' for Active; 'I' for Inactive)
REMARK    1  A    between atoms: C_1  and  N_2
REMARK    2  A    between atoms: N_2  and  C_3
REMARK    3  A    between atoms: N_2  and  C_25
REMARK    4  A    between atoms: C_3  and  C_4
REMARK    5  A    between atoms: C_4  and  C_5
REMARK    6  A    between atoms: C_5  and  C_6
REMARK    7  A    between atoms: C_6  and  C_7
REMARK    8  A    between atoms: C_7  and  C_8
REMARK    9  A    between atoms: C_8  and  O_9
REMARK   10  A    between atoms: O_9  and  C_10
REMARK   11  A    between atoms: C_25  and  C_26
REMARK                            x       y       z     vdW  Elec       q    Type
REMARK                         _______ _______ _______ _____ _____    ______ ____
ROOT
ATOM      1  O   UNL     1       1.578   7.932  21.504  0.00  0.00    +0.000 OA
ENDROOT
BRANCH   1   2
ATOM      2  C   UNL     1       0.826   9.027  21.169  0.00  0.00    +0.000 A 
ATOM      3  C   UNL     1       0.768   9.625  19.905  0.00  0.00    +0.000 A 
ATOM      4  C   UNL     1      -0.086  10.705  19.677  0.00  0.00    +0.000 A 
ATOM      5  C   UNL     1      -0.877  11.184  20.720  0.00  0.00    +0.000 A 
ATOM      6  C   UNL     1      -1.832  12.279  20.494  0.00  0.00    +0.000 A 
ATOM      7  O   UNL     1      -1.931  12.831  19.406  0.00  0.00    +0.000 OA
ATOM      8  C   UNL     1      -2.672  12.662  21.638  0.00  0.00    +0.000 A 
ATOM      9  C   UNL     1      -3.662  13.635  21.496  0.00  0.00    +0.000 A 
ATOM     10  C   UNL     1      -4.452  13.972  22.598  0.00  0.00    +0.000 A 
ATOM     11  C   UNL     1      -4.243  13.348  23.829  0.00  0.00    +0.000 A 
ATOM     12  C   UNL     1      -3.252  12.375  23.962  0.00  0.00    +0.000 A 
ATOM     13  C   UNL     1      -2.470  12.027  22.859  0.00  0.00    +0.000 A 
ATOM     14  O   UNL     1      -1.534  11.043  23.067  0.00  0.00    +0.000 OA
ATOM     15  C   UNL     1      -0.801  10.616  21.989  0.00  0.00    +0.000 A 
ATOM     16  C   UNL     1       0.056   9.539  22.212  0.00  0.00    +0.000 A 
ENDBRANCH   1   2
BRANCH   1  17
ATOM     17  C   UNL     1       1.380   6.786  20.683  0.00  0.00    +0.000 C 
BRANCH  17  18
ATOM     18  C   UNL     1       2.618   6.556  19.829  0.00  0.00    +0.000 C 
BRANCH  18  19
ATOM     19  C   UNL     1       2.317   6.775  18.344  0.00  0.00    +0.000 C 
BRANCH  19  20
ATOM     20  C   UNL     1       3.341   7.655  17.610  0.00  0.00    +0.000 C 
BRANCH  20  21
ATOM     21  C   UNL     1       4.697   6.980  17.379  0.00  0.00    +0.000 C 
BRANCH  21  22
ATOM     22  C   UNL     1       4.534   5.607  16.718  0.00  0.00    +0.000 C 
BRANCH  22  24
ATOM     23  C   UNL     1       6.457   4.225  16.949  0.00  0.00    +0.000 C 
ATOM     24  N   UNL     1       5.108   4.486  17.478  0.00  0.00    +0.000 NA
BRANCH  24  25
ATOM     25  C   UNL     1       4.260   3.277  17.380  0.00  0.00    +0.000 C 
BRANCH  25  26
ATOM     26  C   UNL     1       3.239   3.191  18.493  0.00  0.00    +0.000 A 
ATOM     27  C   UNL     1       3.661   3.082  19.826  0.00  0.00    +0.000 A 
ATOM     28  C   UNL     1       2.730   2.872  20.842  0.00  0.00    +0.000 A 
ATOM     29  C   UNL     1       1.374   2.780  20.534  0.00  0.00    +0.000 A 
ATOM     30  C   UNL     1       0.943   2.929  19.216  0.00  0.00    +0.000 A 
ATOM     31  C   UNL     1       1.871   3.144  18.198  0.00  0.00    +0.000 A 
ENDBRANCH  25  26
ENDBRANCH  24  25
ENDBRANCH  22  24
ENDBRANCH  21  22
ENDBRANCH  20  21
ENDBRANCH  19  20
ENDBRANCH  18  19
ENDBRANCH  17  18
ENDBRANCH   1  17
TORSDOF 10
ENDMDL
MODEL 5
REMARK VINA RESULT:      -7.6      3.033      8.994
REMARK  Name = 
REMARK  11 active torsions:
REMARK  status: ('A' for Active; 'I' for Inactive)
REMARK    1  A    between atoms: C_1  and  N_2
REMARK    2  A    between atoms: N_2  and  C_3
REMARK    3  A    between atoms: N_2  and  C_25
REMARK    4  A    between atoms: C_3  and  C_4
REMARK    5  A    between atoms: C_4  and  C_5
REMARK    6  A    between atoms: C_5  and  C_6
REMARK    7  A    between atoms: C_6  and  C_7
REMARK    8  A    between atoms: C_7  and  C_8
REMARK    9  A    between atoms: C_8  and  O_9
REMARK   10  A    between atoms: O_9  and  C_10
REMARK   11  A    between atoms: C_25  and  C_26
REMARK                            x       y       z     vdW  Elec       q    Type
REMARK                         _______ _______ _______ _____ _____    ______ ____
ROOT
ATOM      1  O   UNL     1       3.061   6.658  18.871  0.00  0.00    +0.000 OA
ENDROOT
BRANCH   1   2
ATOM      2  C   UNL     1       2.348   7.828  18.893  0.00  0.00    +0.000 A 
ATOM      3  C   UNL     1       2.140   8.681  17.804  0.00  0.00    +0.000 A 
ATOM      4  C   UNL     1       1.343   9.817  17.943  0.00  0.00    +0.000 A 
ATOM      5  C   UNL     1       0.757  10.096  19.177  0.00  0.00    +0.000 A 
ATOM      6  C   UNL     1      -0.139  11.251  19.338  0.00  0.00    +0.000 A 
ATOM      7  O   UNL     1      -0.363  12.023  18.415  0.00  0.00    +0.000 OA
ATOM      8  C   UNL     1      -0.763  11.416  20.659  0.00  0.00    +0.000 A 
ATOM      9  C   UNL     1      -1.690  12.435  20.881  0.00  0.00    +0.000 A 
ATOM     10  C   UNL     1      -2.275  12.563  22.144  0.00  0.00    +0.000 A 
ATOM     11  C   UNL     1      -1.925  11.685  23.172  0.00  0.00    +0.000 A 
ATOM     12  C   UNL     1      -0.998  10.668  22.940  0.00  0.00    +0.000 A 
ATOM     13  C   UNL     1      -0.422  10.530  21.676  0.00  0.00    +0.000 A 
ATOM     14  O   UNL     1       0.461   9.490  21.523  0.00  0.00    +0.000 OA
ATOM     15  C   UNL     1       0.987   9.271  20.275  0.00  0.00    +0.000 A 
ATOM     16  C   UNL     1       1.787   8.138  20.131  0.00  0.00    +0.000 A 
ENDBRANCH   1   2
BRANCH   1  17
ATOM     17  C   UNL     1       2.669   5.690  19.837  0.00  0.00    +0.000 C 
BRANCH  17  18
ATOM     18  C   UNL     1       1.830   4.615  19.162  0.00  0.00    +0.000 C 
BRANCH  18  19
ATOM     19  C   UNL     1       2.627   3.320  18.983  0.00  0.00    +0.000 C 
BRANCH  19  20
ATOM     20  C   UNL     1       3.071   3.041  17.537  0.00  0.00    +0.000 C 
BRANCH  20  21
ATOM     21  C   UNL     1       4.019   4.096  16.958  0.00  0.00    +0.000 C 
BRANCH  21  22
ATOM     22  C   UNL     1       5.007   3.476  15.963  0.00  0.00    +0.000 C 
BRANCH  22  24
ATOM     23  C   UNL     1       5.449   3.943  13.672  0.00  0.00    +0.000 C 
ATOM     24  N   UNL     1       5.641   4.436  15.046  0.00  0.00    +0.000 NA
BRANCH  24  25
ATOM     25  C   UNL     1       7.079   4.603  15.349  0.00  0.00    +0.000 C 
BRANCH  25  26
ATOM     26  C   UNL     1       7.319   5.398  16.614  0.00  0.00    +0.000 A 
ATOM     27  C   UNL     1       7.277   6.800  16.580  0.00  0.00    +0.000 A 
ATOM     28  C   UNL     1       7.623   7.540  17.709  0.00  0.00    +0.000 A 
ATOM     29  C   UNL     1       8.004   6.886  18.879  0.00  0.00    +0.000 A 
ATOM     30  C   UNL     1       8.008   5.492  18.933  0.00  0.00    +0.000 A 
ATOM     31  C   UNL     1       7.657   4.749  17.807  0.00  0.00    +0.000 A 
ENDBRANCH  25  26
ENDBRANCH  24  25
ENDBRANCH  22  24
ENDBRANCH  21  22
ENDBRANCH  20  21
ENDBRANCH  19  20
ENDBRANCH  18  19
ENDBRANCH  17  18
ENDBRANCH   1  17
TORSDOF 10
ENDMDL
MODEL 6
REMARK VINA RESULT:      -7.6      2.453      4.930
REMARK  Name = 
REMARK  11 active torsions:
REMARK  status: ('A' for Active; 'I' for Inactive)
REMARK    1  A    between atoms: C_1  and  N_2
REMARK    2  A    between atoms: N_2  and  C_3
REMARK    3  A    between atoms: N_2  and  C_25
REMARK    4  A    between atoms: C_3  and  C_4
REMARK    5  A    between atoms: C_4  and  C_5
REMARK    6  A    between atoms: C_5  and  C_6
REMARK    7  A    between atoms: C_6  and  C_7
REMARK    8  A    between atoms: C_7  and  C_8
REMARK    9  A    between atoms: C_8  and  O_9
REMARK   10  A    between atoms: O_9  and  C_10
REMARK   11  A    between atoms: C_25  and  C_26
REMARK                            x       y       z     vdW  Elec       q    Type
REMARK                         _______ _______ _______ _____ _____    ______ ____
ROOT
ATOM      1  O   UNL     1       1.185   8.491  20.405  0.00  0.00    +0.000 OA
ENDROOT
BRANCH   1   2
ATOM      2  C   UNL     1       1.896   7.392  20.001  0.00  0.00    +0.000 A 
ATOM      3  C   UNL     1       1.884   6.135  20.618  0.00  0.00    +0.000 A 
ATOM      4  C   UNL     1       2.610   5.077  20.072  0.00  0.00    +0.000 A 
ATOM      5  C   UNL     1       3.351   5.283  18.909  0.00  0.00    +0.000 A 
ATOM      6  C   UNL     1       4.076   4.171  18.276  0.00  0.00    +0.000 A 
ATOM      7  O   UNL     1       4.090   3.050  18.768  0.00  0.00    +0.000 OA
ATOM      8  C   UNL     1       4.767   4.475  17.014  0.00  0.00    +0.000 A 
ATOM      9  C   UNL     1       5.412   3.465  16.300  0.00  0.00    +0.000 A 
ATOM     10  C   UNL     1       6.053   3.780  15.098  0.00  0.00    +0.000 A 
ATOM     11  C   UNL     1       6.053   5.094  14.626  0.00  0.00    +0.000 A 
ATOM     12  C   UNL     1       5.403   6.097  15.347  0.00  0.00    +0.000 A 
ATOM     13  C   UNL     1       4.752   5.783  16.540  0.00  0.00    +0.000 A 
ATOM     14  O   UNL     1       4.116   6.821  17.175  0.00  0.00    +0.000 OA
ATOM     15  C   UNL     1       3.397   6.538  18.308  0.00  0.00    +0.000 A 
ATOM     16  C   UNL     1       2.670   7.593  18.859  0.00  0.00    +0.000 A 
ENDBRANCH   1   2
BRANCH   1  17
ATOM     17  C   UNL     1       0.962   8.587  21.807  0.00  0.00    +0.000 C 
BRANCH  17  18
ATOM     18  C   UNL     1      -0.437   9.131  22.059  0.00  0.00    +0.000 C 
BRANCH  18  19
ATOM     19  C   UNL     1      -0.441  10.141  23.210  0.00  0.00    +0.000 C 
BRANCH  19  20
ATOM     20  C   UNL     1      -1.550  11.202  23.121  0.00  0.00    +0.000 C 
BRANCH  20  21
ATOM     21  C   UNL     1      -1.068  12.575  22.642  0.00  0.00    +0.000 C 
BRANCH  21  22
ATOM     22  C   UNL     1      -0.442  12.494  21.246  0.00  0.00    +0.000 C 
BRANCH  22  24
ATOM     23  C   UNL     1      -1.499  14.492  20.503  0.00  0.00    +0.000 C 
ATOM     24  N   UNL     1      -1.258  13.078  20.170  0.00  0.00    +0.000 NA
BRANCH  24  25
ATOM     25  C   UNL     1      -2.537  12.351  20.007  0.00  0.00    +0.000 C 
BRANCH  25  26
ATOM     26  C   UNL     1      -2.546  11.458  18.786  0.00  0.00    +0.000 A 
ATOM     27  C   UNL     1      -1.469  10.592  18.542  0.00  0.00    +0.000 A 
ATOM     28  C   UNL     1      -1.409   9.863  17.356  0.00  0.00    +0.000 A 
ATOM     29  C   UNL     1      -2.427   9.986  16.412  0.00  0.00    +0.000 A 
ATOM     30  C   UNL     1      -3.522  10.813  16.666  0.00  0.00    +0.000 A 
ATOM     31  C   UNL     1      -3.587  11.540  17.853  0.00  0.00    +0.000 A 
ENDBRANCH  25  26
ENDBRANCH  24  25
ENDBRANCH  22  24
ENDBRANCH  21  22
ENDBRANCH  20  21
ENDBRANCH  19  20
ENDBRANCH  18  19
ENDBRANCH  17  18
ENDBRANCH   1  17
TORSDOF 10
ENDMDL
MODEL 7
REMARK VINA RESULT:      -7.6      2.346      4.700
REMARK  Name = 
REMARK  11 active torsions:
REMARK  status: ('A' for Active; 'I' for Inactive)
REMARK    1  A    between atoms: C_1  and  N_2
REMARK    2  A    between atoms: N_2  and  C_3
REMARK    3  A    between atoms: N_2  and  C_25
REMARK    4  A    between atoms: C_3  and  C_4
REMARK    5  A    between atoms: C_4  and  C_5
REMARK    6  A    between atoms: C_5  and  C_6
REMARK    7  A    between atoms: C_6  and  C_7
REMARK    8  A    between atoms: C_7  and  C_8
REMARK    9  A    between atoms: C_8  and  O_9
REMARK   10  A    between atoms: O_9  and  C_10
REMARK   11  A    between atoms: C_25  and  C_26
REMARK                            x       y       z     vdW  Elec       q    Type
REMARK                         _______ _______ _______ _____ _____    ______ ____
ROOT
ATOM      1  O   UNL     1       0.962   7.267  21.279  0.00  0.00    +0.000 OA
ENDROOT
BRANCH   1   2
ATOM      2  C   UNL     1       1.603   6.297  20.555  0.00  0.00    +0.000 A 
ATOM      3  C   UNL     1       1.431   4.916  20.704  0.00  0.00    +0.000 A 
ATOM      4  C   UNL     1       2.102   4.029  19.862  0.00  0.00    +0.000 A 
ATOM      5  C   UNL     1       2.948   4.531  18.873  0.00  0.00    +0.000 A 
ATOM      6  C   UNL     1       3.619   3.624  17.930  0.00  0.00    +0.000 A 
ATOM      7  O   UNL     1       3.495   2.409  18.009  0.00  0.00    +0.000 OA
ATOM      8  C   UNL     1       4.431   4.256  16.880  0.00  0.00    +0.000 A 
ATOM      9  C   UNL     1       5.039   3.480  15.892  0.00  0.00    +0.000 A 
ATOM     10  C   UNL     1       5.797   4.107  14.900  0.00  0.00    +0.000 A 
ATOM     11  C   UNL     1       5.950   5.496  14.906  0.00  0.00    +0.000 A 
ATOM     12  C   UNL     1       5.337   6.263  15.897  0.00  0.00    +0.000 A 
ATOM     13  C   UNL     1       4.569   5.640  16.881  0.00  0.00    +0.000 A 
ATOM     14  O   UNL     1       3.979   6.468  17.805  0.00  0.00    +0.000 OA
ATOM     15  C   UNL     1       3.151   5.902  18.740  0.00  0.00    +0.000 A 
ATOM     16  C   UNL     1       2.480   6.783  19.586  0.00  0.00    +0.000 A 
ENDBRANCH   1   2
BRANCH   1  17
ATOM     17  C   UNL     1       1.203   8.603  20.849  0.00  0.00    +0.000 C 
BRANCH  17  18
ATOM     18  C   UNL     1       1.482   9.480  22.061  0.00  0.00    +0.000 C 
BRANCH  18  19
ATOM     19  C   UNL     1       0.285   9.505  23.016  0.00  0.00    +0.000 C 
BRANCH  19  20
ATOM     20  C   UNL     1      -1.016  10.036  22.392  0.00  0.00    +0.000 C 
BRANCH  20  21
ATOM     21  C   UNL     1      -1.499  11.364  22.985  0.00  0.00    +0.000 C 
BRANCH  21  22
ATOM     22  C   UNL     1      -0.687  12.547  22.446  0.00  0.00    +0.000 C 
BRANCH  22  24
ATOM     23  C   UNL     1       0.216  13.789  20.630  0.00  0.00    +0.000 C 
ATOM     24  N   UNL     1      -0.625  12.633  20.979  0.00  0.00    +0.000 NA
BRANCH  24  25
ATOM     25  C   UNL     1      -1.975  12.765  20.388  0.00  0.00    +0.000 C 
BRANCH  25  26
ATOM     26  C   UNL     1      -2.192  11.828  19.220  0.00  0.00    +0.000 A 
ATOM     27  C   UNL     1      -3.468  11.705  18.648  0.00  0.00    +0.000 A 
ATOM     28  C   UNL     1      -3.704  10.751  17.661  0.00  0.00    +0.000 A 
ATOM     29  C   UNL     1      -2.669   9.922  17.232  0.00  0.00    +0.000 A 
ATOM     30  C   UNL     1      -1.388  10.067  17.766  0.00  0.00    +0.000 A 
ATOM     31  C   UNL     1      -1.147  11.024  18.751  0.00  0.00    +0.000 A 
ENDBRANCH  25  26
ENDBRANCH  24  25
ENDBRANCH  22  24
ENDBRANCH  21  22
ENDBRANCH  20  21
ENDBRANCH  19  20
ENDBRANCH  18  19
ENDBRANCH  17  18
ENDBRANCH   1  17
TORSDOF 10
ENDMDL
MODEL 8
REMARK VINA RESULT:      -7.5      1.265      2.323
REMARK  Name = 
REMARK  11 active torsions:
REMARK  status: ('A' for Active; 'I' for Inactive)
REMARK    1  A    between atoms: C_1  and  N_2
REMARK    2  A    between atoms: N_2  and  C_3
REMARK    3  A    between atoms: N_2  and  C_25
REMARK    4  A    between atoms: C_3  and  C_4
REMARK    5  A    between atoms: C_4  and  C_5
REMARK    6  A    between atoms: C_5  and  C_6
REMARK    7  A    between atoms: C_6  and  C_7
REMARK    8  A    between atoms: C_7  and  C_8
REMARK    9  A    between atoms: C_8  and  O_9
REMARK   10  A    between atoms: O_9  and  C_10
REMARK   11  A    between atoms: C_25  and  C_26
REMARK                            x       y       z     vdW  Elec       q    Type
REMARK                         _______ _______ _______ _____ _____    ______ ____
ROOT
ATOM      1  O   UNL     1       3.250   3.716  19.765  0.00  0.00    +0.000 OA
ENDROOT
BRANCH   1   2
ATOM      2  C   UNL     1       4.150   4.287  18.904  0.00  0.00    +0.000 A 
ATOM      3  C   UNL     1       5.115   5.243  19.242  0.00  0.00    +0.000 A 
ATOM      4  C   UNL     1       6.014   5.704  18.282  0.00  0.00    +0.000 A 
ATOM      5  C   UNL     1       5.941   5.208  16.980  0.00  0.00    +0.000 A 
ATOM      6  C   UNL     1       6.916   5.628  15.962  0.00  0.00    +0.000 A 
ATOM      7  O   UNL     1       7.786   6.454  16.207  0.00  0.00    +0.000 OA
ATOM      8  C   UNL     1       6.797   4.993  14.642  0.00  0.00    +0.000 A 
ATOM      9  C   UNL     1       7.727   5.268  13.638  0.00  0.00    +0.000 A 
ATOM     10  C   UNL     1       7.596   4.642  12.395  0.00  0.00    +0.000 A 
ATOM     11  C   UNL     1       6.540   3.758  12.162  0.00  0.00    +0.000 A 
ATOM     12  C   UNL     1       5.617   3.488  13.172  0.00  0.00    +0.000 A 
ATOM     13  C   UNL     1       5.752   4.102  14.418  0.00  0.00    +0.000 A 
ATOM     14  O   UNL     1       4.818   3.763  15.366  0.00  0.00    +0.000 OA
ATOM     15  C   UNL     1       4.963   4.283  16.627  0.00  0.00    +0.000 A 
ATOM     16  C   UNL     1       4.065   3.826  17.591  0.00  0.00    +0.000 A 
ENDBRANCH   1   2
BRANCH   1  17
ATOM     17  C   UNL     1       2.670   4.605  20.712  0.00  0.00    +0.000 C 
BRANCH  17  18
ATOM     18  C   UNL     1       1.619   5.462  20.022  0.00  0.00    +0.000 C 
BRANCH  18  19
ATOM     19  C   UNL     1       1.922   6.954  20.188  0.00  0.00    +0.000 C 
BRANCH  19  20
ATOM     20  C   UNL     1       2.530   7.622  18.944  0.00  0.00    +0.000 C 
BRANCH  20  21
ATOM     21  C   UNL     1       1.500   8.288  18.024  0.00  0.00    +0.000 C 
BRANCH  21  22
ATOM     22  C   UNL     1       1.682   9.809  17.988  0.00  0.00    +0.000 C 
BRANCH  22  24
ATOM     23  C   UNL     1       0.489  11.342  19.361  0.00  0.00    +0.000 C 
ATOM     24  N   UNL     1       0.435  10.580  18.102  0.00  0.00    +0.000 NA
BRANCH  24  25
ATOM     25  C   UNL     1      -0.752   9.697  18.071  0.00  0.00    +0.000 C 
BRANCH  25  26
ATOM     26  C   UNL     1      -2.002  10.418  17.617  0.00  0.00    +0.000 A 
ATOM     27  C   UNL     1      -2.802  11.091  18.551  0.00  0.00    +0.000 A 
ATOM     28  C   UNL     1      -4.020  11.646  18.163  0.00  0.00    +0.000 A 
ATOM     29  C   UNL     1      -4.441  11.539  16.838  0.00  0.00    +0.000 A 
ATOM     30  C   UNL     1      -3.631  10.908  15.894  0.00  0.00    +0.000 A 
ATOM     31  C   UNL     1      -2.410  10.356  16.279  0.00  0.00    +0.000 A 
ENDBRANCH  25  26
ENDBRANCH  24  25
ENDBRANCH  22  24
ENDBRANCH  21  22
ENDBRANCH  20  21
ENDBRANCH  19  20
ENDBRANCH  18  19
ENDBRANCH  17  18
ENDBRANCH   1  17
TORSDOF 10
ENDMDL
MODEL 9
REMARK VINA RESULT:      -7.5      4.163     10.377
REMARK  Name = 
REMARK  11 active torsions:
REMARK  status: ('A' for Active; 'I' for Inactive)
REMARK    1  A    between atoms: C_1  and  N_2
REMARK    2  A    between atoms: N_2  and  C_3
REMARK    3  A    between atoms: N_2  and  C_25
REMARK    4  A    between atoms: C_3  and  C_4
REMARK    5  A    between atoms: C_4  and  C_5
REMARK    6  A    between atoms: C_5  and  C_6
REMARK    7  A    between atoms: C_6  and  C_7
REMARK    8  A    between atoms: C_7  and  C_8
REMARK    9  A    between atoms: C_8  and  O_9
REMARK   10  A    between atoms: O_9  and  C_10
REMARK   11  A    between atoms: C_25  and  C_26
REMARK                            x       y       z     vdW  Elec       q    Type
REMARK                         _______ _______ _______ _____ _____    ______ ____
ROOT
ATOM      1  O   UNL     1       0.365   9.525  17.635  0.00  0.00    +0.000 OA
ENDROOT
BRANCH   1   2
ATOM      2  C   UNL     1      -0.521  10.293  18.342  0.00  0.00    +0.000 A 
ATOM      3  C   UNL     1      -0.209  11.105  19.439  0.00  0.00    +0.000 A 
ATOM      4  C   UNL     1      -1.196  11.887  20.038  0.00  0.00    +0.000 A 
ATOM      5  C   UNL     1      -2.497  11.851  19.536  0.00  0.00    +0.000 A 
ATOM      6  C   UNL     1      -3.543  12.712  20.107  0.00  0.00    +0.000 A 
ATOM      7  O   UNL     1      -3.323  13.447  21.060  0.00  0.00    +0.000 OA
ATOM      8  C   UNL     1      -4.863  12.653  19.461  0.00  0.00    +0.000 A 
ATOM      9  C   UNL     1      -5.895  13.493  19.880  0.00  0.00    +0.000 A 
ATOM     10  C   UNL     1      -7.136  13.422  19.242  0.00  0.00    +0.000 A 
ATOM     11  C   UNL     1      -7.340  12.513  18.202  0.00  0.00    +0.000 A 
ATOM     12  C   UNL     1      -6.301  11.678  17.788  0.00  0.00    +0.000 A 
ATOM     13  C   UNL     1      -5.057  11.756  18.415  0.00  0.00    +0.000 A 
ATOM     14  O   UNL     1      -4.082  10.919  17.932  0.00  0.00    +0.000 OA
ATOM     15  C   UNL     1      -2.823  11.021  18.467  0.00  0.00    +0.000 A 
ATOM     16  C   UNL     1      -1.833  10.239  17.874  0.00  0.00    +0.000 A 
ENDBRANCH   1   2
BRANCH   1  17
ATOM     17  C   UNL     1       1.689   9.491  18.156  0.00  0.00    +0.000 C 
BRANCH  17  18
ATOM     18  C   UNL     1       1.913   8.172  18.881  0.00  0.00    +0.000 C 
BRANCH  18  19
ATOM     19  C   UNL     1       2.499   7.114  17.942  0.00  0.00    +0.000 C 
BRANCH  19  20
ATOM     20  C   UNL     1       3.976   7.336  17.577  0.00  0.00    +0.000 C 
BRANCH  20  21
ATOM     21  C   UNL     1       4.570   6.245  16.679  0.00  0.00    +0.000 C 
BRANCH  21  22
ATOM     22  C   UNL     1       5.774   5.566  17.343  0.00  0.00    +0.000 C 
BRANCH  22  24
ATOM     23  C   UNL     1       6.919   5.413  19.423  0.00  0.00    +0.000 C 
ATOM     24  N   UNL     1       5.604   5.276  18.774  0.00  0.00    +0.000 NA
BRANCH  24  25
ATOM     25  C   UNL     1       5.050   3.920  18.988  0.00  0.00    +0.000 C 
BRANCH  25  26
ATOM     26  C   UNL     1       3.565   3.937  19.276  0.00  0.00    +0.000 A 
ATOM     27  C   UNL     1       3.087   4.509  20.464  0.00  0.00    +0.000 A 
ATOM     28  C   UNL     1       1.737   4.413  20.796  0.00  0.00    +0.000 A 
ATOM     29  C   UNL     1       0.856   3.754  19.941  0.00  0.00    +0.000 A 
ATOM     30  C   UNL     1       1.316   3.218  18.738  0.00  0.00    +0.000 A 
ATOM     31  C   UNL     1       2.665   3.317  18.401  0.00  0.00    +0.000 A 
ENDBRANCH  25  26
ENDBRANCH  24  25
ENDBRANCH  22  24
ENDBRANCH  21  22
ENDBRANCH  20  21
ENDBRANCH  19  20
ENDBRANCH  18  19
ENDBRANCH  17  18
ENDBRANCH   1  17
TORSDOF 10
ENDMDL
