MODEL 1
REMARK VINA RESULT:      -7.6      0.000      0.000
REMARK  Name = 
REMARK  5 active torsions:
REMARK  status: ('A' for Active; 'I' for Inactive)
REMARK    1  A    between atoms: N_1  and  C_2
REMARK    2  A    between atoms: C_2  and  C_3
REMARK    3  A    between atoms: C_8  and  N_9
REMARK    4  A    between atoms: C_10  and  C_12
REMARK    5  A    between atoms: C_16  and  N_17
REMARK                            x       y       z     vdW  Elec       q    Type
REMARK                         _______ _______ _______ _____ _____    ______ ____
ROOT
ATOM      1  N   UNL     1       2.107   8.171  19.755  0.00  0.00    +0.000 N 
ATOM      2  C   UNL     1       2.215   6.788  19.749  0.00  0.00    +0.000 C 
ATOM      3  O   UNL     1       1.576   6.059  20.510  0.00  0.00    +0.000 OA
ATOM      4  H   UNL     1       2.765   8.726  19.203  0.00  0.00    +0.000 HD
ENDROOT
BRANCH   2   5
ATOM      5  C   UNL     1       3.151   6.147  18.842  0.00  0.00    +0.000 A 
ATOM      6  C   UNL     1       4.001   6.817  17.979  0.00  0.00    +0.000 A 
ATOM      7  C   UNL     1       4.628   5.859  17.169  0.00  0.00    +0.000 A 
ATOM      8  C   UNL     1       5.499   5.933  16.069  0.00  0.00    +0.000 A 
ATOM      9  C   UNL     1       5.879   4.737  15.447  0.00  0.00    +0.000 A 
ATOM     10  C   UNL     1       5.449   3.493  15.940  0.00  0.00    +0.000 A 
ATOM     11  C   UNL     1       4.600   3.415  17.065  0.00  0.00    +0.000 A 
ATOM     12  C   UNL     1       4.188   4.623  17.634  0.00  0.00    +0.000 A 
ATOM     13  O   UNL     1       3.297   4.792  18.672  0.00  0.00    +0.000 OA
BRANCH   9  14
ATOM     14  N   UNL     1       6.717   4.806  14.240  0.00  0.00    +0.000 N 
ATOM     15  O   UNL     1       7.676   5.586  14.245  0.00  0.00    +0.000 OA
ATOM     16  O   UNL     1       6.406   4.081  13.282  0.00  0.00    +0.000 OA
ENDBRANCH   9  14
ENDBRANCH   2   5
BRANCH   1  22
ATOM     17  C   UNL     1       0.240   9.783  19.937  0.00  0.00    +0.000 A 
ATOM     18  C   UNL     1      -0.647  10.513  20.766  0.00  0.00    +0.000 A 
ATOM     19  C   UNL     1      -0.626  10.399  22.153  0.00  0.00    +0.000 A 
ATOM     20  C   UNL     1       0.280   9.544  22.748  0.00  0.00    +0.000 A 
ATOM     21  C   UNL     1       1.157   8.804  21.951  0.00  0.00    +0.000 A 
ATOM     22  C   UNL     1       1.176   8.916  20.549  0.00  0.00    +0.000 A 
BRANCH  17  23
ATOM     23  C   UNL     1       0.202  10.106  18.464  0.00  0.00    +0.000 C 
BRANCH  23  24
ATOM     24  N   UNL     1       1.508  10.395  17.867  0.00  0.00    +0.000 NA
ATOM     25  H   UNL     1       2.080   9.555  17.959  0.00  0.00    +0.000 HD
ATOM     26  H   UNL     1       1.966  11.096  18.453  0.00  0.00    +0.000 HD
ENDBRANCH  23  24
ENDBRANCH  17  23
ENDBRANCH   1  22
TORSDOF 5
ENDMDL
MODEL 2
REMARK VINA RESULT:      -7.6      1.924      2.505
REMARK  Name = 
REMARK  5 active torsions:
REMARK  status: ('A' for Active; 'I' for Inactive)
REMARK    1  A    between atoms: N_1  and  C_2
REMARK    2  A    between atoms: C_2  and  C_3
REMARK    3  A    between atoms: C_8  and  N_9
REMARK    4  A    between atoms: C_10  and  C_12
REMARK    5  A    between atoms: C_16  and  N_17
REMARK                            x       y       z     vdW  Elec       q    Type
REMARK                         _______ _______ _______ _____ _____    ______ ____
ROOT
ATOM      1  N   UNL     1       0.999   9.510  17.908  0.00  0.00    +0.000 N 
ATOM      2  C   UNL     1       1.599   8.632  18.799  0.00  0.00    +0.000 C 
ATOM      3  O   UNL     1       1.427   8.686  20.017  0.00  0.00    +0.000 OA
ATOM      4  H   UNL     1       1.292   9.506  16.929  0.00  0.00    +0.000 HD
ENDROOT
BRANCH   2   5
ATOM      5  C   UNL     1       2.514   7.620  18.299  0.00  0.00    +0.000 A 
ATOM      6  C   UNL     1       3.636   7.878  17.531  0.00  0.00    +0.000 A 
ATOM      7  C   UNL     1       4.165   6.646  17.121  0.00  0.00    +0.000 A 
ATOM      8  C   UNL     1       5.216   6.272  16.266  0.00  0.00    +0.000 A 
ATOM      9  C   UNL     1       5.419   4.906  16.029  0.00  0.00    +0.000 A 
ATOM     10  C   UNL     1       4.634   3.933  16.670  0.00  0.00    +0.000 A 
ATOM     11  C   UNL     1       3.600   4.305  17.556  0.00  0.00    +0.000 A 
ATOM     12  C   UNL     1       3.378   5.673  17.732  0.00  0.00    +0.000 A 
ATOM     13  O   UNL     1       2.375   6.264  18.470  0.00  0.00    +0.000 OA
BRANCH   9  14
ATOM     14  N   UNL     1       6.456   4.506  15.066  0.00  0.00    +0.000 N 
ATOM     15  O   UNL     1       6.128   3.750  14.144  0.00  0.00    +0.000 OA
ATOM     16  O   UNL     1       7.603   4.944  15.240  0.00  0.00    +0.000 OA
ENDBRANCH   9  14
ENDBRANCH   2   5
BRANCH   1  22
ATOM     17  C   UNL     1       0.437  11.809  18.625  0.00  0.00    +0.000 A 
ATOM     18  C   UNL     1      -0.557  12.751  18.990  0.00  0.00    +0.000 A 
ATOM     19  C   UNL     1      -1.912  12.429  19.000  0.00  0.00    +0.000 A 
ATOM     20  C   UNL     1      -2.309  11.157  18.637  0.00  0.00    +0.000 A 
ATOM     21  C   UNL     1      -1.347  10.215  18.262  0.00  0.00    +0.000 A 
ATOM     22  C   UNL     1       0.030  10.503  18.265  0.00  0.00    +0.000 A 
BRANCH  17  23
ATOM     23  C   UNL     1       1.871  12.249  18.792  0.00  0.00    +0.000 C 
BRANCH  23  24
ATOM     24  N   UNL     1       2.663  12.232  17.561  0.00  0.00    +0.000 NA
ATOM     25  H   UNL     1       2.081  12.617  16.816  0.00  0.00    +0.000 HD
ATOM     26  H   UNL     1       2.814  11.254  17.304  0.00  0.00    +0.000 HD
ENDBRANCH  23  24
ENDBRANCH  17  23
ENDBRANCH   1  22
TORSDOF 5
ENDMDL
MODEL 3
REMARK VINA RESULT:      -7.5      2.931      8.372
REMARK  Name = 
REMARK  5 active torsions:
REMARK  status: ('A' for Active; 'I' for Inactive)
REMARK    1  A    between atoms: N_1  and  C_2
REMARK    2  A    between atoms: C_2  and  C_3
REMARK    3  A    between atoms: C_8  and  N_9
REMARK    4  A    between atoms: C_10  and  C_12
REMARK    5  A    between atoms: C_16  and  N_17
REMARK                            x       y       z     vdW  Elec       q    Type
REMARK                         _______ _______ _______ _____ _____    ______ ____
ROOT
ATOM      1  N   UNL     1       4.392   6.913  17.700  0.00  0.00    +0.000 N 
ATOM      2  C   UNL     1       3.150   6.512  18.171  0.00  0.00    +0.000 C 
ATOM      3  O   UNL     1       2.676   5.396  17.957  0.00  0.00    +0.000 OA
ATOM      4  H   UNL     1       4.667   7.893  17.787  0.00  0.00    +0.000 HD
ENDROOT
BRANCH   2   5
ATOM      5  C   UNL     1       2.331   7.452  18.918  0.00  0.00    +0.000 A 
ATOM      6  C   UNL     1       1.876   8.666  18.430  0.00  0.00    +0.000 A 
ATOM      7  C   UNL     1       1.257   9.345  19.489  0.00  0.00    +0.000 A 
ATOM      8  C   UNL     1       0.704  10.629  19.632  0.00  0.00    +0.000 A 
ATOM      9  C   UNL     1       0.222  11.002  20.894  0.00  0.00    +0.000 A 
ATOM     10  C   UNL     1       0.239  10.103  21.974  0.00  0.00    +0.000 A 
ATOM     11  C   UNL     1       0.764   8.802  21.823  0.00  0.00    +0.000 A 
ATOM     12  C   UNL     1       1.291   8.471  20.572  0.00  0.00    +0.000 A 
ATOM     13  O   UNL     1       1.932   7.301  20.223  0.00  0.00    +0.000 OA
BRANCH   9  14
ATOM     14  N   UNL     1      -0.276  12.374  21.080  0.00  0.00    +0.000 N 
ATOM     15  O   UNL     1      -0.945  12.874  20.169  0.00  0.00    +0.000 OA
ATOM     16  O   UNL     1       0.014  12.952  22.138  0.00  0.00    +0.000 OA
ENDBRANCH   9  14
ENDBRANCH   2   5
BRANCH   1  22
ATOM     17  C   UNL     1       6.308   5.350  17.731  0.00  0.00    +0.000 A 
ATOM     18  C   UNL     1       7.215   4.537  17.007  0.00  0.00    +0.000 A 
ATOM     19  C   UNL     1       7.158   4.420  15.621  0.00  0.00    +0.000 A 
ATOM     20  C   UNL     1       6.185   5.108  14.923  0.00  0.00    +0.000 A 
ATOM     21  C   UNL     1       5.271   5.905  15.617  0.00  0.00    +0.000 A 
ATOM     22  C   UNL     1       5.319   6.063  17.014  0.00  0.00    +0.000 A 
BRANCH  17  23
ATOM     23  C   UNL     1       6.571   5.495  19.210  0.00  0.00    +0.000 C 
BRANCH  23  24
ATOM     24  N   UNL     1       7.987   5.552  19.577  0.00  0.00    +0.000 NA
ATOM     25  H   UNL     1       8.455   6.160  18.904  0.00  0.00    +0.000 HD
ATOM     26  H   UNL     1       8.384   4.624  19.420  0.00  0.00    +0.000 HD
ENDBRANCH  23  24
ENDBRANCH  17  23
ENDBRANCH   1  22
TORSDOF 5
ENDMDL
MODEL 4
REMARK VINA RESULT:      -7.4      3.124      8.645
REMARK  Name = 
REMARK  5 active torsions:
REMARK  status: ('A' for Active; 'I' for Inactive)
REMARK    1  A    between atoms: N_1  and  C_2
REMARK    2  A    between atoms: C_2  and  C_3
REMARK    3  A    between atoms: C_8  and  N_9
REMARK    4  A    between atoms: C_10  and  C_12
REMARK    5  A    between atoms: C_16  and  N_17
REMARK                            x       y       z     vdW  Elec       q    Type
REMARK                         _______ _______ _______ _____ _____    ______ ____
ROOT
ATOM      1  N   UNL     1       3.213   6.755  18.625  0.00  0.00    +0.000 N 
ATOM      2  C   UNL     1       2.487   7.895  18.309  0.00  0.00    +0.000 C 
ATOM      3  O   UNL     1       2.549   8.451  17.212  0.00  0.00    +0.000 OA
ATOM      4  H   UNL     1       3.230   6.426  19.592  0.00  0.00    +0.000 HD
ENDROOT
BRANCH   2   5
ATOM      5  C   UNL     1       1.640   8.506  19.319  0.00  0.00    +0.000 A 
ATOM      6  C   UNL     1       0.999   9.726  19.181  0.00  0.00    +0.000 A 
ATOM      7  C   UNL     1       0.410  10.039  20.415  0.00  0.00    +0.000 A 
ATOM      8  C   UNL     1      -0.274  11.162  20.911  0.00  0.00    +0.000 A 
ATOM      9  C   UNL     1      -0.670  11.153  22.254  0.00  0.00    +0.000 A 
ATOM     10  C   UNL     1      -0.442  10.032  23.072  0.00  0.00    +0.000 A 
ATOM     11  C   UNL     1       0.216   8.891  22.566  0.00  0.00    +0.000 A 
ATOM     12  C   UNL     1       0.653   8.945  21.240  0.00  0.00    +0.000 A 
ATOM     13  O   UNL     1       1.391   7.993  20.569  0.00  0.00    +0.000 OA
BRANCH   9  14
ATOM     14  N   UNL     1      -1.306  12.357  22.809  0.00  0.00    +0.000 N 
ATOM     15  O   UNL     1      -2.525  12.492  22.652  0.00  0.00    +0.000 OA
ATOM     16  O   UNL     1      -0.579  13.173  23.396  0.00  0.00    +0.000 OA
ENDBRANCH   9  14
ENDBRANCH   2   5
BRANCH   1  22
ATOM     17  C   UNL     1       3.704   4.688  17.359  0.00  0.00    +0.000 A 
ATOM     18  C   UNL     1       4.549   3.997  16.457  0.00  0.00    +0.000 A 
ATOM     19  C   UNL     1       5.678   4.592  15.899  0.00  0.00    +0.000 A 
ATOM     20  C   UNL     1       5.986   5.898  16.225  0.00  0.00    +0.000 A 
ATOM     21  C   UNL     1       5.159   6.604  17.103  0.00  0.00    +0.000 A 
ATOM     22  C   UNL     1       4.027   6.022  17.702  0.00  0.00    +0.000 A 
BRANCH  17  23
ATOM     23  C   UNL     1       2.598   3.881  17.994  0.00  0.00    +0.000 C 
BRANCH  23  24
ATOM     24  N   UNL     1       1.251   4.218  17.531  0.00  0.00    +0.000 NA
ATOM     25  H   UNL     1       0.697   3.361  17.544  0.00  0.00    +0.000 HD
ATOM     26  H   UNL     1       1.319   4.478  16.545  0.00  0.00    +0.000 HD
ENDBRANCH  23  24
ENDBRANCH  17  23
ENDBRANCH   1  22
TORSDOF 5
ENDMDL
MODEL 5
REMARK VINA RESULT:      -7.3      2.919      8.574
REMARK  Name = 
REMARK  5 active torsions:
REMARK  status: ('A' for Active; 'I' for Inactive)
REMARK    1  A    between atoms: N_1  and  C_2
REMARK    2  A    between atoms: C_2  and  C_3
REMARK    3  A    between atoms: C_8  and  N_9
REMARK    4  A    between atoms: C_10  and  C_12
REMARK    5  A    between atoms: C_16  and  N_17
REMARK                            x       y       z     vdW  Elec       q    Type
REMARK                         _______ _______ _______ _____ _____    ______ ____
ROOT
ATOM      1  N   UNL     1       4.234   7.121  17.504  0.00  0.00    +0.000 N 
ATOM      2  C   UNL     1       2.972   6.854  18.017  0.00  0.00    +0.000 C 
ATOM      3  O   UNL     1       2.423   5.755  17.917  0.00  0.00    +0.000 OA
ATOM      4  H   UNL     1       4.573   8.085  17.492  0.00  0.00    +0.000 HD
ENDROOT
BRANCH   2   5
ATOM      5  C   UNL     1       2.224   7.916  18.667  0.00  0.00    +0.000 A 
ATOM      6  C   UNL     1       1.985   7.995  20.029  0.00  0.00    +0.000 A 
ATOM      7  C   UNL     1       1.107   9.067  20.245  0.00  0.00    +0.000 A 
ATOM      8  C   UNL     1       0.442   9.569  21.377  0.00  0.00    +0.000 A 
ATOM      9  C   UNL     1      -0.439  10.644  21.202  0.00  0.00    +0.000 A 
ATOM     10  C   UNL     1      -0.613  11.243  19.942  0.00  0.00    +0.000 A 
ATOM     11  C   UNL     1       0.080  10.762  18.811  0.00  0.00    +0.000 A 
ATOM     12  C   UNL     1       0.909   9.653  18.998  0.00  0.00    +0.000 A 
ATOM     13  O   UNL     1       1.605   8.963  18.029  0.00  0.00    +0.000 OA
BRANCH   9  14
ATOM     14  N   UNL     1      -1.210  11.119  22.361  0.00  0.00    +0.000 N 
ATOM     15  O   UNL     1      -0.935  10.647  23.470  0.00  0.00    +0.000 OA
ATOM     16  O   UNL     1      -2.096  11.961  22.156  0.00  0.00    +0.000 OA
ENDBRANCH   9  14
ENDBRANCH   2   5
BRANCH   1  22
ATOM     17  C   UNL     1       5.844   5.256  17.709  0.00  0.00    +0.000 A 
ATOM     18  C   UNL     1       6.699   4.323  17.071  0.00  0.00    +0.000 A 
ATOM     19  C   UNL     1       6.818   4.258  15.686  0.00  0.00    +0.000 A 
ATOM     20  C   UNL     1       6.078   5.121  14.901  0.00  0.00    +0.000 A 
ATOM     21  C   UNL     1       5.219   6.041  15.508  0.00  0.00    +0.000 A 
ATOM     22  C   UNL     1       5.096   6.148  16.905  0.00  0.00    +0.000 A 
BRANCH  17  23
ATOM     23  C   UNL     1       5.917   5.311  19.216  0.00  0.00    +0.000 C 
BRANCH  23  24
ATOM     24  N   UNL     1       7.274   5.385  19.760  0.00  0.00    +0.000 NA
ATOM     25  H   UNL     1       7.892   5.690  19.006  0.00  0.00    +0.000 HD
ATOM     26  H   UNL     1       7.571   4.432  19.979  0.00  0.00    +0.000 HD
ENDBRANCH  23  24
ENDBRANCH  17  23
ENDBRANCH   1  22
TORSDOF 5
ENDMDL
MODEL 6
REMARK VINA RESULT:      -7.3      1.449      1.887
REMARK  Name = 
REMARK  5 active torsions:
REMARK  status: ('A' for Active; 'I' for Inactive)
REMARK    1  A    between atoms: N_1  and  C_2
REMARK    2  A    between atoms: C_2  and  C_3
REMARK    3  A    between atoms: C_8  and  N_9
REMARK    4  A    between atoms: C_10  and  C_12
REMARK    5  A    between atoms: C_16  and  N_17
REMARK                            x       y       z     vdW  Elec       q    Type
REMARK                         _______ _______ _______ _____ _____    ______ ____
ROOT
ATOM      1  N   UNL     1       1.370   9.339  18.659  0.00  0.00    +0.000 N 
ATOM      2  C   UNL     1       1.793   8.173  19.282  0.00  0.00    +0.000 C 
ATOM      3  O   UNL     1       1.474   7.870  20.432  0.00  0.00    +0.000 OA
ATOM      4  H   UNL     1       1.782   9.603  17.761  0.00  0.00    +0.000 HD
ENDROOT
BRANCH   2   5
ATOM      5  C   UNL     1       2.690   7.271  18.580  0.00  0.00    +0.000 A 
ATOM      6  C   UNL     1       3.728   7.671  17.756  0.00  0.00    +0.000 A 
ATOM      7  C   UNL     1       4.257   6.523  17.149  0.00  0.00    +0.000 A 
ATOM      8  C   UNL     1       5.236   6.304  16.165  0.00  0.00    +0.000 A 
ATOM      9  C   UNL     1       5.462   4.988  15.740  0.00  0.00    +0.000 A 
ATOM     10  C   UNL     1       4.771   3.910  16.319  0.00  0.00    +0.000 A 
ATOM     11  C   UNL     1       3.811   4.125  17.331  0.00  0.00    +0.000 A 
ATOM     12  C   UNL     1       3.562   5.449  17.698  0.00  0.00    +0.000 A 
ATOM     13  O   UNL     1       2.612   5.900  18.590  0.00  0.00    +0.000 OA
BRANCH   9  14
ATOM     14  N   UNL     1       6.418   4.756  14.647  0.00  0.00    +0.000 N 
ATOM     15  O   UNL     1       6.116   3.927  13.782  0.00  0.00    +0.000 OA
ATOM     16  O   UNL     1       7.477   5.401  14.663  0.00  0.00    +0.000 OA
ENDBRANCH   9  14
ENDBRANCH   2   5
BRANCH   1  22
ATOM     17  C   UNL     1      -0.843  10.442  18.633  0.00  0.00    +0.000 A 
ATOM     18  C   UNL     1      -1.726  11.390  19.207  0.00  0.00    +0.000 A 
ATOM     19  C   UNL     1      -1.374  12.148  20.320  0.00  0.00    +0.000 A 
ATOM     20  C   UNL     1      -0.130  11.972  20.894  0.00  0.00    +0.000 A 
ATOM     21  C   UNL     1       0.753  11.034  20.353  0.00  0.00    +0.000 A 
ATOM     22  C   UNL     1       0.436  10.271  19.214  0.00  0.00    +0.000 A 
BRANCH  17  23
ATOM     23  C   UNL     1      -1.298   9.792  17.349  0.00  0.00    +0.000 C 
BRANCH  23  24
ATOM     24  N   UNL     1      -2.076  10.662  16.466  0.00  0.00    +0.000 NA
ATOM     25  H   UNL     1      -1.614  10.668  15.555  0.00  0.00    +0.000 HD
ATOM     26  H   UNL     1      -1.987  11.618  16.817  0.00  0.00    +0.000 HD
ENDBRANCH  23  24
ENDBRANCH  17  23
ENDBRANCH   1  22
TORSDOF 5
ENDMDL
MODEL 7
REMARK VINA RESULT:      -7.3      5.977      8.631
REMARK  Name = 
REMARK  5 active torsions:
REMARK  status: ('A' for Active; 'I' for Inactive)
REMARK    1  A    between atoms: N_1  and  C_2
REMARK    2  A    between atoms: C_2  and  C_3
REMARK    3  A    between atoms: C_8  and  N_9
REMARK    4  A    between atoms: C_10  and  C_12
REMARK    5  A    between atoms: C_16  and  N_17
REMARK                            x       y       z     vdW  Elec       q    Type
REMARK                         _______ _______ _______ _____ _____    ______ ____
ROOT
ATOM      1  N   UNL     1       6.909   7.285  16.900  0.00  0.00    +0.000 N 
ATOM      2  C   UNL     1       7.792   7.434  17.961  0.00  0.00    +0.000 C 
ATOM      3  O   UNL     1       8.161   6.495  18.667  0.00  0.00    +0.000 OA
ATOM      4  H   UNL     1       6.530   8.117  16.445  0.00  0.00    +0.000 HD
ENDROOT
BRANCH   2   5
ATOM      5  C   UNL     1       8.283   8.758  18.302  0.00  0.00    +0.000 A 
ATOM      6  C   UNL     1       8.103   9.892  17.527  0.00  0.00    +0.000 A 
ATOM      7  C   UNL     1       8.848  10.928  18.110  0.00  0.00    +0.000 A 
ATOM      8  C   UNL     1       9.132  12.252  17.737  0.00  0.00    +0.000 A 
ATOM      9  C   UNL     1       9.995  12.996  18.552  0.00  0.00    +0.000 A 
ATOM     10  C   UNL     1      10.520  12.456  19.738  0.00  0.00    +0.000 A 
ATOM     11  C   UNL     1      10.210  11.136  20.131  0.00  0.00    +0.000 A 
ATOM     12  C   UNL     1       9.393  10.394  19.274  0.00  0.00    +0.000 A 
ATOM     13  O   UNL     1       9.035   9.069  19.407  0.00  0.00    +0.000 OA
BRANCH   9  14
ATOM     14  N   UNL     1      10.372  14.352  18.124  0.00  0.00    +0.000 N 
ATOM     15  O   UNL     1      10.994  14.472  17.062  0.00  0.00    +0.000 OA
ATOM     16  O   UNL     1      10.051  15.297  18.860  0.00  0.00    +0.000 OA
ENDBRANCH   9  14
ENDBRANCH   2   5
BRANCH   1  22
ATOM     17  C   UNL     1       5.293   5.417  17.041  0.00  0.00    +0.000 A 
ATOM     18  C   UNL     1       4.848   4.167  16.545  0.00  0.00    +0.000 A 
ATOM     19  C   UNL     1       5.469   3.533  15.474  0.00  0.00    +0.000 A 
ATOM     20  C   UNL     1       6.551   4.137  14.863  0.00  0.00    +0.000 A 
ATOM     21  C   UNL     1       7.001   5.376  15.327  0.00  0.00    +0.000 A 
ATOM     22  C   UNL     1       6.409   6.030  16.423  0.00  0.00    +0.000 A 
BRANCH  17  23
ATOM     23  C   UNL     1       4.617   5.923  18.292  0.00  0.00    +0.000 C 
BRANCH  23  24
ATOM     24  N   UNL     1       5.271   5.532  19.541  0.00  0.00    +0.000 NA
ATOM     25  H   UNL     1       5.949   4.801  19.318  0.00  0.00    +0.000 HD
ATOM     26  H   UNL     1       4.569   5.075  20.127  0.00  0.00    +0.000 HD
ENDBRANCH  23  24
ENDBRANCH  17  23
ENDBRANCH   1  22
TORSDOF 5
ENDMDL
MODEL 8
REMARK VINA RESULT:      -7.3      3.355      4.235
REMARK  Name = 
REMARK  5 active torsions:
REMARK  status: ('A' for Active; 'I' for Inactive)
REMARK    1  A    between atoms: N_1  and  C_2
REMARK    2  A    between atoms: C_2  and  C_3
REMARK    3  A    between atoms: C_8  and  N_9
REMARK    4  A    between atoms: C_10  and  C_12
REMARK    5  A    between atoms: C_16  and  N_17
REMARK                            x       y       z     vdW  Elec       q    Type
REMARK                         _______ _______ _______ _____ _____    ______ ____
ROOT
ATOM      1  N   UNL     1       1.226   9.838  19.537  0.00  0.00    +0.000 N 
ATOM      2  C   UNL     1       1.793   8.957  18.627  0.00  0.00    +0.000 C 
ATOM      3  O   UNL     1       1.926   9.217  17.430  0.00  0.00    +0.000 OA
ATOM      4  H   UNL     1       1.013   9.512  20.481  0.00  0.00    +0.000 HD
ENDROOT
BRANCH   2   5
ATOM      5  C   UNL     1       2.217   7.641  19.074  0.00  0.00    +0.000 A 
ATOM      6  C   UNL     1       3.052   6.795  18.364  0.00  0.00    +0.000 A 
ATOM      7  C   UNL     1       3.100   5.571  19.047  0.00  0.00    +0.000 A 
ATOM      8  C   UNL     1       3.686   4.324  18.772  0.00  0.00    +0.000 A 
ATOM      9  C   UNL     1       3.461   3.277  19.674  0.00  0.00    +0.000 A 
ATOM     10  C   UNL     1       2.718   3.477  20.850  0.00  0.00    +0.000 A 
ATOM     11  C   UNL     1       2.156   4.738  21.145  0.00  0.00    +0.000 A 
ATOM     12  C   UNL     1       2.345   5.753  20.203  0.00  0.00    +0.000 A 
ATOM     13  O   UNL     1       1.816   7.025  20.234  0.00  0.00    +0.000 OA
BRANCH   9  14
ATOM     14  N   UNL     1       3.993   1.943  19.352  0.00  0.00    +0.000 N 
ATOM     15  O   UNL     1       3.496   1.339  18.395  0.00  0.00    +0.000 OA
ATOM     16  O   UNL     1       4.905   1.500  20.066  0.00  0.00    +0.000 OA
ENDBRANCH   9  14
ENDBRANCH   2   5
BRANCH   1  22
ATOM     17  C   UNL     1      -0.450  11.457  18.708  0.00  0.00    +0.000 A 
ATOM     18  C   UNL     1      -0.785  12.801  18.409  0.00  0.00    +0.000 A 
ATOM     19  C   UNL     1       0.104  13.850  18.624  0.00  0.00    +0.000 A 
ATOM     20  C   UNL     1       1.352  13.582  19.151  0.00  0.00    +0.000 A 
ATOM     21  C   UNL     1       1.701  12.266  19.466  0.00  0.00    +0.000 A 
ATOM     22  C   UNL     1       0.834  11.182  19.237  0.00  0.00    +0.000 A 
BRANCH  17  23
ATOM     23  C   UNL     1      -1.453  10.407  18.297  0.00  0.00    +0.000 C 
BRANCH  23  24
ATOM     24  N   UNL     1      -1.210   9.811  16.982  0.00  0.00    +0.000 NA
ATOM     25  H   UNL     1      -0.634   8.980  17.124  0.00  0.00    +0.000 HD
ATOM     26  H   UNL     1      -0.621  10.457  16.454  0.00  0.00    +0.000 HD
ENDBRANCH  23  24
ENDBRANCH  17  23
ENDBRANCH   1  22
TORSDOF 5
ENDMDL
MODEL 9
REMARK VINA RESULT:      -7.1      1.874      2.644
REMARK  Name = 
REMARK  5 active torsions:
REMARK  status: ('A' for Active; 'I' for Inactive)
REMARK    1  A    between atoms: N_1  and  C_2
REMARK    2  A    between atoms: C_2  and  C_3
REMARK    3  A    between atoms: C_8  and  N_9
REMARK    4  A    between atoms: C_10  and  C_12
REMARK    5  A    between atoms: C_16  and  N_17
REMARK                            x       y       z     vdW  Elec       q    Type
REMARK                         _______ _______ _______ _____ _____    ______ ____
ROOT
ATOM      1  N   UNL     1       0.815   9.587  18.046  0.00  0.00    +0.000 N 
ATOM      2  C   UNL     1       1.406   8.744  18.976  0.00  0.00    +0.000 C 
ATOM      3  O   UNL     1       1.099   8.736  20.169  0.00  0.00    +0.000 OA
ATOM      4  H   UNL     1       1.211   9.649  17.106  0.00  0.00    +0.000 HD
ENDROOT
BRANCH   2   5
ATOM      5  C   UNL     1       2.472   7.850  18.557  0.00  0.00    +0.000 A 
ATOM      6  C   UNL     1       3.330   8.086  17.496  0.00  0.00    +0.000 A 
ATOM      7  C   UNL     1       4.109   6.934  17.314  0.00  0.00    +0.000 A 
ATOM      8  C   UNL     1       5.063   6.544  16.359  0.00  0.00    +0.000 A 
ATOM      9  C   UNL     1       5.601   5.254  16.453  0.00  0.00    +0.000 A 
ATOM     10  C   UNL     1       5.242   4.392  17.504  0.00  0.00    +0.000 A 
ATOM     11  C   UNL     1       4.309   4.795  18.483  0.00  0.00    +0.000 A 
ATOM     12  C   UNL     1       3.743   6.064  18.336  0.00  0.00    +0.000 A 
ATOM     13  O   UNL     1       2.752   6.626  19.113  0.00  0.00    +0.000 OA
BRANCH   9  14
ATOM     14  N   UNL     1       6.532   4.801  15.408  0.00  0.00    +0.000 N 
ATOM     15  O   UNL     1       7.518   5.506  15.166  0.00  0.00    +0.000 OA
ATOM     16  O   UNL     1       6.267   3.740  14.823  0.00  0.00    +0.000 OA
ENDBRANCH   9  14
ENDBRANCH   2   5
BRANCH   1  22
ATOM     17  C   UNL     1      -0.084  11.687  18.995  0.00  0.00    +0.000 A 
ATOM     18  C   UNL     1      -1.208  12.508  19.258  0.00  0.00    +0.000 A 
ATOM     19  C   UNL     1      -2.494  12.147  18.869  0.00  0.00    +0.000 A 
ATOM     20  C   UNL     1      -2.690  10.956  18.198  0.00  0.00    +0.000 A 
ATOM     21  C   UNL     1      -1.595  10.135  17.916  0.00  0.00    +0.000 A 
ATOM     22  C   UNL     1      -0.286  10.461  18.318  0.00  0.00    +0.000 A 
BRANCH  17  23
ATOM     23  C   UNL     1       1.228  12.132  19.594  0.00  0.00    +0.000 C 
BRANCH  23  24
ATOM     24  N   UNL     1       1.374  11.851  21.023  0.00  0.00    +0.000 NA
ATOM     25  H   UNL     1       0.577  12.271  21.502  0.00  0.00    +0.000 HD
ATOM     26  H   UNL     1       2.190  12.368  21.358  0.00  0.00    +0.000 HD
ENDBRANCH  23  24
ENDBRANCH  17  23
ENDBRANCH   1  22
TORSDOF 5
ENDMDL
