MODEL 1
REMARK VINA RESULT:      -8.5      0.000      0.000
REMARK  Name = 
REMARK  7 active torsions:
REMARK  status: ('A' for Active; 'I' for Inactive)
REMARK    1  A    between atoms: C_1  and  C_2
REMARK    2  A    between atoms: C_2  and  C_3
REMARK    3  A    between atoms: C_2  and  C_18
REMARK    4  A    between atoms: C_3  and  N_4
REMARK    5  A    between atoms: C_5  and  C_7
REMARK    6  A    between atoms: C_16  and  N_17
REMARK    7  A    between atoms: C_22  and  N_23
REMARK                            x       y       z     vdW  Elec       q    Type
REMARK                         _______ _______ _______ _____ _____    ______ ____
ROOT
ATOM      1  C   UNL     1       1.348   4.752  20.809  0.00  0.00    +0.000 C 
ATOM      2  C   UNL     1       2.112   5.689  19.873  0.00  0.00    +0.000 C 
ENDROOT
BRANCH   2   3
ATOM      3  C   UNL     1       1.670   7.131  20.061  0.00  0.00    +0.000 A 
ATOM      4  C   UNL     1       1.071   7.532  21.259  0.00  0.00    +0.000 A 
ATOM      5  C   UNL     1       0.634   8.850  21.423  0.00  0.00    +0.000 A 
ATOM      6  F   UNL     1       0.026   9.149  22.583  0.00  0.00    +0.000 F 
ATOM      7  C   UNL     1       0.758   9.818  20.411  0.00  0.00    +0.000 A 
ATOM      8  C   UNL     1       1.364   9.400  19.217  0.00  0.00    +0.000 A 
ATOM      9  C   UNL     1       1.820   8.092  19.056  0.00  0.00    +0.000 A 
ATOM     10  F   UNL     1       2.415   7.766  17.900  0.00  0.00    +0.000 F 
BRANCH   7  11
ATOM     11  N   UNL     1       0.322  11.150  20.505  0.00  0.00    +0.000 N 
ATOM     12  C   UNL     1      -0.843  11.589  19.694  0.00  0.00    +0.000 C 
ATOM     13  C   UNL     1      -0.438  12.584  18.563  0.00  0.00    +0.000 C 
ATOM     14  C   UNL     1      -0.331  14.033  19.078  0.00  0.00    +0.000 C 
ATOM     15  C   UNL     1       1.171  14.266  19.229  0.00  0.00    +0.000 C 
ATOM     16  C   UNL     1       1.730  12.849  19.240  0.00  0.00    +0.000 C 
ATOM     17  C   UNL     1       1.427  12.143  20.608  0.00  0.00    +0.000 C 
ATOM     18  N   UNL     1       0.944  12.312  18.103  0.00  0.00    +0.000 NA
ATOM     19  H   UNL     1       1.069  11.298  18.069  0.00  0.00    +0.000 HD
ENDBRANCH   7  11
ENDBRANCH   2   3
BRANCH   2  20
ATOM     20  C   UNL     1       3.641   5.521  20.009  0.00  0.00    +0.000 C 
BRANCH  20  21
ATOM     21  N   UNL     1       4.259   5.288  18.718  0.00  0.00    +0.000 N 
ATOM     22  C   UNL     1       5.616   5.140  18.531  0.00  0.00    +0.000 C 
ATOM     23  O   UNL     1       6.410   5.179  19.469  0.00  0.00    +0.000 OA
ATOM     24  H   UNL     1       3.671   5.210  17.898  0.00  0.00    +0.000 HD
BRANCH  22  25
ATOM     25  C   UNL     1       6.018   4.925  17.140  0.00  0.00    +0.000 A 
ATOM     26  S   UNL     1       7.218   5.931  16.423  0.00  0.00    +0.000 S 
ATOM     27  C   UNL     1       7.097   5.144  14.931  0.00  0.00    +0.000 A 
ATOM     28  N   UNL     1       7.854   5.554  13.890  0.00  0.00    +0.000 NA
ATOM     29  C   UNL     1       7.649   4.851  12.761  0.00  0.00    +0.000 A 
ATOM     30  C   UNL     1       6.767   3.797  12.631  0.00  0.00    +0.000 A 
ATOM     31  F   UNL     1       6.636   3.161  11.462  0.00  0.00    +0.000 F 
ATOM     32  C   UNL     1       6.007   3.396  13.727  0.00  0.00    +0.000 A 
ATOM     33  C   UNL     1       6.174   4.100  14.939  0.00  0.00    +0.000 A 
ATOM     34  C   UNL     1       5.570   3.977  16.238  0.00  0.00    +0.000 A 
BRANCH  34  35
ATOM     35  N   UNL     1       4.648   3.032  16.539  0.00  0.00    +0.000 N 
ATOM     36  H   UNL     1       4.586   2.568  17.438  0.00  0.00    +0.000 HD
ATOM     37  H   UNL     1       3.826   2.900  15.944  0.00  0.00    +0.000 HD
ENDBRANCH  34  35
ENDBRANCH  22  25
ENDBRANCH  20  21
ENDBRANCH   2  20
TORSDOF 6
ENDMDL
MODEL 2
REMARK VINA RESULT:      -8.4      4.474     11.325
REMARK  Name = 
REMARK  7 active torsions:
REMARK  status: ('A' for Active; 'I' for Inactive)
REMARK    1  A    between atoms: C_1  and  C_2
REMARK    2  A    between atoms: C_2  and  C_3
REMARK    3  A    between atoms: C_2  and  C_18
REMARK    4  A    between atoms: C_3  and  N_4
REMARK    5  A    between atoms: C_5  and  C_7
REMARK    6  A    between atoms: C_16  and  N_17
REMARK    7  A    between atoms: C_22  and  N_23
REMARK                            x       y       z     vdW  Elec       q    Type
REMARK                         _______ _______ _______ _____ _____    ______ ____
ROOT
ATOM      1  C   UNL     1       1.348  11.131  19.530  0.00  0.00    +0.000 C 
ATOM      2  C   UNL     1       0.600   9.798  19.513  0.00  0.00    +0.000 C 
ENDROOT
BRANCH   2   3
ATOM      3  C   UNL     1       1.539   8.646  19.194  0.00  0.00    +0.000 A 
ATOM      4  C   UNL     1       1.685   7.587  20.094  0.00  0.00    +0.000 A 
ATOM      5  C   UNL     1       2.572   6.542  19.818  0.00  0.00    +0.000 A 
ATOM      6  F   UNL     1       2.693   5.584  20.751  0.00  0.00    +0.000 F 
ATOM      7  C   UNL     1       3.358   6.507  18.652  0.00  0.00    +0.000 A 
ATOM      8  C   UNL     1       3.197   7.576  17.758  0.00  0.00    +0.000 A 
ATOM      9  C   UNL     1       2.299   8.610  18.020  0.00  0.00    +0.000 A 
ATOM     10  F   UNL     1       2.173   9.586  17.110  0.00  0.00    +0.000 F 
BRANCH   7  11
ATOM     11  N   UNL     1       4.281   5.500  18.327  0.00  0.00    +0.000 N 
ATOM     12  C   UNL     1       5.504   5.343  19.155  0.00  0.00    +0.000 C 
ATOM     13  C   UNL     1       6.799   5.744  18.383  0.00  0.00    +0.000 C 
ATOM     14  C   UNL     1       7.327   4.597  17.502  0.00  0.00    +0.000 C 
ATOM     15  C   UNL     1       6.885   4.976  16.090  0.00  0.00    +0.000 C 
ATOM     16  C   UNL     1       5.794   6.008  16.347  0.00  0.00    +0.000 C 
ATOM     17  C   UNL     1       4.485   5.315  16.863  0.00  0.00    +0.000 C 
ATOM     18  N   UNL     1       6.502   6.798  17.384  0.00  0.00    +0.000 NA
ATOM     19  H   UNL     1       5.841   7.452  17.805  0.00  0.00    +0.000 HD
ENDBRANCH   7  11
ENDBRANCH   2   3
BRANCH   2  20
ATOM     20  C   UNL     1      -0.193   9.564  20.818  0.00  0.00    +0.000 C 
BRANCH  20  21
ATOM     21  N   UNL     1      -0.755  10.802  21.318  0.00  0.00    +0.000 N 
ATOM     22  C   UNL     1      -0.800  11.144  22.652  0.00  0.00    +0.000 C 
ATOM     23  O   UNL     1      -0.339  10.411  23.526  0.00  0.00    +0.000 OA
ATOM     24  H   UNL     1      -1.127  11.475  20.659  0.00  0.00    +0.000 HD
BRANCH  22  25
ATOM     25  C   UNL     1      -1.425  12.438  22.928  0.00  0.00    +0.000 A 
ATOM     26  S   UNL     1      -0.607  13.897  22.521  0.00  0.00    +0.000 S 
ATOM     27  C   UNL     1      -1.852  14.859  23.140  0.00  0.00    +0.000 A 
ATOM     28  N   UNL     1      -1.741  16.205  23.109  0.00  0.00    +0.000 NA
ATOM     29  C   UNL     1      -2.795  16.848  23.645  0.00  0.00    +0.000 A 
ATOM     30  C   UNL     1      -3.910  16.235  24.182  0.00  0.00    +0.000 A 
ATOM     31  F   UNL     1      -4.906  16.965  24.693  0.00  0.00    +0.000 F 
ATOM     32  C   UNL     1      -3.993  14.845  24.191  0.00  0.00    +0.000 A 
ATOM     33  C   UNL     1      -2.914  14.115  23.647  0.00  0.00    +0.000 A 
ATOM     34  C   UNL     1      -2.656  12.708  23.498  0.00  0.00    +0.000 A 
BRANCH  34  35
ATOM     35  N   UNL     1      -3.529  11.750  23.888  0.00  0.00    +0.000 N 
ATOM     36  H   UNL     1      -3.342  10.756  23.829  0.00  0.00    +0.000 HD
ATOM     37  H   UNL     1      -4.336  11.989  24.471  0.00  0.00    +0.000 HD
ENDBRANCH  34  35
ENDBRANCH  22  25
ENDBRANCH  20  21
ENDBRANCH   2  20
TORSDOF 6
ENDMDL
MODEL 3
REMARK VINA RESULT:      -8.4      1.177      1.516
REMARK  Name = 
REMARK  7 active torsions:
REMARK  status: ('A' for Active; 'I' for Inactive)
REMARK    1  A    between atoms: C_1  and  C_2
REMARK    2  A    between atoms: C_2  and  C_3
REMARK    3  A    between atoms: C_2  and  C_18
REMARK    4  A    between atoms: C_3  and  N_4
REMARK    5  A    between atoms: C_5  and  C_7
REMARK    6  A    between atoms: C_16  and  N_17
REMARK    7  A    between atoms: C_22  and  N_23
REMARK                            x       y       z     vdW  Elec       q    Type
REMARK                         _______ _______ _______ _____ _____    ______ ____
ROOT
ATOM      1  C   UNL     1       1.494   4.682  20.807  0.00  0.00    +0.000 C 
ATOM      2  C   UNL     1       2.193   5.628  19.829  0.00  0.00    +0.000 C 
ENDROOT
BRANCH   2   3
ATOM      3  C   UNL     1       1.784   7.071  20.077  0.00  0.00    +0.000 A 
ATOM      4  C   UNL     1       1.296   7.459  21.328  0.00  0.00    +0.000 A 
ATOM      5  C   UNL     1       0.889   8.778  21.550  0.00  0.00    +0.000 A 
ATOM      6  F   UNL     1       0.388   9.064  22.762  0.00  0.00    +0.000 F 
ATOM      7  C   UNL     1       0.937   9.761  20.546  0.00  0.00    +0.000 A 
ATOM      8  C   UNL     1       1.433   9.357  19.298  0.00  0.00    +0.000 A 
ATOM      9  C   UNL     1       1.858   8.047  19.077  0.00  0.00    +0.000 A 
ATOM     10  F   UNL     1       2.347   7.734  17.870  0.00  0.00    +0.000 F 
BRANCH   7  11
ATOM     11  N   UNL     1       0.526  11.096  20.698  0.00  0.00    +0.000 N 
ATOM     12  C   UNL     1      -0.927  11.410  20.701  0.00  0.00    +0.000 C 
ATOM     13  C   UNL     1      -1.366  12.200  19.430  0.00  0.00    +0.000 C 
ATOM     14  C   UNL     1      -1.104  13.712  19.569  0.00  0.00    +0.000 C 
ATOM     15  C   UNL     1       0.164  13.949  18.752  0.00  0.00    +0.000 C 
ATOM     16  C   UNL     1       0.744  12.546  18.621  0.00  0.00    +0.000 C 
ATOM     17  C   UNL     1       1.380  12.079  19.976  0.00  0.00    +0.000 C 
ATOM     18  N   UNL     1      -0.513  11.839  18.274  0.00  0.00    +0.000 NA
ATOM     19  H   UNL     1      -0.343  10.832  18.312  0.00  0.00    +0.000 HD
ENDBRANCH   7  11
ENDBRANCH   2   3
BRANCH   2  20
ATOM     20  C   UNL     1       3.725   5.441  19.839  0.00  0.00    +0.000 C 
BRANCH  20  21
ATOM     21  N   UNL     1       4.235   5.223  18.499  0.00  0.00    +0.000 N 
ATOM     22  C   UNL     1       5.554   4.949  18.213  0.00  0.00    +0.000 C 
ATOM     23  O   UNL     1       6.404   4.852  19.097  0.00  0.00    +0.000 OA
ATOM     24  H   UNL     1       3.592   5.254  17.717  0.00  0.00    +0.000 HD
BRANCH  22  25
ATOM     25  C   UNL     1       5.845   4.778  16.789  0.00  0.00    +0.000 A 
ATOM     26  S   UNL     1       4.996   3.596  15.870  0.00  0.00    +0.000 S 
ATOM     27  C   UNL     1       5.858   3.959  14.461  0.00  0.00    +0.000 A 
ATOM     28  N   UNL     1       5.610   3.272  13.325  0.00  0.00    +0.000 NA
ATOM     29  C   UNL     1       6.374   3.652  12.285  0.00  0.00    +0.000 A 
ATOM     30  C   UNL     1       7.329   4.649  12.323  0.00  0.00    +0.000 A 
ATOM     31  F   UNL     1       8.039   4.952  11.232  0.00  0.00    +0.000 F 
ATOM     32  C   UNL     1       7.553   5.341  13.510  0.00  0.00    +0.000 A 
ATOM     33  C   UNL     1       6.785   4.983  14.639  0.00  0.00    +0.000 A 
ATOM     34  C   UNL     1       6.750   5.459  15.996  0.00  0.00    +0.000 A 
BRANCH  34  35
ATOM     35  N   UNL     1       7.534   6.466  16.446  0.00  0.00    +0.000 N 
ATOM     36  H   UNL     1       8.536   6.512  16.303  0.00  0.00    +0.000 HD
ATOM     37  H   UNL     1       7.118   7.346  16.763  0.00  0.00    +0.000 HD
ENDBRANCH  34  35
ENDBRANCH  22  25
ENDBRANCH  20  21
ENDBRANCH   2  20
TORSDOF 6
ENDMDL
MODEL 4
REMARK VINA RESULT:      -8.4      4.938     11.580
REMARK  Name = 
REMARK  7 active torsions:
REMARK  status: ('A' for Active; 'I' for Inactive)
REMARK    1  A    between atoms: C_1  and  C_2
REMARK    2  A    between atoms: C_2  and  C_3
REMARK    3  A    between atoms: C_2  and  C_18
REMARK    4  A    between atoms: C_3  and  N_4
REMARK    5  A    between atoms: C_5  and  C_7
REMARK    6  A    between atoms: C_16  and  N_17
REMARK    7  A    between atoms: C_22  and  N_23
REMARK                            x       y       z     vdW  Elec       q    Type
REMARK                         _______ _______ _______ _____ _____    ______ ____
ROOT
ATOM      1  C   UNL     1       0.635  10.764  21.128  0.00  0.00    +0.000 C 
ATOM      2  C   UNL     1       0.805  10.401  19.652  0.00  0.00    +0.000 C 
ENDROOT
BRANCH   2   3
ATOM      3  C   UNL     1       1.390   9.007  19.495  0.00  0.00    +0.000 A 
ATOM      4  C   UNL     1       1.324   8.093  20.550  0.00  0.00    +0.000 A 
ATOM      5  C   UNL     1       1.890   6.821  20.421  0.00  0.00    +0.000 A 
ATOM      6  F   UNL     1       1.829   6.016  21.493  0.00  0.00    +0.000 F 
ATOM      7  C   UNL     1       2.552   6.405  19.251  0.00  0.00    +0.000 A 
ATOM      8  C   UNL     1       2.606   7.332  18.200  0.00  0.00    +0.000 A 
ATOM      9  C   UNL     1       2.026   8.596  18.318  0.00  0.00    +0.000 A 
ATOM     10  F   UNL     1       2.089   9.423  17.266  0.00  0.00    +0.000 F 
BRANCH   7  11
ATOM     11  N   UNL     1       3.157   5.152  19.065  0.00  0.00    +0.000 N 
ATOM     12  C   UNL     1       3.540   4.730  17.693  0.00  0.00    +0.000 C 
ATOM     13  C   UNL     1       2.662   3.553  17.166  0.00  0.00    +0.000 C 
ATOM     14  C   UNL     1       3.170   2.185  17.660  0.00  0.00    +0.000 C 
ATOM     15  C   UNL     1       2.217   1.819  18.796  0.00  0.00    +0.000 C 
ATOM     16  C   UNL     1       1.578   3.159  19.140  0.00  0.00    +0.000 C 
ATOM     17  C   UNL     1       2.589   4.072  19.919  0.00  0.00    +0.000 C 
ATOM     18  N   UNL     1       1.303   3.615  17.756  0.00  0.00    +0.000 NA
ATOM     19  H   UNL     1       1.019   4.596  17.785  0.00  0.00    +0.000 HD
ENDBRANCH   7  11
ENDBRANCH   2   3
BRANCH   2  20
ATOM     20  C   UNL     1      -0.507  10.580  18.858  0.00  0.00    +0.000 C 
BRANCH  20  21
ATOM     21  N   UNL     1      -1.499  11.293  19.639  0.00  0.00    +0.000 N 
ATOM     22  C   UNL     1      -2.635  11.859  19.107  0.00  0.00    +0.000 C 
ATOM     23  O   UNL     1      -2.900  11.782  17.908  0.00  0.00    +0.000 OA
ATOM     24  H   UNL     1      -1.371  11.373  20.641  0.00  0.00    +0.000 HD
BRANCH  22  25
ATOM     25  C   UNL     1      -3.489  12.541  20.080  0.00  0.00    +0.000 A 
ATOM     26  S   UNL     1      -2.916  12.831  21.678  0.00  0.00    +0.000 S 
ATOM     27  C   UNL     1      -4.370  13.553  22.152  0.00  0.00    +0.000 A 
ATOM     28  N   UNL     1      -4.521  13.996  23.419  0.00  0.00    +0.000 NA
ATOM     29  C   UNL     1      -5.729  14.535  23.665  0.00  0.00    +0.000 A 
ATOM     30  C   UNL     1      -6.748  14.654  22.741  0.00  0.00    +0.000 A 
ATOM     31  F   UNL     1      -7.916  15.207  23.086  0.00  0.00    +0.000 F 
ATOM     32  C   UNL     1      -6.556  14.194  21.441  0.00  0.00    +0.000 A 
ATOM     33  C   UNL     1      -5.309  13.611  21.124  0.00  0.00    +0.000 A 
ATOM     34  C   UNL     1      -4.771  13.034  19.922  0.00  0.00    +0.000 A 
BRANCH  34  35
ATOM     35  N   UNL     1      -5.460  12.974  18.758  0.00  0.00    +0.000 N 
ATOM     36  H   UNL     1      -6.461  12.831  18.700  0.00  0.00    +0.000 HD
ATOM     37  H   UNL     1      -5.032  13.293  17.884  0.00  0.00    +0.000 HD
ENDBRANCH  34  35
ENDBRANCH  22  25
ENDBRANCH  20  21
ENDBRANCH   2  20
TORSDOF 6
ENDMDL
MODEL 5
REMARK VINA RESULT:      -8.4      4.557     11.243
REMARK  Name = 
REMARK  7 active torsions:
REMARK  status: ('A' for Active; 'I' for Inactive)
REMARK    1  A    between atoms: C_1  and  C_2
REMARK    2  A    between atoms: C_2  and  C_3
REMARK    3  A    between atoms: C_2  and  C_18
REMARK    4  A    between atoms: C_3  and  N_4
REMARK    5  A    between atoms: C_5  and  C_7
REMARK    6  A    between atoms: C_16  and  N_17
REMARK    7  A    between atoms: C_22  and  N_23
REMARK                            x       y       z     vdW  Elec       q    Type
REMARK                         _______ _______ _______ _____ _____    ______ ____
ROOT
ATOM      1  C   UNL     1       1.330  11.723  19.954  0.00  0.00    +0.000 C 
ATOM      2  C   UNL     1       1.078  10.802  18.760  0.00  0.00    +0.000 C 
ENDROOT
BRANCH   2   3
ATOM      3  C   UNL     1       1.458   9.367  19.086  0.00  0.00    +0.000 A 
ATOM      4  C   UNL     1       1.169   8.831  20.344  0.00  0.00    +0.000 A 
ATOM      5  C   UNL     1       1.546   7.522  20.659  0.00  0.00    +0.000 A 
ATOM      6  F   UNL     1       1.276   7.093  21.902  0.00  0.00    +0.000 F 
ATOM      7  C   UNL     1       2.232   6.696  19.751  0.00  0.00    +0.000 A 
ATOM      8  C   UNL     1       2.511   7.247  18.491  0.00  0.00    +0.000 A 
ATOM      9  C   UNL     1       2.120   8.546  18.167  0.00  0.00    +0.000 A 
ATOM     10  F   UNL     1       2.393   9.001  16.937  0.00  0.00    +0.000 F 
BRANCH   7  11
ATOM     11  N   UNL     1       2.655   5.382  20.011  0.00  0.00    +0.000 N 
ATOM     12  C   UNL     1       3.786   4.817  19.229  0.00  0.00    +0.000 C 
ATOM     13  C   UNL     1       3.330   3.685  18.258  0.00  0.00    +0.000 C 
ATOM     14  C   UNL     1       3.224   2.322  18.968  0.00  0.00    +0.000 C 
ATOM     15  C   UNL     1       1.725   2.136  19.198  0.00  0.00    +0.000 C 
ATOM     16  C   UNL     1       1.184   3.551  19.035  0.00  0.00    +0.000 C 
ATOM     17  C   UNL     1       1.543   4.430  20.284  0.00  0.00    +0.000 C 
ATOM     18  N   UNL     1       1.936   3.916  17.810  0.00  0.00    +0.000 NA
ATOM     19  H   UNL     1       1.823   4.917  17.643  0.00  0.00    +0.000 HD
ENDBRANCH   7  11
ENDBRANCH   2   3
BRANCH   2  20
ATOM     20  C   UNL     1      -0.368  10.921  18.233  0.00  0.00    +0.000 C 
BRANCH  20  21
ATOM     21  N   UNL     1      -1.294  11.222  19.307  0.00  0.00    +0.000 N 
ATOM     22  C   UNL     1      -1.756  12.487  19.593  0.00  0.00    +0.000 C 
ATOM     23  O   UNL     1      -1.420  13.467  18.930  0.00  0.00    +0.000 OA
ATOM     24  H   UNL     1      -1.644  10.464  19.881  0.00  0.00    +0.000 HD
BRANCH  22  25
ATOM     25  C   UNL     1      -2.674  12.557  20.730  0.00  0.00    +0.000 A 
ATOM     26  S   UNL     1      -2.127  12.140  22.309  0.00  0.00    +0.000 S 
ATOM     27  C   UNL     1      -3.650  12.414  22.993  0.00  0.00    +0.000 A 
ATOM     28  N   UNL     1      -3.840  12.210  24.314  0.00  0.00    +0.000 NA
ATOM     29  C   UNL     1      -5.099  12.451  24.724  0.00  0.00    +0.000 A 
ATOM     30  C   UNL     1      -6.131  12.876  23.911  0.00  0.00    +0.000 A 
ATOM     31  F   UNL     1      -7.351  13.088  24.416  0.00  0.00    +0.000 F 
ATOM     32  C   UNL     1      -5.897  13.083  22.554  0.00  0.00    +0.000 A 
ATOM     33  C   UNL     1      -4.595  12.841  22.064  0.00  0.00    +0.000 A 
ATOM     34  C   UNL     1      -4.004  12.936  20.756  0.00  0.00    +0.000 A 
BRANCH  34  35
ATOM     35  N   UNL     1      -4.689  13.345  19.663  0.00  0.00    +0.000 N 
ATOM     36  H   UNL     1      -5.482  13.975  19.695  0.00  0.00    +0.000 HD
ATOM     37  H   UNL     1      -4.298  13.214  18.726  0.00  0.00    +0.000 HD
ENDBRANCH  34  35
ENDBRANCH  22  25
ENDBRANCH  20  21
ENDBRANCH   2  20
TORSDOF 6
ENDMDL
MODEL 6
REMARK VINA RESULT:      -8.4      4.570     11.395
REMARK  Name = 
REMARK  7 active torsions:
REMARK  status: ('A' for Active; 'I' for Inactive)
REMARK    1  A    between atoms: C_1  and  C_2
REMARK    2  A    between atoms: C_2  and  C_3
REMARK    3  A    between atoms: C_2  and  C_18
REMARK    4  A    between atoms: C_3  and  N_4
REMARK    5  A    between atoms: C_5  and  C_7
REMARK    6  A    between atoms: C_16  and  N_17
REMARK    7  A    between atoms: C_22  and  N_23
REMARK                            x       y       z     vdW  Elec       q    Type
REMARK                         _______ _______ _______ _____ _____    ______ ____
ROOT
ATOM      1  C   UNL     1       1.670  11.007  18.011  0.00  0.00    +0.000 C 
ATOM      2  C   UNL     1       1.040  10.310  19.217  0.00  0.00    +0.000 C 
ENDROOT
BRANCH   2   3
ATOM      3  C   UNL     1       1.552   8.886  19.355  0.00  0.00    +0.000 A 
ATOM      4  C   UNL     1       2.327   8.315  18.341  0.00  0.00    +0.000 A 
ATOM      5  C   UNL     1       2.772   6.995  18.450  0.00  0.00    +0.000 A 
ATOM      6  F   UNL     1       3.471   6.501  17.415  0.00  0.00    +0.000 F 
ATOM      7  C   UNL     1       2.463   6.183  19.556  0.00  0.00    +0.000 A 
ATOM      8  C   UNL     1       1.689   6.771  20.567  0.00  0.00    +0.000 A 
ATOM      9  C   UNL     1       1.258   8.095  20.471  0.00  0.00    +0.000 A 
ATOM     10  F   UNL     1       0.545   8.604  21.485  0.00  0.00    +0.000 F 
BRANCH   7  11
ATOM     11  N   UNL     1       2.862   4.846  19.717  0.00  0.00    +0.000 N 
ATOM     12  C   UNL     1       3.905   4.289  18.817  0.00  0.00    +0.000 C 
ATOM     13  C   UNL     1       3.334   3.221  17.834  0.00  0.00    +0.000 C 
ATOM     14  C   UNL     1       3.241   1.827  18.484  0.00  0.00    +0.000 C 
ATOM     15  C   UNL     1       1.761   1.674  18.830  0.00  0.00    +0.000 C 
ATOM     16  C   UNL     1       1.256   3.110  18.781  0.00  0.00    +0.000 C 
ATOM     17  C   UNL     1       1.745   3.914  20.036  0.00  0.00    +0.000 C 
ATOM     18  N   UNL     1       1.917   3.515  17.516  0.00  0.00    +0.000 NA
ATOM     19  H   UNL     1       1.823   4.526  17.407  0.00  0.00    +0.000 HD
ENDBRANCH   7  11
ENDBRANCH   2   3
BRANCH   2  20
ATOM     20  C   UNL     1       1.218  11.127  20.515  0.00  0.00    +0.000 C 
BRANCH  20  21
ATOM     21  N   UNL     1      -0.061  11.406  21.138  0.00  0.00    +0.000 N 
ATOM     22  C   UNL     1      -0.907  12.417  20.739  0.00  0.00    +0.000 C 
ATOM     23  O   UNL     1      -0.636  13.156  19.793  0.00  0.00    +0.000 OA
ATOM     24  H   UNL     1      -0.372  10.822  21.905  0.00  0.00    +0.000 HD
BRANCH  22  25
ATOM     25  C   UNL     1      -2.139  12.523  21.521  0.00  0.00    +0.000 A 
ATOM     26  S   UNL     1      -2.161  12.030  23.170  0.00  0.00    +0.000 S 
ATOM     27  C   UNL     1      -3.805  12.392  23.338  0.00  0.00    +0.000 A 
ATOM     28  N   UNL     1      -4.426  12.170  24.516  0.00  0.00    +0.000 NA
ATOM     29  C   UNL     1      -5.734  12.488  24.507  0.00  0.00    +0.000 A 
ATOM     30  C   UNL     1      -6.418  13.005  23.425  0.00  0.00    +0.000 A 
ATOM     31  F   UNL     1      -7.721  13.289  23.518  0.00  0.00    +0.000 F 
ATOM     32  C   UNL     1      -5.743  13.229  22.228  0.00  0.00    +0.000 A 
ATOM     33  C   UNL     1      -4.370  12.907  22.173  0.00  0.00    +0.000 A 
ATOM     34  C   UNL     1      -3.381  12.993  21.133  0.00  0.00    +0.000 A 
BRANCH  34  35
ATOM     35  N   UNL     1      -3.647  13.477  19.897  0.00  0.00    +0.000 N 
ATOM     36  H   UNL     1      -4.566  13.776  19.592  0.00  0.00    +0.000 HD
ATOM     37  H   UNL     1      -2.886  13.773  19.280  0.00  0.00    +0.000 HD
ENDBRANCH  34  35
ENDBRANCH  22  25
ENDBRANCH  20  21
ENDBRANCH   2  20
TORSDOF 6
ENDMDL
MODEL 7
REMARK VINA RESULT:      -8.3      4.995     11.890
REMARK  Name = 
REMARK  7 active torsions:
REMARK  status: ('A' for Active; 'I' for Inactive)
REMARK    1  A    between atoms: C_1  and  C_2
REMARK    2  A    between atoms: C_2  and  C_3
REMARK    3  A    between atoms: C_2  and  C_18
REMARK    4  A    between atoms: C_3  and  N_4
REMARK    5  A    between atoms: C_5  and  C_7
REMARK    6  A    between atoms: C_16  and  N_17
REMARK    7  A    between atoms: C_22  and  N_23
REMARK                            x       y       z     vdW  Elec       q    Type
REMARK                         _______ _______ _______ _____ _____    ______ ____
ROOT
ATOM      1  C   UNL     1      -0.500  11.071  18.706  0.00  0.00    +0.000 C 
ATOM      2  C   UNL     1      -0.026  10.504  20.044  0.00  0.00    +0.000 C 
ENDROOT
BRANCH   2   3
ATOM      3  C   UNL     1       0.868   9.292  19.840  0.00  0.00    +0.000 A 
ATOM      4  C   UNL     1       1.551   9.119  18.632  0.00  0.00    +0.000 A 
ATOM      5  C   UNL     1       2.349   7.988  18.428  0.00  0.00    +0.000 A 
ATOM      6  F   UNL     1       2.936   7.868  17.227  0.00  0.00    +0.000 F 
ATOM      7  C   UNL     1       2.495   6.982  19.400  0.00  0.00    +0.000 A 
ATOM      8  C   UNL     1       1.806   7.174  20.607  0.00  0.00    +0.000 A 
ATOM      9  C   UNL     1       1.025   8.309  20.822  0.00  0.00    +0.000 A 
ATOM     10  F   UNL     1       0.416   8.444  22.008  0.00  0.00    +0.000 F 
BRANCH   7  11
ATOM     11  N   UNL     1       3.264   5.816  19.250  0.00  0.00    +0.000 N 
ATOM     12  C   UNL     1       3.716   5.417  17.892  0.00  0.00    +0.000 C 
ATOM     13  C   UNL     1       3.008   4.122  17.387  0.00  0.00    +0.000 C 
ATOM     14  C   UNL     1       3.688   2.846  17.919  0.00  0.00    +0.000 C 
ATOM     15  C   UNL     1       2.778   2.383  19.055  0.00  0.00    +0.000 C 
ATOM     16  C   UNL     1       1.963   3.634  19.361  0.00  0.00    +0.000 C 
ATOM     17  C   UNL     1       2.834   4.691  20.126  0.00  0.00    +0.000 C 
ATOM     18  N   UNL     1       1.647   4.017  17.964  0.00  0.00    +0.000 NA
ATOM     19  H   UNL     1       1.234   4.951  17.966  0.00  0.00    +0.000 HD
ENDBRANCH   7  11
ENDBRANCH   2   3
BRANCH   2  20
ATOM     20  C   UNL     1       0.639  11.583  20.926  0.00  0.00    +0.000 C 
BRANCH  20  21
ATOM     21  N   UNL     1      -0.351  12.463  21.514  0.00  0.00    +0.000 N 
ATOM     22  C   UNL     1      -1.028  12.189  22.681  0.00  0.00    +0.000 C 
ATOM     23  O   UNL     1      -0.821  11.162  23.327  0.00  0.00    +0.000 OA
ATOM     24  H   UNL     1      -0.556  13.345  21.060  0.00  0.00    +0.000 HD
BRANCH  22  25
ATOM     25  C   UNL     1      -1.992  13.214  23.081  0.00  0.00    +0.000 A 
ATOM     26  S   UNL     1      -1.485  14.546  24.048  0.00  0.00    +0.000 S 
ATOM     27  C   UNL     1      -3.045  15.196  24.109  0.00  0.00    +0.000 A 
ATOM     28  N   UNL     1      -3.276  16.329  24.807  0.00  0.00    +0.000 NA
ATOM     29  C   UNL     1      -4.561  16.728  24.785  0.00  0.00    +0.000 A 
ATOM     30  C   UNL     1      -5.582  16.079  24.118  0.00  0.00    +0.000 A 
ATOM     31  F   UNL     1      -6.829  16.557  24.158  0.00  0.00    +0.000 F 
ATOM     32  C   UNL     1      -5.307  14.917  23.402  0.00  0.00    +0.000 A 
ATOM     33  C   UNL     1      -3.976  14.445  23.394  0.00  0.00    +0.000 A 
ATOM     34  C   UNL     1      -3.341  13.306  22.788  0.00  0.00    +0.000 A 
BRANCH  34  35
ATOM     35  N   UNL     1      -4.004  12.413  22.018  0.00  0.00    +0.000 N 
ATOM     36  H   UNL     1      -4.983  12.495  21.771  0.00  0.00    +0.000 HD
ATOM     37  H   UNL     1      -3.490  11.724  21.462  0.00  0.00    +0.000 HD
ENDBRANCH  34  35
ENDBRANCH  22  25
ENDBRANCH  20  21
ENDBRANCH   2  20
TORSDOF 6
ENDMDL
MODEL 8
REMARK VINA RESULT:      -8.3      4.565     11.107
REMARK  Name = 
REMARK  7 active torsions:
REMARK  status: ('A' for Active; 'I' for Inactive)
REMARK    1  A    between atoms: C_1  and  C_2
REMARK    2  A    between atoms: C_2  and  C_3
REMARK    3  A    between atoms: C_2  and  C_18
REMARK    4  A    between atoms: C_3  and  N_4
REMARK    5  A    between atoms: C_5  and  C_7
REMARK    6  A    between atoms: C_16  and  N_17
REMARK    7  A    between atoms: C_22  and  N_23
REMARK                            x       y       z     vdW  Elec       q    Type
REMARK                         _______ _______ _______ _____ _____    ______ ____
ROOT
ATOM      1  C   UNL     1       0.008   9.231  20.888  0.00  0.00    +0.000 C 
ATOM      2  C   UNL     1       0.812   9.591  19.638  0.00  0.00    +0.000 C 
ENDROOT
BRANCH   2   3
ATOM      3  C   UNL     1       1.742   8.456  19.240  0.00  0.00    +0.000 A 
ATOM      4  C   UNL     1       1.870   7.332  20.060  0.00  0.00    +0.000 A 
ATOM      5  C   UNL     1       2.749   6.301  19.713  0.00  0.00    +0.000 A 
ATOM      6  F   UNL     1       2.854   5.275  20.574  0.00  0.00    +0.000 F 
ATOM      7  C   UNL     1       3.542   6.344  18.552  0.00  0.00    +0.000 A 
ATOM      8  C   UNL     1       3.398   7.477  17.738  0.00  0.00    +0.000 A 
ATOM      9  C   UNL     1       2.509   8.499  18.071  0.00  0.00    +0.000 A 
ATOM     10  F   UNL     1       2.399   9.540  17.235  0.00  0.00    +0.000 F 
BRANCH   7  11
ATOM     11  N   UNL     1       4.456   5.353  18.158  0.00  0.00    +0.000 N 
ATOM     12  C   UNL     1       5.787   5.292  18.817  0.00  0.00    +0.000 C 
ATOM     13  C   UNL     1       6.946   5.693  17.854  0.00  0.00    +0.000 C 
ATOM     14  C   UNL     1       7.400   4.515  16.972  0.00  0.00    +0.000 C 
ATOM     15  C   UNL     1       6.754   4.791  15.616  0.00  0.00    +0.000 C 
ATOM     16  C   UNL     1       5.663   5.796  15.964  0.00  0.00    +0.000 C 
ATOM     17  C   UNL     1       4.468   5.088  16.693  0.00  0.00    +0.000 C 
ATOM     18  N   UNL     1       6.469   6.673  16.848  0.00  0.00    +0.000 NA
ATOM     19  H   UNL     1       5.842   7.326  17.321  0.00  0.00    +0.000 HD
ENDBRANCH   7  11
ENDBRANCH   2   3
BRANCH   2  20
ATOM     20  C   UNL     1      -0.098  10.040  18.475  0.00  0.00    +0.000 C 
BRANCH  20  21
ATOM     21  N   UNL     1      -1.375  10.522  18.964  0.00  0.00    +0.000 N 
ATOM     22  C   UNL     1      -2.015  11.638  18.473  0.00  0.00    +0.000 C 
ATOM     23  O   UNL     1      -1.545  12.305  17.553  0.00  0.00    +0.000 OA
ATOM     24  H   UNL     1      -1.844  10.010  19.701  0.00  0.00    +0.000 HD
BRANCH  22  25
ATOM     25  C   UNL     1      -3.288  11.947  19.127  0.00  0.00    +0.000 A 
ATOM     26  S   UNL     1      -4.774  11.551  18.352  0.00  0.00    +0.000 S 
ATOM     27  C   UNL     1      -5.694  12.206  19.612  0.00  0.00    +0.000 A 
ATOM     28  N   UNL     1      -7.042  12.196  19.536  0.00  0.00    +0.000 NA
ATOM     29  C   UNL     1      -7.649  12.760  20.597  0.00  0.00    +0.000 A 
ATOM     30  C   UNL     1      -6.998  13.304  21.687  0.00  0.00    +0.000 A 
ATOM     31  F   UNL     1      -7.694  13.843  22.693  0.00  0.00    +0.000 F 
ATOM     32  C   UNL     1      -5.607  13.290  21.735  0.00  0.00    +0.000 A 
ATOM     33  C   UNL     1      -4.914  12.717  20.647  0.00  0.00    +0.000 A 
ATOM     34  C   UNL     1      -3.517  12.540  20.354  0.00  0.00    +0.000 A 
BRANCH  34  35
ATOM     35  N   UNL     1      -2.530  12.927  21.196  0.00  0.00    +0.000 N 
ATOM     36  H   UNL     1      -2.243  12.399  22.012  0.00  0.00    +0.000 HD
ATOM     37  H   UNL     1      -1.874  13.664  20.924  0.00  0.00    +0.000 HD
ENDBRANCH  34  35
ENDBRANCH  22  25
ENDBRANCH  20  21
ENDBRANCH   2  20
TORSDOF 6
ENDMDL
MODEL 9
REMARK VINA RESULT:      -8.3      5.079     12.028
REMARK  Name = 
REMARK  7 active torsions:
REMARK  status: ('A' for Active; 'I' for Inactive)
REMARK    1  A    between atoms: C_1  and  C_2
REMARK    2  A    between atoms: C_2  and  C_3
REMARK    3  A    between atoms: C_2  and  C_18
REMARK    4  A    between atoms: C_3  and  N_4
REMARK    5  A    between atoms: C_5  and  C_7
REMARK    6  A    between atoms: C_16  and  N_17
REMARK    7  A    between atoms: C_22  and  N_23
REMARK                            x       y       z     vdW  Elec       q    Type
REMARK                         _______ _______ _______ _____ _____    ______ ____
ROOT
ATOM      1  C   UNL     1      -0.133  11.466  18.483  0.00  0.00    +0.000 C 
ATOM      2  C   UNL     1       0.001  10.807  19.856  0.00  0.00    +0.000 C 
ENDROOT
BRANCH   2   3
ATOM      3  C   UNL     1       0.831   9.536  19.774  0.00  0.00    +0.000 A 
ATOM      4  C   UNL     1       1.554   9.242  18.615  0.00  0.00    +0.000 A 
ATOM      5  C   UNL     1       2.292   8.058  18.524  0.00  0.00    +0.000 A 
ATOM      6  F   UNL     1       2.923   7.822  17.362  0.00  0.00    +0.000 F 
ATOM      7  C   UNL     1       2.336   7.114  19.566  0.00  0.00    +0.000 A 
ATOM      8  C   UNL     1       1.608   7.427  20.724  0.00  0.00    +0.000 A 
ATOM      9  C   UNL     1       0.886   8.616  20.826  0.00  0.00    +0.000 A 
ATOM     10  F   UNL     1       0.236   8.866  21.970  0.00  0.00    +0.000 F 
BRANCH   7  11
ATOM     11  N   UNL     1       3.041   5.900  19.530  0.00  0.00    +0.000 N 
ATOM     12  C   UNL     1       3.844   5.564  18.326  0.00  0.00    +0.000 C 
ATOM     13  C   UNL     1       3.236   4.378  17.517  0.00  0.00    +0.000 C 
ATOM     14  C   UNL     1       3.649   3.011  18.095  0.00  0.00    +0.000 C 
ATOM     15  C   UNL     1       2.420   2.546  18.873  0.00  0.00    +0.000 C 
ATOM     16  C   UNL     1       1.631   3.838  19.053  0.00  0.00    +0.000 C 
ATOM     17  C   UNL     1       2.304   4.754  20.133  0.00  0.00    +0.000 C 
ATOM     18  N   UNL     1       1.761   4.350  17.667  0.00  0.00    +0.000 NA
ATOM     19  H   UNL     1       1.426   5.314  17.642  0.00  0.00    +0.000 HD
ENDBRANCH   7  11
ENDBRANCH   2   3
BRANCH   2  20
ATOM     20  C   UNL     1       0.537  11.791  20.919  0.00  0.00    +0.000 C 
BRANCH  20  21
ATOM     21  N   UNL     1      -0.540  12.562  21.508  0.00  0.00    +0.000 N 
ATOM     22  C   UNL     1      -1.123  12.268  22.721  0.00  0.00    +0.000 C 
ATOM     23  O   UNL     1      -0.750  11.319  23.408  0.00  0.00    +0.000 OA
ATOM     24  H   UNL     1      -0.884  13.380  21.019  0.00  0.00    +0.000 HD
BRANCH  22  25
ATOM     25  C   UNL     1      -2.202  13.176  23.114  0.00  0.00    +0.000 A 
ATOM     26  S   UNL     1      -3.830  12.821  22.682  0.00  0.00    +0.000 S 
ATOM     27  C   UNL     1      -4.411  14.239  23.397  0.00  0.00    +0.000 A 
ATOM     28  N   UNL     1      -5.730  14.527  23.347  0.00  0.00    +0.000 NA
ATOM     29  C   UNL     1      -6.053  15.689  23.943  0.00  0.00    +0.000 A 
ATOM     30  C   UNL     1      -5.160  16.537  24.567  0.00  0.00    +0.000 A 
ATOM     31  F   UNL     1      -5.583  17.673  25.130  0.00  0.00    +0.000 F 
ATOM     32  C   UNL     1      -3.809  16.205  24.606  0.00  0.00    +0.000 A 
ATOM     33  C   UNL     1      -3.407  14.999  23.992  0.00  0.00    +0.000 A 
ATOM     34  C   UNL     1      -2.131  14.355  23.832  0.00  0.00    +0.000 A 
BRANCH  34  35
ATOM     35  N   UNL     1      -0.979  14.863  24.329  0.00  0.00    +0.000 N 
ATOM     36  H   UNL     1      -0.926  15.439  25.161  0.00  0.00    +0.000 HD
ATOM     37  H   UNL     1      -0.074  14.504  24.012  0.00  0.00    +0.000 HD
ENDBRANCH  34  35
ENDBRANCH  22  25
ENDBRANCH  20  21
ENDBRANCH   2  20
TORSDOF 6
ENDMDL
