MODEL 1
REMARK VINA RESULT:      -7.9      0.000      0.000
REMARK  Name = 
REMARK  3 active torsions:
REMARK  status: ('A' for Active; 'I' for Inactive)
REMARK    1  A    between atoms: C_2  and  C_3
REMARK    2  A    between atoms: C_2  and  N_4
REMARK    3  A    between atoms: C_8  and  C_10
REMARK                            x       y       z     vdW  Elec       q    Type
REMARK                         _______ _______ _______ _____ _____    ______ ____
ROOT
ATOM      1  N   UNL     1       6.696   5.267  17.705  0.00  0.00    +0.000 N 
ATOM      2  C   UNL     1       5.700   4.516  18.435  0.00  0.00    +0.000 A 
ATOM      3  O   UNL     1       5.579   4.434  19.649  0.00  0.00    +0.000 OA
ATOM      4  N   UNL     1       4.839   3.895  17.461  0.00  0.00    +0.000 N 
ATOM      5  C   UNL     1       3.687   3.134  17.681  0.00  0.00    +0.000 C 
ATOM      6  O   UNL     1       3.273   2.250  16.929  0.00  0.00    +0.000 OA
ATOM      7  C   UNL     1       5.427   4.094  16.196  0.00  0.00    +0.000 A 
ATOM      8  C   UNL     1       5.053   3.583  14.962  0.00  0.00    +0.000 A 
ATOM      9  C   UNL     1       5.830   3.913  13.850  0.00  0.00    +0.000 A 
ATOM     10  C   UNL     1       6.948   4.747  13.986  0.00  0.00    +0.000 A 
ATOM     11  C   UNL     1       7.304   5.266  15.235  0.00  0.00    +0.000 A 
ATOM     12  C   UNL     1       6.528   4.942  16.335  0.00  0.00    +0.000 A 
ENDROOT
BRANCH   5  13
ATOM     13  C   UNL     1       2.908   3.394  18.932  0.00  0.00    +0.000 A 
ATOM     14  C   UNL     1       2.128   4.548  19.090  0.00  0.00    +0.000 A 
ATOM     15  C   UNL     1       1.486   4.807  20.301  0.00  0.00    +0.000 A 
ATOM     16  C   UNL     1       1.561   3.880  21.338  0.00  0.00    +0.000 A 
ATOM     17  C   UNL     1       2.258   2.686  21.157  0.00  0.00    +0.000 A 
ATOM     18  C   UNL     1       2.927   2.439  19.956  0.00  0.00    +0.000 A 
ENDBRANCH   5  13
BRANCH   1  20
ATOM     19  C   UNL     1       8.270   5.876  19.418  0.00  0.00    +0.000 C 
ATOM     20  C   UNL     1       7.579   6.169  18.302  0.00  0.00    +0.000 C 
ATOM     21  C   UNL     1       7.685   7.571  17.758  0.00  0.00    +0.000 C 
ENDBRANCH   1  20
TORSDOF 2
ENDMDL
MODEL 2
REMARK VINA RESULT:      -7.8      0.236      1.074
REMARK  Name = 
REMARK  3 active torsions:
REMARK  status: ('A' for Active; 'I' for Inactive)
REMARK    1  A    between atoms: C_2  and  C_3
REMARK    2  A    between atoms: C_2  and  N_4
REMARK    3  A    between atoms: C_8  and  C_10
REMARK                            x       y       z     vdW  Elec       q    Type
REMARK                         _______ _______ _______ _____ _____    ______ ____
ROOT
ATOM      1  N   UNL     1       6.751   5.420  17.721  0.00  0.00    +0.000 N 
ATOM      2  C   UNL     1       5.826   4.635  18.506  0.00  0.00    +0.000 A 
ATOM      3  O   UNL     1       5.741   4.595  19.726  0.00  0.00    +0.000 OA
ATOM      4  N   UNL     1       4.985   3.920  17.581  0.00  0.00    +0.000 N 
ATOM      5  C   UNL     1       3.892   3.093  17.862  0.00  0.00    +0.000 C 
ATOM      6  O   UNL     1       3.520   2.154  17.156  0.00  0.00    +0.000 OA
ATOM      7  C   UNL     1       5.527   4.105  16.294  0.00  0.00    +0.000 A 
ATOM      8  C   UNL     1       5.158   3.521  15.091  0.00  0.00    +0.000 A 
ATOM      9  C   UNL     1       5.883   3.857  13.946  0.00  0.00    +0.000 A 
ATOM     10  C   UNL     1       6.945   4.768  14.019  0.00  0.00    +0.000 A 
ATOM     11  C   UNL     1       7.296   5.359  15.237  0.00  0.00    +0.000 A 
ATOM     12  C   UNL     1       6.571   5.030  16.369  0.00  0.00    +0.000 A 
ENDROOT
BRANCH   5  13
ATOM     13  C   UNL     1       3.129   3.351  19.122  0.00  0.00    +0.000 A 
ATOM     14  C   UNL     1       3.282   2.541  20.258  0.00  0.00    +0.000 A 
ATOM     15  C   UNL     1       2.490   2.750  21.386  0.00  0.00    +0.000 A 
ATOM     16  C   UNL     1       1.589   3.813  21.416  0.00  0.00    +0.000 A 
ATOM     17  C   UNL     1       1.498   4.679  20.327  0.00  0.00    +0.000 A 
ATOM     18  C   UNL     1       2.267   4.453  19.183  0.00  0.00    +0.000 A 
ENDBRANCH   5  13
BRANCH   1  20
ATOM     19  C   UNL     1       8.297   6.213  19.383  0.00  0.00    +0.000 C 
ATOM     20  C   UNL     1       7.586   6.402  18.258  0.00  0.00    +0.000 C 
ATOM     21  C   UNL     1       7.612   7.774  17.634  0.00  0.00    +0.000 C 
ENDBRANCH   1  20
TORSDOF 2
ENDMDL
MODEL 3
REMARK VINA RESULT:      -7.2      2.199      6.127
REMARK  Name = 
REMARK  3 active torsions:
REMARK  status: ('A' for Active; 'I' for Inactive)
REMARK    1  A    between atoms: C_2  and  C_3
REMARK    2  A    between atoms: C_2  and  N_4
REMARK    3  A    between atoms: C_8  and  C_10
REMARK                            x       y       z     vdW  Elec       q    Type
REMARK                         _______ _______ _______ _____ _____    ______ ____
ROOT
ATOM      1  N   UNL     1       4.025   3.755  18.314  0.00  0.00    +0.000 N 
ATOM      2  C   UNL     1       4.925   3.967  17.203  0.00  0.00    +0.000 A 
ATOM      3  O   UNL     1       5.722   3.166  16.734  0.00  0.00    +0.000 OA
ATOM      4  N   UNL     1       4.692   5.303  16.717  0.00  0.00    +0.000 N 
ATOM      5  C   UNL     1       5.265   5.936  15.610  0.00  0.00    +0.000 C 
ATOM      6  O   UNL     1       5.432   7.153  15.503  0.00  0.00    +0.000 OA
ATOM      7  C   UNL     1       3.836   5.939  17.637  0.00  0.00    +0.000 A 
ATOM      8  C   UNL     1       3.421   7.262  17.684  0.00  0.00    +0.000 A 
ATOM      9  C   UNL     1       2.582   7.653  18.730  0.00  0.00    +0.000 A 
ATOM     10  C   UNL     1       2.168   6.724  19.693  0.00  0.00    +0.000 A 
ATOM     11  C   UNL     1       2.583   5.390  19.624  0.00  0.00    +0.000 A 
ATOM     12  C   UNL     1       3.409   5.004  18.583  0.00  0.00    +0.000 A 
ENDROOT
BRANCH   5  13
ATOM     13  C   UNL     1       5.732   5.076  14.478  0.00  0.00    +0.000 A 
ATOM     14  C   UNL     1       7.075   5.048  14.076  0.00  0.00    +0.000 A 
ATOM     15  C   UNL     1       7.464   4.307  12.961  0.00  0.00    +0.000 A 
ATOM     16  C   UNL     1       6.527   3.532  12.281  0.00  0.00    +0.000 A 
ATOM     17  C   UNL     1       5.207   3.480  12.730  0.00  0.00    +0.000 A 
ATOM     18  C   UNL     1       4.809   4.246  13.828  0.00  0.00    +0.000 A 
ENDBRANCH   5  13
BRANCH   1  20
ATOM     19  C   UNL     1       2.888   1.642  18.466  0.00  0.00    +0.000 C 
ATOM     20  C   UNL     1       3.811   2.512  18.912  0.00  0.00    +0.000 C 
ATOM     21  C   UNL     1       4.547   2.165  20.181  0.00  0.00    +0.000 C 
ENDBRANCH   1  20
TORSDOF 2
ENDMDL
MODEL 4
REMARK VINA RESULT:      -7.0      2.213      6.142
REMARK  Name = 
REMARK  3 active torsions:
REMARK  status: ('A' for Active; 'I' for Inactive)
REMARK    1  A    between atoms: C_2  and  C_3
REMARK    2  A    between atoms: C_2  and  N_4
REMARK    3  A    between atoms: C_8  and  C_10
REMARK                            x       y       z     vdW  Elec       q    Type
REMARK                         _______ _______ _______ _____ _____    ______ ____
ROOT
ATOM      1  N   UNL     1       4.023   3.733  18.253  0.00  0.00    +0.000 N 
ATOM      2  C   UNL     1       4.924   3.967  17.148  0.00  0.00    +0.000 A 
ATOM      3  O   UNL     1       5.725   3.178  16.667  0.00  0.00    +0.000 OA
ATOM      4  N   UNL     1       4.685   5.309  16.683  0.00  0.00    +0.000 N 
ATOM      5  C   UNL     1       5.256   5.963  15.587  0.00  0.00    +0.000 C 
ATOM      6  O   UNL     1       5.417   7.182  15.500  0.00  0.00    +0.000 OA
ATOM      7  C   UNL     1       3.824   5.927  17.612  0.00  0.00    +0.000 A 
ATOM      8  C   UNL     1       3.403   7.246  17.680  0.00  0.00    +0.000 A 
ATOM      9  C   UNL     1       2.560   7.616  18.730  0.00  0.00    +0.000 A 
ATOM     10  C   UNL     1       2.149   6.669  19.677  0.00  0.00    +0.000 A 
ATOM     11  C   UNL     1       2.571   5.339  19.588  0.00  0.00    +0.000 A 
ATOM     12  C   UNL     1       3.401   4.974  18.541  0.00  0.00    +0.000 A 
ENDROOT
BRANCH   5  13
ATOM     13  C   UNL     1       5.729   5.124  14.442  0.00  0.00    +0.000 A 
ATOM     14  C   UNL     1       4.856   4.293  13.725  0.00  0.00    +0.000 A 
ATOM     15  C   UNL     1       5.342   3.453  12.724  0.00  0.00    +0.000 A 
ATOM     16  C   UNL     1       6.692   3.489  12.383  0.00  0.00    +0.000 A 
ATOM     17  C   UNL     1       7.551   4.380  13.027  0.00  0.00    +0.000 A 
ATOM     18  C   UNL     1       7.072   5.199  14.052  0.00  0.00    +0.000 A 
ENDBRANCH   5  13
BRANCH   1  20
ATOM     19  C   UNL     1       2.926   1.596  18.345  0.00  0.00    +0.000 C 
ATOM     20  C   UNL     1       3.814   2.479  18.831  0.00  0.00    +0.000 C 
ATOM     21  C   UNL     1       4.514   2.133  20.121  0.00  0.00    +0.000 C 
ENDBRANCH   1  20
TORSDOF 2
ENDMDL
MODEL 5
REMARK VINA RESULT:      -6.7      1.975      6.280
REMARK  Name = 
REMARK  3 active torsions:
REMARK  status: ('A' for Active; 'I' for Inactive)
REMARK    1  A    between atoms: C_2  and  C_3
REMARK    2  A    between atoms: C_2  and  N_4
REMARK    3  A    between atoms: C_8  and  C_10
REMARK                            x       y       z     vdW  Elec       q    Type
REMARK                         _______ _______ _______ _____ _____    ______ ____
ROOT
ATOM      1  N   UNL     1       2.890   4.182  19.672  0.00  0.00    +0.000 N 
ATOM      2  C   UNL     1       4.024   4.391  18.801  0.00  0.00    +0.000 A 
ATOM      3  O   UNL     1       4.857   3.562  18.460  0.00  0.00    +0.000 OA
ATOM      4  N   UNL     1       3.982   5.765  18.373  0.00  0.00    +0.000 N 
ATOM      5  C   UNL     1       4.822   6.418  17.464  0.00  0.00    +0.000 C 
ATOM      6  O   UNL     1       5.079   7.623  17.483  0.00  0.00    +0.000 OA
ATOM      7  C   UNL     1       2.982   6.409  19.129  0.00  0.00    +0.000 A 
ATOM      8  C   UNL     1       2.645   7.753  19.179  0.00  0.00    +0.000 A 
ATOM      9  C   UNL     1       1.620   8.144  20.043  0.00  0.00    +0.000 A 
ATOM     10  C   UNL     1       0.950   7.194  20.825  0.00  0.00    +0.000 A 
ATOM     11  C   UNL     1       1.291   5.840  20.753  0.00  0.00    +0.000 A 
ATOM     12  C   UNL     1       2.303   5.455  19.890  0.00  0.00    +0.000 A 
ENDROOT
BRANCH   5  13
ATOM     13  C   UNL     1       5.476   5.592  16.402  0.00  0.00    +0.000 A 
ATOM     14  C   UNL     1       6.862   5.380  16.381  0.00  0.00    +0.000 A 
ATOM     15  C   UNL     1       7.454   4.682  15.328  0.00  0.00    +0.000 A 
ATOM     16  C   UNL     1       6.658   4.131  14.326  0.00  0.00    +0.000 A 
ATOM     17  C   UNL     1       5.271   4.257  14.390  0.00  0.00    +0.000 A 
ATOM     18  C   UNL     1       4.678   4.982  15.426  0.00  0.00    +0.000 A 
ENDBRANCH   5  13
BRANCH   1  20
ATOM     19  C   UNL     1       1.874   2.032  19.316  0.00  0.00    +0.000 C 
ATOM     20  C   UNL     1       2.477   2.926  20.119  0.00  0.00    +0.000 C 
ATOM     21  C   UNL     1       2.592   2.586  21.584  0.00  0.00    +0.000 C 
ENDBRANCH   1  20
TORSDOF 2
ENDMDL
MODEL 6
REMARK VINA RESULT:      -6.7      1.979      6.258
REMARK  Name = 
REMARK  3 active torsions:
REMARK  status: ('A' for Active; 'I' for Inactive)
REMARK    1  A    between atoms: C_2  and  C_3
REMARK    2  A    between atoms: C_2  and  N_4
REMARK    3  A    between atoms: C_8  and  C_10
REMARK                            x       y       z     vdW  Elec       q    Type
REMARK                         _______ _______ _______ _____ _____    ______ ____
ROOT
ATOM      1  N   UNL     1       2.925   4.168  19.657  0.00  0.00    +0.000 N 
ATOM      2  C   UNL     1       4.045   4.405  18.774  0.00  0.00    +0.000 A 
ATOM      3  O   UNL     1       4.882   3.592  18.408  0.00  0.00    +0.000 OA
ATOM      4  N   UNL     1       3.981   5.785  18.369  0.00  0.00    +0.000 N 
ATOM      5  C   UNL     1       4.800   6.462  17.460  0.00  0.00    +0.000 C 
ATOM      6  O   UNL     1       5.043   7.670  17.496  0.00  0.00    +0.000 OA
ATOM      7  C   UNL     1       2.984   6.405  19.150  0.00  0.00    +0.000 A 
ATOM      8  C   UNL     1       2.632   7.744  19.227  0.00  0.00    +0.000 A 
ATOM      9  C   UNL     1       1.615   8.108  20.111  0.00  0.00    +0.000 A 
ATOM     10  C   UNL     1       0.967   7.138  20.886  0.00  0.00    +0.000 A 
ATOM     11  C   UNL     1       1.323   5.789  20.787  0.00  0.00    +0.000 A 
ATOM     12  C   UNL     1       2.327   5.430  19.904  0.00  0.00    +0.000 A 
ENDROOT
BRANCH   5  13
ATOM     13  C   UNL     1       5.449   5.661  16.376  0.00  0.00    +0.000 A 
ATOM     14  C   UNL     1       4.701   5.059  15.354  0.00  0.00    +0.000 A 
ATOM     15  C   UNL     1       5.323   4.243  14.410  0.00  0.00    +0.000 A 
ATOM     16  C   UNL     1       6.707   4.080  14.437  0.00  0.00    +0.000 A 
ATOM     17  C   UNL     1       7.469   4.751  15.393  0.00  0.00    +0.000 A 
ATOM     18  C   UNL     1       6.844   5.543  16.359  0.00  0.00    +0.000 A 
ENDBRANCH   5  13
BRANCH   1  20
ATOM     19  C   UNL     1       1.911   2.020  19.285  0.00  0.00    +0.000 C 
ATOM     20  C   UNL     1       2.533   2.900  20.090  0.00  0.00    +0.000 C 
ATOM     21  C   UNL     1       2.694   2.530  21.542  0.00  0.00    +0.000 C 
ENDBRANCH   1  20
TORSDOF 2
ENDMDL
MODEL 7
REMARK VINA RESULT:      -6.6      1.859      5.846
REMARK  Name = 
REMARK  3 active torsions:
REMARK  status: ('A' for Active; 'I' for Inactive)
REMARK    1  A    between atoms: C_2  and  C_3
REMARK    2  A    between atoms: C_2  and  N_4
REMARK    3  A    between atoms: C_8  and  C_10
REMARK                            x       y       z     vdW  Elec       q    Type
REMARK                         _______ _______ _______ _____ _____    ______ ____
ROOT
ATOM      1  N   UNL     1       2.514   6.053  18.995  0.00  0.00    +0.000 N 
ATOM      2  C   UNL     1       3.282   5.616  17.851  0.00  0.00    +0.000 A 
ATOM      3  O   UNL     1       3.665   6.300  16.912  0.00  0.00    +0.000 OA
ATOM      4  N   UNL     1       3.548   4.211  18.030  0.00  0.00    +0.000 N 
ATOM      5  C   UNL     1       4.319   3.365  17.228  0.00  0.00    +0.000 C 
ATOM      6  O   UNL     1       4.143   2.150  17.113  0.00  0.00    +0.000 OA
ATOM      7  C   UNL     1       2.786   3.779  19.134  0.00  0.00    +0.000 A 
ATOM      8  C   UNL     1       2.601   2.496  19.626  0.00  0.00    +0.000 A 
ATOM      9  C   UNL     1       1.763   2.329  20.731  0.00  0.00    +0.000 A 
ATOM     10  C   UNL     1       1.142   3.435  21.325  0.00  0.00    +0.000 A 
ATOM     11  C   UNL     1       1.350   4.724  20.826  0.00  0.00    +0.000 A 
ATOM     12  C   UNL     1       2.186   4.887  19.735  0.00  0.00    +0.000 A 
ENDROOT
BRANCH   5  13
ATOM     13  C   UNL     1       5.427   3.977  16.431  0.00  0.00    +0.000 A 
ATOM     14  C   UNL     1       6.564   4.524  17.044  0.00  0.00    +0.000 A 
ATOM     15  C   UNL     1       7.537   5.169  16.282  0.00  0.00    +0.000 A 
ATOM     16  C   UNL     1       7.416   5.212  14.895  0.00  0.00    +0.000 A 
ATOM     17  C   UNL     1       6.336   4.590  14.269  0.00  0.00    +0.000 A 
ATOM     18  C   UNL     1       5.345   3.970  15.033  0.00  0.00    +0.000 A 
ENDBRANCH   5  13
BRANCH   1  20
ATOM     19  C   UNL     1       1.893   7.814  20.509  0.00  0.00    +0.000 C 
ATOM     20  C   UNL     1       2.244   7.392  19.282  0.00  0.00    +0.000 C 
ATOM     21  C   UNL     1       2.221   8.399  18.160  0.00  0.00    +0.000 C 
ENDBRANCH   1  20
TORSDOF 2
ENDMDL
MODEL 8
REMARK VINA RESULT:      -6.6      3.201      4.905
REMARK  Name = 
REMARK  3 active torsions:
REMARK  status: ('A' for Active; 'I' for Inactive)
REMARK    1  A    between atoms: C_2  and  C_3
REMARK    2  A    between atoms: C_2  and  N_4
REMARK    3  A    between atoms: C_8  and  C_10
REMARK                            x       y       z     vdW  Elec       q    Type
REMARK                         _______ _______ _______ _____ _____    ______ ____
ROOT
ATOM      1  N   UNL     1       3.053   4.253  18.632  0.00  0.00    +0.000 N 
ATOM      2  C   UNL     1       2.219   5.415  18.833  0.00  0.00    +0.000 A 
ATOM      3  O   UNL     1       1.179   5.477  19.475  0.00  0.00    +0.000 OA
ATOM      4  N   UNL     1       2.856   6.517  18.159  0.00  0.00    +0.000 N 
ATOM      5  C   UNL     1       2.470   7.860  18.134  0.00  0.00    +0.000 C 
ATOM      6  O   UNL     1       2.710   8.645  17.214  0.00  0.00    +0.000 OA
ATOM      7  C   UNL     1       3.921   5.985  17.403  0.00  0.00    +0.000 A 
ATOM      8  C   UNL     1       4.752   6.615  16.489  0.00  0.00    +0.000 A 
ATOM      9  C   UNL     1       5.725   5.848  15.846  0.00  0.00    +0.000 A 
ATOM     10  C   UNL     1       5.856   4.483  16.131  0.00  0.00    +0.000 A 
ATOM     11  C   UNL     1       5.020   3.865  17.066  0.00  0.00    +0.000 A 
ATOM     12  C   UNL     1       4.061   4.629  17.708  0.00  0.00    +0.000 A 
ENDROOT
BRANCH   5  13
ATOM     13  C   UNL     1       1.688   8.383  19.297  0.00  0.00    +0.000 A 
ATOM     14  C   UNL     1       1.943   7.959  20.609  0.00  0.00    +0.000 A 
ATOM     15  C   UNL     1       1.138   8.394  21.662  0.00  0.00    +0.000 A 
ATOM     16  C   UNL     1       0.116   9.310  21.421  0.00  0.00    +0.000 A 
ATOM     17  C   UNL     1      -0.085   9.809  20.135  0.00  0.00    +0.000 A 
ATOM     18  C   UNL     1       0.700   9.350  19.074  0.00  0.00    +0.000 A 
ENDBRANCH   5  13
BRANCH   1  20
ATOM     19  C   UNL     1       3.696   2.630  20.286  0.00  0.00    +0.000 C 
ATOM     20  C   UNL     1       2.874   3.043  19.306  0.00  0.00    +0.000 C 
ATOM     21  C   UNL     1       1.794   2.094  18.849  0.00  0.00    +0.000 C 
ENDBRANCH   1  20
TORSDOF 2
ENDMDL
MODEL 9
REMARK VINA RESULT:      -6.5      1.862      5.832
REMARK  Name = 
REMARK  3 active torsions:
REMARK  status: ('A' for Active; 'I' for Inactive)
REMARK    1  A    between atoms: C_2  and  C_3
REMARK    2  A    between atoms: C_2  and  N_4
REMARK    3  A    between atoms: C_8  and  C_10
REMARK                            x       y       z     vdW  Elec       q    Type
REMARK                         _______ _______ _______ _____ _____    ______ ____
ROOT
ATOM      1  N   UNL     1       2.490   6.053  19.048  0.00  0.00    +0.000 N 
ATOM      2  C   UNL     1       3.239   5.628  17.887  0.00  0.00    +0.000 A 
ATOM      3  O   UNL     1       3.598   6.320  16.945  0.00  0.00    +0.000 OA
ATOM      4  N   UNL     1       3.521   4.226  18.055  0.00  0.00    +0.000 N 
ATOM      5  C   UNL     1       4.284   3.390  17.234  0.00  0.00    +0.000 C 
ATOM      6  O   UNL     1       4.117   2.174  17.117  0.00  0.00    +0.000 OA
ATOM      7  C   UNL     1       2.785   3.781  19.171  0.00  0.00    +0.000 A 
ATOM      8  C   UNL     1       2.620   2.495  19.661  0.00  0.00    +0.000 A 
ATOM      9  C   UNL     1       1.805   2.315  20.781  0.00  0.00    +0.000 A 
ATOM     10  C   UNL     1       1.185   3.413  21.391  0.00  0.00    +0.000 A 
ATOM     11  C   UNL     1       1.373   4.707  20.894  0.00  0.00    +0.000 A 
ATOM     12  C   UNL     1       2.187   4.882  19.788  0.00  0.00    +0.000 A 
ENDROOT
BRANCH   5  13
ATOM     13  C   UNL     1       5.371   4.016  16.419  0.00  0.00    +0.000 A 
ATOM     14  C   UNL     1       5.278   4.126  15.024  0.00  0.00    +0.000 A 
ATOM     15  C   UNL     1       6.346   4.630  14.282  0.00  0.00    +0.000 A 
ATOM     16  C   UNL     1       7.486   5.094  14.934  0.00  0.00    +0.000 A 
ATOM     17  C   UNL     1       7.550   5.075  16.327  0.00  0.00    +0.000 A 
ATOM     18  C   UNL     1       6.494   4.540  17.070  0.00  0.00    +0.000 A 
ENDBRANCH   5  13
BRANCH   1  20
ATOM     19  C   UNL     1       1.860   7.798  20.577  0.00  0.00    +0.000 C 
ATOM     20  C   UNL     1       2.213   7.389  19.346  0.00  0.00    +0.000 C 
ATOM     21  C   UNL     1       2.185   8.406  18.233  0.00  0.00    +0.000 C 
ENDBRANCH   1  20
TORSDOF 2
ENDMDL
