MODEL 1
REMARK VINA RESULT:      -8.4      0.000      0.000
REMARK  Name = 
REMARK  7 active torsions:
REMARK  status: ('A' for Active; 'I' for Inactive)
REMARK    1  A    between atoms: N_5  and  C_6
REMARK    2  A    between atoms: C_6  and  C_7
REMARK    3  A    between atoms: C_7  and  C_8
REMARK    4  A    between atoms: C_8  and  C_9
REMARK    5  A    between atoms: C_9  and  C_10
REMARK    6  A    between atoms: C_10  and  C_11
REMARK    7  A    between atoms: C_11  and  N_12
REMARK                            x       y       z     vdW  Elec       q    Type
REMARK                         _______ _______ _______ _____ _____    ______ ____
ROOT
ATOM      1  C   UNL     1       1.948   3.856  19.600  0.00  0.00    +0.000 C 
ENDROOT
BRANCH   1   2
ATOM      2  C   UNL     1       1.325   4.986  20.421  0.00  0.00    +0.000 C 
BRANCH   2   3
ATOM      3  C   UNL     1       2.322   6.092  20.772  0.00  0.00    +0.000 C 
BRANCH   3   8
ATOM      4  O   UNL     1       2.025   9.495  17.308  0.00  0.00    +0.000 OA
ATOM      5  C   UNL     1       1.885   8.906  18.354  0.00  0.00    +0.000 C 
ATOM      6  C   UNL     1       2.478   7.533  18.749  0.00  0.00    +0.000 C 
ATOM      7  O   UNL     1       3.160   6.829  18.034  0.00  0.00    +0.000 OA
ATOM      8  N   UNL     1       2.042   7.307  20.046  0.00  0.00    +0.000 N 
ATOM      9  C   UNL     1       1.221   8.357  20.493  0.00  0.00    +0.000 A 
ATOM     10  C   UNL     1       0.569   8.501  21.705  0.00  0.00    +0.000 A 
ATOM     11  C   UNL     1      -0.193   9.663  21.901  0.00  0.00    +0.000 A 
ATOM     12  C   UNL     1      -0.288  10.638  20.894  0.00  0.00    +0.000 A 
ATOM     13  F   UNL     1      -1.026  11.733  21.116  0.00  0.00    +0.000 F 
ATOM     14  C   UNL     1       0.361  10.493  19.675  0.00  0.00    +0.000 A 
ATOM     15  C   UNL     1       1.105   9.342  19.511  0.00  0.00    +0.000 A 
ENDBRANCH   3   8
ENDBRANCH   2   3
ENDBRANCH   1   2
BRANCH   1  16
ATOM     16  C   UNL     1       1.499   3.861  18.139  0.00  0.00    +0.000 C 
BRANCH  16  17
ATOM     17  C   UNL     1       2.593   3.414  17.172  0.00  0.00    +0.000 C 
BRANCH  17  18
ATOM     18  C   UNL     1       3.882   2.981  17.872  0.00  0.00    +0.000 C 
BRANCH  18  19
ATOM     19  N   UNL     1       4.955   3.911  17.619  0.00  0.00    +0.000 N 
ATOM     20  C   UNL     1       5.626   4.584  18.629  0.00  0.00    +0.000 C 
ATOM     21  O   UNL     1       5.425   4.575  19.825  0.00  0.00    +0.000 OA
ATOM     22  C   UNL     1       6.755   5.363  17.915  0.00  0.00    +0.000 C 
ATOM     23  O   UNL     1       7.576   6.095  18.419  0.00  0.00    +0.000 OA
ATOM     24  C   UNL     1       6.636   5.021  16.501  0.00  0.00    +0.000 A 
ATOM     25  C   UNL     1       7.418   5.427  15.439  0.00  0.00    +0.000 A 
ATOM     26  C   UNL     1       7.072   4.923  14.193  0.00  0.00    +0.000 A 
ATOM     27  F   UNL     1       7.791   5.280  13.121  0.00  0.00    +0.000 F 
ATOM     28  C   UNL     1       5.987   4.047  14.027  0.00  0.00    +0.000 A 
ATOM     29  C   UNL     1       5.213   3.647  15.126  0.00  0.00    +0.000 A 
ATOM     30  C   UNL     1       5.554   4.148  16.370  0.00  0.00    +0.000 A 
ENDBRANCH  18  19
ENDBRANCH  17  18
ENDBRANCH  16  17
ENDBRANCH   1  16
TORSDOF 7
ENDMDL
MODEL 2
REMARK VINA RESULT:      -8.1      0.636      7.709
REMARK  Name = 
REMARK  7 active torsions:
REMARK  status: ('A' for Active; 'I' for Inactive)
REMARK    1  A    between atoms: N_5  and  C_6
REMARK    2  A    between atoms: C_6  and  C_7
REMARK    3  A    between atoms: C_7  and  C_8
REMARK    4  A    between atoms: C_8  and  C_9
REMARK    5  A    between atoms: C_9  and  C_10
REMARK    6  A    between atoms: C_10  and  C_11
REMARK    7  A    between atoms: C_11  and  N_12
REMARK                            x       y       z     vdW  Elec       q    Type
REMARK                         _______ _______ _______ _____ _____    ______ ____
ROOT
ATOM      1  C   UNL     1       2.072   2.616  18.439  0.00  0.00    +0.000 C 
ENDROOT
BRANCH   1   2
ATOM      2  C   UNL     1       3.175   3.295  17.626  0.00  0.00    +0.000 C 
BRANCH   2   3
ATOM      3  C   UNL     1       4.541   3.249  18.312  0.00  0.00    +0.000 C 
BRANCH   3   8
ATOM      4  O   UNL     1       7.666   6.951  17.871  0.00  0.00    +0.000 OA
ATOM      5  C   UNL     1       6.959   6.007  17.606  0.00  0.00    +0.000 C 
ATOM      6  C   UNL     1       6.039   5.219  18.568  0.00  0.00    +0.000 C 
ATOM      7  O   UNL     1       5.918   5.429  19.757  0.00  0.00    +0.000 OA
ATOM      8  N   UNL     1       5.435   4.250  17.782  0.00  0.00    +0.000 N 
ATOM      9  C   UNL     1       5.894   4.316  16.456  0.00  0.00    +0.000 A 
ATOM     10  C   UNL     1       5.564   3.517  15.374  0.00  0.00    +0.000 A 
ATOM     11  C   UNL     1       6.170   3.805  14.142  0.00  0.00    +0.000 A 
ATOM     12  C   UNL     1       7.082   4.866  14.020  0.00  0.00    +0.000 A 
ATOM     13  F   UNL     1       7.641   5.109  12.828  0.00  0.00    +0.000 F 
ATOM     14  C   UNL     1       7.419   5.665  15.105  0.00  0.00    +0.000 A 
ATOM     15  C   UNL     1       6.806   5.362  16.303  0.00  0.00    +0.000 A 
ENDBRANCH   3   8
ENDBRANCH   2   3
ENDBRANCH   1   2
BRANCH   1  16
ATOM     16  C   UNL     1       1.886   3.233  19.826  0.00  0.00    +0.000 C 
BRANCH  16  17
ATOM     17  C   UNL     1       1.401   4.681  19.780  0.00  0.00    +0.000 C 
BRANCH  17  18
ATOM     18  C   UNL     1       2.430   5.683  20.308  0.00  0.00    +0.000 C 
BRANCH  18  19
ATOM     19  N   UNL     1       2.198   7.003  19.776  0.00  0.00    +0.000 N 
ATOM     20  C   UNL     1       2.517   7.359  18.474  0.00  0.00    +0.000 C 
ATOM     21  O   UNL     1       3.066   6.708  17.611  0.00  0.00    +0.000 OA
ATOM     22  C   UNL     1       1.988   8.803  18.309  0.00  0.00    +0.000 C 
ATOM     23  O   UNL     1       2.066   9.507  17.328  0.00  0.00    +0.000 OA
ATOM     24  C   UNL     1       1.359   9.140  19.582  0.00  0.00    +0.000 A 
ATOM     25  C   UNL     1       0.710  10.300  19.952  0.00  0.00    +0.000 A 
ATOM     26  C   UNL     1       0.193  10.332  21.240  0.00  0.00    +0.000 A 
ATOM     27  F   UNL     1      -0.447  11.430  21.661  0.00  0.00    +0.000 F 
ATOM     28  C   UNL     1       0.323   9.240  22.114  0.00  0.00    +0.000 A 
ATOM     29  C   UNL     1       0.982   8.071  21.709  0.00  0.00    +0.000 A 
ATOM     30  C   UNL     1       1.501   8.036  20.426  0.00  0.00    +0.000 A 
ENDBRANCH  18  19
ENDBRANCH  17  18
ENDBRANCH  16  17
ENDBRANCH   1  16
TORSDOF 7
ENDMDL
MODEL 3
REMARK VINA RESULT:      -8.0      0.963      8.457
REMARK  Name = 
REMARK  7 active torsions:
REMARK  status: ('A' for Active; 'I' for Inactive)
REMARK    1  A    between atoms: N_5  and  C_6
REMARK    2  A    between atoms: C_6  and  C_7
REMARK    3  A    between atoms: C_7  and  C_8
REMARK    4  A    between atoms: C_8  and  C_9
REMARK    5  A    between atoms: C_9  and  C_10
REMARK    6  A    between atoms: C_10  and  C_11
REMARK    7  A    between atoms: C_11  and  N_12
REMARK                            x       y       z     vdW  Elec       q    Type
REMARK                         _______ _______ _______ _____ _____    ______ ____
ROOT
ATOM      1  C   UNL     1       1.520   4.041  18.881  0.00  0.00    +0.000 C 
ENDROOT
BRANCH   1   2
ATOM      2  C   UNL     1       2.548   4.174  17.757  0.00  0.00    +0.000 C 
BRANCH   2   3
ATOM      3  C   UNL     1       3.822   3.366  18.010  0.00  0.00    +0.000 C 
BRANCH   3   8
ATOM      4  O   UNL     1       7.912   5.978  18.358  0.00  0.00    +0.000 OA
ATOM      5  C   UNL     1       6.983   5.353  17.901  0.00  0.00    +0.000 C 
ATOM      6  C   UNL     1       5.804   4.717  18.673  0.00  0.00    +0.000 C 
ATOM      7  O   UNL     1       5.660   4.735  19.877  0.00  0.00    +0.000 OA
ATOM      8  N   UNL     1       5.005   4.132  17.702  0.00  0.00    +0.000 N 
ATOM      9  C   UNL     1       5.564   4.296  16.423  0.00  0.00    +0.000 A 
ATOM     10  C   UNL     1       5.099   3.841  15.201  0.00  0.00    +0.000 A 
ATOM     11  C   UNL     1       5.854   4.152  14.060  0.00  0.00    +0.000 A 
ATOM     12  C   UNL     1       7.041   4.895  14.164  0.00  0.00    +0.000 A 
ATOM     13  F   UNL     1       7.736   5.171  13.053  0.00  0.00    +0.000 F 
ATOM     14  C   UNL     1       7.513   5.347  15.389  0.00  0.00    +0.000 A 
ATOM     15  C   UNL     1       6.749   5.030  16.494  0.00  0.00    +0.000 A 
ENDBRANCH   3   8
ENDBRANCH   2   3
ENDBRANCH   1   2
BRANCH   1  16
ATOM     16  C   UNL     1       1.974   4.694  20.187  0.00  0.00    +0.000 C 
BRANCH  16  17
ATOM     17  C   UNL     1       1.346   6.066  20.423  0.00  0.00    +0.000 C 
BRANCH  17  18
ATOM     18  C   UNL     1       2.288   7.228  20.103  0.00  0.00    +0.000 C 
BRANCH  18  19
ATOM     19  N   UNL     1       1.564   8.468  19.968  0.00  0.00    +0.000 N 
ATOM     20  C   UNL     1       1.367   9.099  18.749  0.00  0.00    +0.000 C 
ATOM     21  O   UNL     1       1.780   8.796  17.650  0.00  0.00    +0.000 OA
ATOM     22  C   UNL     1       0.451  10.305  19.062  0.00  0.00    +0.000 C 
ATOM     23  O   UNL     1       0.038  11.136  18.285  0.00  0.00    +0.000 OA
ATOM     24  C   UNL     1       0.172  10.228  20.492  0.00  0.00    +0.000 A 
ATOM     25  C   UNL     1      -0.617  11.049  21.271  0.00  0.00    +0.000 A 
ATOM     26  C   UNL     1      -0.707  10.720  22.617  0.00  0.00    +0.000 A 
ATOM     27  F   UNL     1      -1.457  11.479  23.427  0.00  0.00    +0.000 F 
ATOM     28  C   UNL     1      -0.034   9.609  23.151  0.00  0.00    +0.000 A 
ATOM     29  C   UNL     1       0.756   8.788  22.334  0.00  0.00    +0.000 A 
ATOM     30  C   UNL     1       0.851   9.114  20.992  0.00  0.00    +0.000 A 
ENDBRANCH  18  19
ENDBRANCH  17  18
ENDBRANCH  16  17
ENDBRANCH   1  16
TORSDOF 7
ENDMDL
MODEL 4
REMARK VINA RESULT:      -7.7      3.653      8.924
REMARK  Name = 
REMARK  7 active torsions:
REMARK  status: ('A' for Active; 'I' for Inactive)
REMARK    1  A    between atoms: N_5  and  C_6
REMARK    2  A    between atoms: C_6  and  C_7
REMARK    3  A    between atoms: C_7  and  C_8
REMARK    4  A    between atoms: C_8  and  C_9
REMARK    5  A    between atoms: C_9  and  C_10
REMARK    6  A    between atoms: C_10  and  C_11
REMARK    7  A    between atoms: C_11  and  N_12
REMARK                            x       y       z     vdW  Elec       q    Type
REMARK                         _______ _______ _______ _____ _____    ______ ____
ROOT
ATOM      1  C   UNL     1       1.544   9.084  17.882  0.00  0.00    +0.000 C 
ENDROOT
BRANCH   1   2
ATOM      2  C   UNL     1       2.702   8.175  18.296  0.00  0.00    +0.000 C 
BRANCH   2   3
ATOM      3  C   UNL     1       3.405   7.519  17.106  0.00  0.00    +0.000 C 
BRANCH   3   8
ATOM      4  O   UNL     1       6.725   4.194  18.369  0.00  0.00    +0.000 OA
ATOM      5  C   UNL     1       5.667   4.726  18.125  0.00  0.00    +0.000 C 
ATOM      6  C   UNL     1       5.431   6.173  17.633  0.00  0.00    +0.000 C 
ATOM      7  O   UNL     1       6.295   7.003  17.446  0.00  0.00    +0.000 OA
ATOM      8  N   UNL     1       4.056   6.289  17.488  0.00  0.00    +0.000 N 
ATOM      9  C   UNL     1       3.407   5.101  17.864  0.00  0.00    +0.000 A 
ATOM     10  C   UNL     1       2.052   4.817  17.893  0.00  0.00    +0.000 A 
ATOM     11  C   UNL     1       1.665   3.534  18.309  0.00  0.00    +0.000 A 
ATOM     12  C   UNL     1       2.625   2.580  18.686  0.00  0.00    +0.000 A 
ATOM     13  F   UNL     1       2.216   1.367  19.080  0.00  0.00    +0.000 F 
ATOM     14  C   UNL     1       3.983   2.865  18.664  0.00  0.00    +0.000 A 
ATOM     15  C   UNL     1       4.336   4.133  18.247  0.00  0.00    +0.000 A 
ENDBRANCH   3   8
ENDBRANCH   2   3
ENDBRANCH   1   2
BRANCH   1  16
ATOM     16  C   UNL     1       1.881  10.571  17.999  0.00  0.00    +0.000 C 
BRANCH  16  17
ATOM     17  C   UNL     1       1.272  11.230  19.235  0.00  0.00    +0.000 C 
BRANCH  17  18
ATOM     18  C   UNL     1       0.158  10.402  19.878  0.00  0.00    +0.000 C 
BRANCH  18  19
ATOM     19  N   UNL     1      -1.139  10.971  19.611  0.00  0.00    +0.000 N 
ATOM     20  C   UNL     1      -1.732  11.920  20.432  0.00  0.00    +0.000 C 
ATOM     21  O   UNL     1      -1.340  12.378  21.484  0.00  0.00    +0.000 OA
ATOM     22  C   UNL     1      -3.034  12.327  19.705  0.00  0.00    +0.000 C 
ATOM     23  O   UNL     1      -3.865  13.124  20.077  0.00  0.00    +0.000 OA
ATOM     24  C   UNL     1      -3.049  11.560  18.464  0.00  0.00    +0.000 A 
ATOM     25  C   UNL     1      -3.978  11.573  17.443  0.00  0.00    +0.000 A 
ATOM     26  C   UNL     1      -3.719  10.737  16.365  0.00  0.00    +0.000 A 
ATOM     27  F   UNL     1      -4.584  10.702  15.343  0.00  0.00    +0.000 F 
ATOM     28  C   UNL     1      -2.573   9.927  16.319  0.00  0.00    +0.000 A 
ATOM     29  C   UNL     1      -1.642   9.939  17.368  0.00  0.00    +0.000 A 
ATOM     30  C   UNL     1      -1.897  10.769  18.445  0.00  0.00    +0.000 A 
ENDBRANCH  18  19
ENDBRANCH  17  18
ENDBRANCH  16  17
ENDBRANCH   1  16
TORSDOF 7
ENDMDL
MODEL 5
REMARK VINA RESULT:      -7.7      7.069      9.201
REMARK  Name = 
REMARK  7 active torsions:
REMARK  status: ('A' for Active; 'I' for Inactive)
REMARK    1  A    between atoms: N_5  and  C_6
REMARK    2  A    between atoms: C_6  and  C_7
REMARK    3  A    between atoms: C_7  and  C_8
REMARK    4  A    between atoms: C_8  and  C_9
REMARK    5  A    between atoms: C_9  and  C_10
REMARK    6  A    between atoms: C_10  and  C_11
REMARK    7  A    between atoms: C_11  and  N_12
REMARK                            x       y       z     vdW  Elec       q    Type
REMARK                         _______ _______ _______ _____ _____    ______ ____
ROOT
ATOM      1  C   UNL     1       8.715   8.818  18.470  0.00  0.00    +0.000 C 
ENDROOT
BRANCH   1   2
ATOM      2  C   UNL     1       7.663   8.008  17.711  0.00  0.00    +0.000 C 
BRANCH   2   3
ATOM      3  C   UNL     1       7.682   6.520  18.062  0.00  0.00    +0.000 C 
BRANCH   3   8
ATOM      4  O   UNL     1       5.220   4.084  14.646  0.00  0.00    +0.000 OA
ATOM      5  C   UNL     1       5.521   4.598  15.698  0.00  0.00    +0.000 C 
ATOM      6  C   UNL     1       6.798   5.409  16.018  0.00  0.00    +0.000 C 
ATOM      7  O   UNL     1       7.708   5.624  15.245  0.00  0.00    +0.000 OA
ATOM      8  N   UNL     1       6.664   5.793  17.344  0.00  0.00    +0.000 N 
ATOM      9  C   UNL     1       5.475   5.288  17.897  0.00  0.00    +0.000 A 
ATOM     10  C   UNL     1       4.986   5.417  19.186  0.00  0.00    +0.000 A 
ATOM     11  C   UNL     1       3.754   4.812  19.480  0.00  0.00    +0.000 A 
ATOM     12  C   UNL     1       3.052   4.098  18.495  0.00  0.00    +0.000 A 
ATOM     13  F   UNL     1       1.880   3.533  18.814  0.00  0.00    +0.000 F 
ATOM     14  C   UNL     1       3.543   3.962  17.204  0.00  0.00    +0.000 A 
ATOM     15  C   UNL     1       4.754   4.569  16.942  0.00  0.00    +0.000 A 
ENDBRANCH   3   8
ENDBRANCH   2   3
ENDBRANCH   1   2
BRANCH   1  16
ATOM     16  C   UNL     1       8.603  10.323  18.224  0.00  0.00    +0.000 C 
BRANCH  16  17
ATOM     17  C   UNL     1       9.955  10.996  17.994  0.00  0.00    +0.000 C 
BRANCH  17  18
ATOM     18  C   UNL     1      10.492  11.717  19.232  0.00  0.00    +0.000 C 
BRANCH  18  19
ATOM     19  N   UNL     1       9.877  13.012  19.392  0.00  0.00    +0.000 N 
ATOM     20  C   UNL     1       9.017  13.316  20.438  0.00  0.00    +0.000 C 
ATOM     21  O   UNL     1       8.595  12.599  21.319  0.00  0.00    +0.000 OA
ATOM     22  C   UNL     1       8.706  14.823  20.280  0.00  0.00    +0.000 C 
ATOM     23  O   UNL     1       7.984  15.501  20.974  0.00  0.00    +0.000 OA
ATOM     24  C   UNL     1       9.478  15.265  19.123  0.00  0.00    +0.000 A 
ATOM     25  C   UNL     1       9.577  16.527  18.574  0.00  0.00    +0.000 A 
ATOM     26  C   UNL     1      10.408  16.654  17.469  0.00  0.00    +0.000 A 
ATOM     27  F   UNL     1      10.546  17.853  16.889  0.00  0.00    +0.000 F 
ATOM     28  C   UNL     1      11.111  15.557  16.945  0.00  0.00    +0.000 A 
ATOM     29  C   UNL     1      10.996  14.287  17.528  0.00  0.00    +0.000 A 
ATOM     30  C   UNL     1      10.167  14.155  18.628  0.00  0.00    +0.000 A 
ENDBRANCH  18  19
ENDBRANCH  17  18
ENDBRANCH  16  17
ENDBRANCH   1  16
TORSDOF 7
ENDMDL
MODEL 6
REMARK VINA RESULT:      -7.6      3.227      4.953
REMARK  Name = 
REMARK  7 active torsions:
REMARK  status: ('A' for Active; 'I' for Inactive)
REMARK    1  A    between atoms: N_5  and  C_6
REMARK    2  A    between atoms: C_6  and  C_7
REMARK    3  A    between atoms: C_7  and  C_8
REMARK    4  A    between atoms: C_8  and  C_9
REMARK    5  A    between atoms: C_9  and  C_10
REMARK    6  A    between atoms: C_10  and  C_11
REMARK    7  A    between atoms: C_11  and  N_12
REMARK                            x       y       z     vdW  Elec       q    Type
REMARK                         _______ _______ _______ _____ _____    ______ ____
ROOT
ATOM      1  C   UNL     1       2.704   7.593  18.761  0.00  0.00    +0.000 C 
ENDROOT
BRANCH   1   2
ATOM      2  C   UNL     1       1.306   8.213  18.718  0.00  0.00    +0.000 C 
BRANCH   2   3
ATOM      3  C   UNL     1       1.299   9.640  18.168  0.00  0.00    +0.000 C 
BRANCH   3   8
ATOM      4  O   UNL     1      -1.473  12.734  20.699  0.00  0.00    +0.000 OA
ATOM      5  C   UNL     1      -1.115  11.916  19.884  0.00  0.00    +0.000 C 
ATOM      6  C   UNL     1       0.287  11.279  19.744  0.00  0.00    +0.000 C 
ATOM      7  O   UNL     1       1.251  11.539  20.433  0.00  0.00    +0.000 OA
ATOM      8  N   UNL     1       0.182  10.398  18.678  0.00  0.00    +0.000 N 
ATOM      9  C   UNL     1      -1.105  10.437  18.116  0.00  0.00    +0.000 A 
ATOM     10  C   UNL     1      -1.607   9.740  17.030  0.00  0.00    +0.000 A 
ATOM     11  C   UNL     1      -2.946   9.962  16.676  0.00  0.00    +0.000 A 
ATOM     12  C   UNL     1      -3.741  10.866  17.400  0.00  0.00    +0.000 A 
ATOM     13  F   UNL     1      -5.014  11.053  17.030  0.00  0.00    +0.000 F 
ATOM     14  C   UNL     1      -3.238  11.571  18.485  0.00  0.00    +0.000 A 
ATOM     15  C   UNL     1      -1.920  11.331  18.814  0.00  0.00    +0.000 A 
ENDBRANCH   3   8
ENDBRANCH   2   3
ENDBRANCH   1   2
BRANCH   1  16
ATOM     16  C   UNL     1       3.441   7.690  17.425  0.00  0.00    +0.000 C 
BRANCH  16  17
ATOM     17  C   UNL     1       4.800   6.991  17.435  0.00  0.00    +0.000 C 
BRANCH  17  18
ATOM     18  C   UNL     1       4.781   5.618  16.762  0.00  0.00    +0.000 C 
BRANCH  18  19
ATOM     19  N   UNL     1       4.506   4.571  17.715  0.00  0.00    +0.000 N 
ATOM     20  C   UNL     1       5.471   4.049  18.564  0.00  0.00    +0.000 C 
ATOM     21  O   UNL     1       6.655   4.303  18.630  0.00  0.00    +0.000 OA
ATOM     22  C   UNL     1       4.713   3.058  19.477  0.00  0.00    +0.000 C 
ATOM     23  O   UNL     1       5.175   2.371  20.359  0.00  0.00    +0.000 OA
ATOM     24  C   UNL     1       3.315   3.133  19.065  0.00  0.00    +0.000 A 
ATOM     25  C   UNL     1       2.219   2.470  19.579  0.00  0.00    +0.000 A 
ATOM     26  C   UNL     1       0.995   2.753  18.988  0.00  0.00    +0.000 A 
ATOM     27  F   UNL     1      -0.106   2.141  19.439  0.00  0.00    +0.000 F 
ATOM     28  C   UNL     1       0.883   3.669  17.928  0.00  0.00    +0.000 A 
ATOM     29  C   UNL     1       2.013   4.333  17.431  0.00  0.00    +0.000 A 
ATOM     30  C   UNL     1       3.235   4.052  18.016  0.00  0.00    +0.000 A 
ENDBRANCH  18  19
ENDBRANCH  17  18
ENDBRANCH  16  17
ENDBRANCH   1  16
TORSDOF 7
ENDMDL
MODEL 7
REMARK VINA RESULT:      -7.6      1.877      2.590
REMARK  Name = 
REMARK  7 active torsions:
REMARK  status: ('A' for Active; 'I' for Inactive)
REMARK    1  A    between atoms: N_5  and  C_6
REMARK    2  A    between atoms: C_6  and  C_7
REMARK    3  A    between atoms: C_7  and  C_8
REMARK    4  A    between atoms: C_8  and  C_9
REMARK    5  A    between atoms: C_9  and  C_10
REMARK    6  A    between atoms: C_10  and  C_11
REMARK    7  A    between atoms: C_11  and  N_12
REMARK                            x       y       z     vdW  Elec       q    Type
REMARK                         _______ _______ _______ _____ _____    ______ ____
ROOT
ATOM      1  C   UNL     1       2.221   3.484  19.757  0.00  0.00    +0.000 C 
ENDROOT
BRANCH   1   2
ATOM      2  C   UNL     1       1.626   4.892  19.721  0.00  0.00    +0.000 C 
BRANCH   2   3
ATOM      3  C   UNL     1       2.608   5.971  20.181  0.00  0.00    +0.000 C 
BRANCH   3   8
ATOM      4  O   UNL     1       1.948   9.874  17.353  0.00  0.00    +0.000 OA
ATOM      5  C   UNL     1       1.903   9.117  18.295  0.00  0.00    +0.000 C 
ATOM      6  C   UNL     1       2.571   7.727  18.419  0.00  0.00    +0.000 C 
ATOM      7  O   UNL     1       3.226   7.181  17.556  0.00  0.00    +0.000 OA
ATOM      8  N   UNL     1       2.235   7.273  19.686  0.00  0.00    +0.000 N 
ATOM      9  C   UNL     1       1.410   8.196  20.351  0.00  0.00    +0.000 A 
ATOM     10  C   UNL     1       0.839   8.111  21.609  0.00  0.00    +0.000 A 
ATOM     11  C   UNL     1       0.051   9.189  22.042  0.00  0.00    +0.000 A 
ATOM     12  C   UNL     1      -0.149  10.309  21.218  0.00  0.00    +0.000 A 
ATOM     13  F   UNL     1      -0.908  11.317  21.665  0.00  0.00    +0.000 F 
ATOM     14  C   UNL     1       0.418  10.394  19.953  0.00  0.00    +0.000 A 
ATOM     15  C   UNL     1       1.190   9.322  19.555  0.00  0.00    +0.000 A 
ENDBRANCH   3   8
ENDBRANCH   2   3
ENDBRANCH   1   2
BRANCH   1  16
ATOM     16  C   UNL     1       2.131   2.763  18.411  0.00  0.00    +0.000 C 
BRANCH  16  17
ATOM     17  C   UNL     1       3.458   2.735  17.655  0.00  0.00    +0.000 C 
BRANCH  17  18
ATOM     18  C   UNL     1       3.516   3.729  16.493  0.00  0.00    +0.000 C 
BRANCH  18  19
ATOM     19  N   UNL     1       4.855   4.227  16.296  0.00  0.00    +0.000 N 
ATOM     20  C   UNL     1       5.437   4.354  15.043  0.00  0.00    +0.000 C 
ATOM     21  O   UNL     1       4.999   4.042  13.957  0.00  0.00    +0.000 OA
ATOM     22  C   UNL     1       6.804   5.031  15.299  0.00  0.00    +0.000 C 
ATOM     23  O   UNL     1       7.646   5.319  14.480  0.00  0.00    +0.000 OA
ATOM     24  C   UNL     1       6.864   5.266  16.738  0.00  0.00    +0.000 A 
ATOM     25  C   UNL     1       7.859   5.868  17.481  0.00  0.00    +0.000 A 
ATOM     26  C   UNL     1       7.633   5.965  18.847  0.00  0.00    +0.000 A 
ATOM     27  F   UNL     1       8.561   6.538  19.624  0.00  0.00    +0.000 F 
ATOM     28  C   UNL     1       6.454   5.480  19.436  0.00  0.00    +0.000 A 
ATOM     29  C   UNL     1       5.456   4.878  18.655  0.00  0.00    +0.000 A 
ATOM     30  C   UNL     1       5.679   4.776  17.293  0.00  0.00    +0.000 A 
ENDBRANCH  18  19
ENDBRANCH  17  18
ENDBRANCH  16  17
ENDBRANCH   1  16
TORSDOF 7
ENDMDL
MODEL 8
REMARK VINA RESULT:      -7.6      3.075      9.255
REMARK  Name = 
REMARK  7 active torsions:
REMARK  status: ('A' for Active; 'I' for Inactive)
REMARK    1  A    between atoms: N_5  and  C_6
REMARK    2  A    between atoms: C_6  and  C_7
REMARK    3  A    between atoms: C_7  and  C_8
REMARK    4  A    between atoms: C_8  and  C_9
REMARK    5  A    between atoms: C_9  and  C_10
REMARK    6  A    between atoms: C_10  and  C_11
REMARK    7  A    between atoms: C_11  and  N_12
REMARK                            x       y       z     vdW  Elec       q    Type
REMARK                         _______ _______ _______ _____ _____    ______ ____
ROOT
ATOM      1  C   UNL     1       1.883   9.453  17.874  0.00  0.00    +0.000 C 
ENDROOT
BRANCH   1   2
ATOM      2  C   UNL     1       2.542   8.129  18.264  0.00  0.00    +0.000 C 
BRANCH   2   3
ATOM      3  C   UNL     1       3.428   7.551  17.159  0.00  0.00    +0.000 C 
BRANCH   3   8
ATOM      4  O   UNL     1       6.618   4.140  18.521  0.00  0.00    +0.000 OA
ATOM      5  C   UNL     1       5.582   4.700  18.248  0.00  0.00    +0.000 C 
ATOM      6  C   UNL     1       5.400   6.151  17.744  0.00  0.00    +0.000 C 
ATOM      7  O   UNL     1       6.293   6.955  17.574  0.00  0.00    +0.000 OA
ATOM      8  N   UNL     1       4.034   6.306  17.563  0.00  0.00    +0.000 N 
ATOM      9  C   UNL     1       3.341   5.139  17.928  0.00  0.00    +0.000 A 
ATOM     10  C   UNL     1       1.979   4.893  17.924  0.00  0.00    +0.000 A 
ATOM     11  C   UNL     1       1.544   3.624  18.336  0.00  0.00    +0.000 A 
ATOM     12  C   UNL     1       2.467   2.645  18.742  0.00  0.00    +0.000 A 
ATOM     13  F   UNL     1       2.014   1.446  19.131  0.00  0.00    +0.000 F 
ATOM     14  C   UNL     1       3.833   2.892  18.753  0.00  0.00    +0.000 A 
ATOM     15  C   UNL     1       4.233   4.146  18.340  0.00  0.00    +0.000 A 
ENDBRANCH   3   8
ENDBRANCH   2   3
ENDBRANCH   1   2
BRANCH   1  16
ATOM     16  C   UNL     1       0.418   9.293  17.468  0.00  0.00    +0.000 C 
BRANCH  16  17
ATOM     17  C   UNL     1      -0.533  10.162  18.290  0.00  0.00    +0.000 C 
BRANCH  17  18
ATOM     18  C   UNL     1       0.190  11.125  19.234  0.00  0.00    +0.000 C 
BRANCH  18  19
ATOM     19  N   UNL     1      -0.250  10.951  20.597  0.00  0.00    +0.000 N 
ATOM     20  C   UNL     1       0.430  10.165  21.516  0.00  0.00    +0.000 C 
ATOM     21  O   UNL     1       1.413   9.474  21.357  0.00  0.00    +0.000 OA
ATOM     22  C   UNL     1      -0.318  10.368  22.854  0.00  0.00    +0.000 C 
ATOM     23  O   UNL     1      -0.067   9.857  23.921  0.00  0.00    +0.000 OA
ATOM     24  C   UNL     1      -1.386  11.320  22.567  0.00  0.00    +0.000 A 
ATOM     25  C   UNL     1      -2.325  11.859  23.423  0.00  0.00    +0.000 A 
ATOM     26  C   UNL     1      -3.221  12.761  22.865  0.00  0.00    +0.000 A 
ATOM     27  F   UNL     1      -4.158  13.318  23.643  0.00  0.00    +0.000 F 
ATOM     28  C   UNL     1      -3.168  13.107  21.505  0.00  0.00    +0.000 A 
ATOM     29  C   UNL     1      -2.198  12.548  20.659  0.00  0.00    +0.000 A 
ATOM     30  C   UNL     1      -1.305  11.646  21.211  0.00  0.00    +0.000 A 
ENDBRANCH  18  19
ENDBRANCH  17  18
ENDBRANCH  16  17
ENDBRANCH   1  16
TORSDOF 7
ENDMDL
MODEL 9
REMARK VINA RESULT:      -7.5      3.783      8.978
REMARK  Name = 
REMARK  7 active torsions:
REMARK  status: ('A' for Active; 'I' for Inactive)
REMARK    1  A    between atoms: N_5  and  C_6
REMARK    2  A    between atoms: C_6  and  C_7
REMARK    3  A    between atoms: C_7  and  C_8
REMARK    4  A    between atoms: C_8  and  C_9
REMARK    5  A    between atoms: C_9  and  C_10
REMARK    6  A    between atoms: C_10  and  C_11
REMARK    7  A    between atoms: C_11  and  N_12
REMARK                            x       y       z     vdW  Elec       q    Type
REMARK                         _______ _______ _______ _____ _____    ______ ____
ROOT
ATOM      1  C   UNL     1       1.771   9.298  18.494  0.00  0.00    +0.000 C 
ENDROOT
BRANCH   1   2
ATOM      2  C   UNL     1       2.148   8.048  17.698  0.00  0.00    +0.000 C 
BRANCH   2   3
ATOM      3  C   UNL     1       3.625   7.675  17.831  0.00  0.00    +0.000 C 
BRANCH   3   8
ATOM      4  O   UNL     1       5.480   3.648  15.828  0.00  0.00    +0.000 OA
ATOM      5  C   UNL     1       4.796   4.388  16.495  0.00  0.00    +0.000 C 
ATOM      6  C   UNL     1       4.853   5.933  16.546  0.00  0.00    +0.000 C 
ATOM      7  O   UNL     1       5.632   6.629  15.928  0.00  0.00    +0.000 OA
ATOM      8  N   UNL     1       3.862   6.305  17.442  0.00  0.00    +0.000 N 
ATOM      9  C   UNL     1       3.220   5.178  17.981  0.00  0.00    +0.000 A 
ATOM     10  C   UNL     1       2.205   5.116  18.921  0.00  0.00    +0.000 A 
ATOM     11  C   UNL     1       1.732   3.847  19.287  0.00  0.00    +0.000 A 
ATOM     12  C   UNL     1       2.279   2.685  18.717  0.00  0.00    +0.000 A 
ATOM     13  F   UNL     1       1.803   1.491  19.092  0.00  0.00    +0.000 F 
ATOM     14  C   UNL     1       3.300   2.744  17.778  0.00  0.00    +0.000 A 
ATOM     15  C   UNL     1       3.744   4.005  17.435  0.00  0.00    +0.000 A 
ENDBRANCH   3   8
ENDBRANCH   2   3
ENDBRANCH   1   2
BRANCH   1  16
ATOM     16  C   UNL     1       0.974   8.982  19.760  0.00  0.00    +0.000 C 
BRANCH  16  17
ATOM     17  C   UNL     1       0.724  10.209  20.636  0.00  0.00    +0.000 C 
BRANCH  17  18
ATOM     18  C   UNL     1       0.421  11.476  19.833  0.00  0.00    +0.000 C 
BRANCH  18  19
ATOM     19  N   UNL     1      -0.999  11.682  19.696  0.00  0.00    +0.000 N 
ATOM     20  C   UNL     1      -1.746  12.421  20.603  0.00  0.00    +0.000 C 
ATOM     21  O   UNL     1      -1.398  12.946  21.638  0.00  0.00    +0.000 OA
ATOM     22  C   UNL     1      -3.170  12.479  20.001  0.00  0.00    +0.000 C 
ATOM     23  O   UNL     1      -4.146  13.016  20.473  0.00  0.00    +0.000 OA
ATOM     24  C   UNL     1      -3.091  11.761  18.732  0.00  0.00    +0.000 A 
ATOM     25  C   UNL     1      -4.077  11.545  17.792  0.00  0.00    +0.000 A 
ATOM     26  C   UNL     1      -3.704  10.831  16.662  0.00  0.00    +0.000 A 
ATOM     27  F   UNL     1      -4.615  10.586  15.712  0.00  0.00    +0.000 F 
ATOM     28  C   UNL     1      -2.392  10.359  16.488  0.00  0.00    +0.000 A 
ATOM     29  C   UNL     1      -1.409  10.598  17.458  0.00  0.00    +0.000 A 
ATOM     30  C   UNL     1      -1.777  11.308  18.587  0.00  0.00    +0.000 A 
ENDBRANCH  18  19
ENDBRANCH  17  18
ENDBRANCH  16  17
ENDBRANCH   1  16
TORSDOF 7
ENDMDL
