MODEL 1
REMARK VINA RESULT:      -7.6      0.000      0.000
REMARK  Name = 
REMARK  10 active torsions:
REMARK  status: ('A' for Active; 'I' for Inactive)
REMARK    1  A    between atoms: C_1  and  O_2
REMARK    2  A    between atoms: O_2  and  C_3
REMARK    3  A    between atoms: C_6  and  C_7
REMARK    4  A    between atoms: C_9  and  N_10
REMARK    5  A    between atoms: N_10  and  C_11
REMARK    6  A    between atoms: N_10  and  S_15
REMARK    7  A    between atoms: C_11  and  C_12
REMARK    8  A    between atoms: C_12  and  O_14
REMARK    9  A    between atoms: S_15  and  C_18
REMARK   10  A    between atoms: C_21  and  C_22
REMARK                            x       y       z     vdW  Elec       q    Type
REMARK                         _______ _______ _______ _____ _____    ______ ____
ROOT
ATOM      1  N   UNL     1       5.538   4.877  16.627  0.00  0.00    +0.000 N 
ENDROOT
BRANCH   1   8
ATOM      2  C   UNL     1       3.422   3.988  17.708  0.00  0.00    +0.000 A 
ATOM      3  C   UNL     1       2.232   4.314  18.381  0.00  0.00    +0.000 A 
ATOM      4  C   UNL     1       1.867   5.643  18.605  0.00  0.00    +0.000 A 
ATOM      5  C   UNL     1       2.665   6.685  18.136  0.00  0.00    +0.000 A 
ATOM      6  C   UNL     1       2.310   8.112  18.407  0.00  0.00    +0.000 C 
ATOM      7  C   UNL     1       3.846   6.365  17.456  0.00  0.00    +0.000 A 
ATOM      8  C   UNL     1       4.258   5.029  17.278  0.00  0.00    +0.000 A 
BRANCH   2  10
ATOM      9  C   UNL     1       3.374   1.740  18.446  0.00  0.00    +0.000 C 
ATOM     10  O   UNL     1       3.820   2.697  17.478  0.00  0.00    +0.000 OA
ENDBRANCH   2  10
ENDBRANCH   1   8
BRANCH   1  11
ATOM     11  S   UNL     1       6.913   4.789  17.652  0.00  0.00    +0.000 S 
ATOM     12  O   UNL     1       6.516   4.272  18.944  0.00  0.00    +0.000 OA
ATOM     13  O   UNL     1       7.956   4.115  16.892  0.00  0.00    +0.000 OA
BRANCH  11  14
ATOM     14  C   UNL     1       7.460   6.471  17.869  0.00  0.00    +0.000 A 
ATOM     15  C   UNL     1       6.968   7.481  17.041  0.00  0.00    +0.000 A 
ATOM     16  C   UNL     1       7.401   8.798  17.224  0.00  0.00    +0.000 A 
ATOM     17  C   UNL     1       8.312   9.116  18.242  0.00  0.00    +0.000 A 
ATOM     18  C   UNL     1       8.829  10.516  18.408  0.00  0.00    +0.000 C 
ATOM     19  C   UNL     1       8.755   8.105  19.102  0.00  0.00    +0.000 A 
ATOM     20  C   UNL     1       8.317   6.790  18.931  0.00  0.00    +0.000 A 
ENDBRANCH  11  14
ENDBRANCH   1  11
BRANCH   1  21
ATOM     21  C   UNL     1       5.807   5.486  15.300  0.00  0.00    +0.000 C 
BRANCH  21  22
ATOM     22  C   UNL     1       6.727   4.795  14.329  0.00  0.00    +0.000 C 
ATOM     23  O   UNL     1       6.387   3.821  13.664  0.00  0.00    +0.000 OA
BRANCH  22  24
ATOM     24  O   UNL     1       7.920   5.399  14.134  0.00  0.00    +0.000 OA
ATOM     25  H   UNL     1       7.900   5.985  13.352  0.00  0.00    +0.000 HD
ENDBRANCH  22  24
ENDBRANCH  21  22
ENDBRANCH   1  21
TORSDOF 7
ENDMDL
MODEL 2
REMARK VINA RESULT:      -7.5      2.723      5.829
REMARK  Name = 
REMARK  10 active torsions:
REMARK  status: ('A' for Active; 'I' for Inactive)
REMARK    1  A    between atoms: C_1  and  O_2
REMARK    2  A    between atoms: O_2  and  C_3
REMARK    3  A    between atoms: C_6  and  C_7
REMARK    4  A    between atoms: C_9  and  N_10
REMARK    5  A    between atoms: N_10  and  C_11
REMARK    6  A    between atoms: N_10  and  S_15
REMARK    7  A    between atoms: C_11  and  C_12
REMARK    8  A    between atoms: C_12  and  O_14
REMARK    9  A    between atoms: S_15  and  C_18
REMARK   10  A    between atoms: C_21  and  C_22
REMARK                            x       y       z     vdW  Elec       q    Type
REMARK                         _______ _______ _______ _____ _____    ______ ____
ROOT
ATOM      1  N   UNL     1       4.348   3.366  18.263  0.00  0.00    +0.000 N 
ENDROOT
BRANCH   1   8
ATOM      2  C   UNL     1       6.084   5.133  17.715  0.00  0.00    +0.000 A 
ATOM      3  C   UNL     1       6.899   5.695  16.717  0.00  0.00    +0.000 A 
ATOM      4  C   UNL     1       6.836   5.253  15.394  0.00  0.00    +0.000 A 
ATOM      5  C   UNL     1       5.934   4.258  15.024  0.00  0.00    +0.000 A 
ATOM      6  C   UNL     1       5.885   3.743  13.620  0.00  0.00    +0.000 C 
ATOM      7  C   UNL     1       5.112   3.703  16.012  0.00  0.00    +0.000 A 
ATOM      8  C   UNL     1       5.210   4.094  17.361  0.00  0.00    +0.000 A 
BRANCH   2  10
ATOM      9  C   UNL     1       7.438   5.692  19.573  0.00  0.00    +0.000 C 
ATOM     10  O   UNL     1       6.124   5.532  19.025  0.00  0.00    +0.000 OA
ENDBRANCH   2  10
ENDBRANCH   1   8
BRANCH   1  11
ATOM     11  S   UNL     1       2.659   3.602  18.064  0.00  0.00    +0.000 S 
ATOM     12  O   UNL     1       2.360   3.776  16.658  0.00  0.00    +0.000 OA
ATOM     13  O   UNL     1       2.000   2.545  18.819  0.00  0.00    +0.000 OA
BRANCH  11  14
ATOM     14  C   UNL     1       2.283   5.127  18.905  0.00  0.00    +0.000 A 
ATOM     15  C   UNL     1       1.786   5.105  20.209  0.00  0.00    +0.000 A 
ATOM     16  C   UNL     1       1.500   6.308  20.861  0.00  0.00    +0.000 A 
ATOM     17  C   UNL     1       1.721   7.538  20.223  0.00  0.00    +0.000 A 
ATOM     18  C   UNL     1       1.360   8.833  20.891  0.00  0.00    +0.000 C 
ATOM     19  C   UNL     1       2.272   7.549  18.936  0.00  0.00    +0.000 A 
ATOM     20  C   UNL     1       2.571   6.351  18.285  0.00  0.00    +0.000 A 
ENDBRANCH  11  14
ENDBRANCH   1  11
BRANCH   1  21
ATOM     21  C   UNL     1       4.761   3.074  19.658  0.00  0.00    +0.000 C 
BRANCH  21  22
ATOM     22  C   UNL     1       4.973   1.649  20.095  0.00  0.00    +0.000 C 
ATOM     23  O   UNL     1       5.331   1.344  21.228  0.00  0.00    +0.000 OA
BRANCH  22  24
ATOM     24  O   UNL     1       4.613   0.709  19.193  0.00  0.00    +0.000 OA
ATOM     25  H   UNL     1       4.935   0.930  18.298  0.00  0.00    +0.000 HD
ENDBRANCH  22  24
ENDBRANCH  21  22
ENDBRANCH   1  21
TORSDOF 7
ENDMDL
MODEL 3
REMARK VINA RESULT:      -7.4      3.098      4.518
REMARK  Name = 
REMARK  10 active torsions:
REMARK  status: ('A' for Active; 'I' for Inactive)
REMARK    1  A    between atoms: C_1  and  O_2
REMARK    2  A    between atoms: O_2  and  C_3
REMARK    3  A    between atoms: C_6  and  C_7
REMARK    4  A    between atoms: C_9  and  N_10
REMARK    5  A    between atoms: N_10  and  C_11
REMARK    6  A    between atoms: N_10  and  S_15
REMARK    7  A    between atoms: C_11  and  C_12
REMARK    8  A    between atoms: C_12  and  O_14
REMARK    9  A    between atoms: S_15  and  C_18
REMARK   10  A    between atoms: C_21  and  C_22
REMARK                            x       y       z     vdW  Elec       q    Type
REMARK                         _______ _______ _______ _____ _____    ______ ____
ROOT
ATOM      1  N   UNL     1       3.245   4.593  18.768  0.00  0.00    +0.000 N 
ENDROOT
BRANCH   1   8
ATOM      2  C   UNL     1       2.070   5.981  20.537  0.00  0.00    +0.000 A 
ATOM      3  C   UNL     1       1.550   7.244  20.871  0.00  0.00    +0.000 A 
ATOM      4  C   UNL     1       1.553   8.296  19.953  0.00  0.00    +0.000 A 
ATOM      5  C   UNL     1       2.048   8.108  18.665  0.00  0.00    +0.000 A 
ATOM      6  C   UNL     1       2.098   9.237  17.684  0.00  0.00    +0.000 C 
ATOM      7  C   UNL     1       2.557   6.850  18.323  0.00  0.00    +0.000 A 
ATOM      8  C   UNL     1       2.618   5.798  19.259  0.00  0.00    +0.000 A 
BRANCH   2  10
ATOM      9  C   UNL     1       1.252   3.825  21.064  0.00  0.00    +0.000 C 
ATOM     10  O   UNL     1       2.095   4.928  21.413  0.00  0.00    +0.000 OA
ENDBRANCH   2  10
ENDBRANCH   1   8
BRANCH   1  11
ATOM     11  S   UNL     1       4.960   4.545  18.823  0.00  0.00    +0.000 S 
ATOM     12  O   UNL     1       5.452   5.722  19.507  0.00  0.00    +0.000 OA
ATOM     13  O   UNL     1       5.325   3.221  19.307  0.00  0.00    +0.000 OA
BRANCH  11  14
ATOM     14  C   UNL     1       5.498   4.623  17.126  0.00  0.00    +0.000 A 
ATOM     15  C   UNL     1       5.795   3.450  16.430  0.00  0.00    +0.000 A 
ATOM     16  C   UNL     1       6.212   3.523  15.097  0.00  0.00    +0.000 A 
ATOM     17  C   UNL     1       6.319   4.762  14.448  0.00  0.00    +0.000 A 
ATOM     18  C   UNL     1       6.823   4.856  13.037  0.00  0.00    +0.000 C 
ATOM     19  C   UNL     1       5.965   5.926  15.139  0.00  0.00    +0.000 A 
ATOM     20  C   UNL     1       5.537   5.859  16.466  0.00  0.00    +0.000 A 
ENDBRANCH  11  14
ENDBRANCH   1  11
BRANCH   1  21
ATOM     21  C   UNL     1       2.650   3.811  17.656  0.00  0.00    +0.000 C 
BRANCH  21  22
ATOM     22  C   UNL     1       2.162   2.408  17.901  0.00  0.00    +0.000 C 
ATOM     23  O   UNL     1       0.975   2.127  18.031  0.00  0.00    +0.000 OA
BRANCH  22  24
ATOM     24  O   UNL     1       3.111   1.447  17.836  0.00  0.00    +0.000 OA
ATOM     25  H   UNL     1       3.154   0.930  18.664  0.00  0.00    +0.000 HD
ENDBRANCH  22  24
ENDBRANCH  21  22
ENDBRANCH   1  21
TORSDOF 7
ENDMDL
MODEL 4
REMARK VINA RESULT:      -7.3      3.145      4.286
REMARK  Name = 
REMARK  10 active torsions:
REMARK  status: ('A' for Active; 'I' for Inactive)
REMARK    1  A    between atoms: C_1  and  O_2
REMARK    2  A    between atoms: O_2  and  C_3
REMARK    3  A    between atoms: C_6  and  C_7
REMARK    4  A    between atoms: C_9  and  N_10
REMARK    5  A    between atoms: N_10  and  C_11
REMARK    6  A    between atoms: N_10  and  S_15
REMARK    7  A    between atoms: C_11  and  C_12
REMARK    8  A    between atoms: C_12  and  O_14
REMARK    9  A    between atoms: S_15  and  C_18
REMARK   10  A    between atoms: C_21  and  C_22
REMARK                            x       y       z     vdW  Elec       q    Type
REMARK                         _______ _______ _______ _____ _____    ______ ____
ROOT
ATOM      1  N   UNL     1       3.399   4.531  18.796  0.00  0.00    +0.000 N 
ENDROOT
BRANCH   1   8
ATOM      2  C   UNL     1       2.093   5.838  20.534  0.00  0.00    +0.000 A 
ATOM      3  C   UNL     1       1.509   7.072  20.868  0.00  0.00    +0.000 A 
ATOM      4  C   UNL     1       1.511   8.141  19.970  0.00  0.00    +0.000 A 
ATOM      5  C   UNL     1       2.068   7.998  18.701  0.00  0.00    +0.000 A 
ATOM      6  C   UNL     1       2.117   9.147  17.744  0.00  0.00    +0.000 C 
ATOM      7  C   UNL     1       2.642   6.768  18.361  0.00  0.00    +0.000 A 
ATOM      8  C   UNL     1       2.704   5.701  19.279  0.00  0.00    +0.000 A 
BRANCH   2  10
ATOM      9  C   UNL     1       1.257   3.683  21.041  0.00  0.00    +0.000 C 
ATOM     10  O   UNL     1       2.121   4.770  21.392  0.00  0.00    +0.000 OA
ENDBRANCH   2  10
ENDBRANCH   1   8
BRANCH   1  11
ATOM     11  S   UNL     1       5.110   4.543  18.939  0.00  0.00    +0.000 S 
ATOM     12  O   UNL     1       5.522   5.722  19.671  0.00  0.00    +0.000 OA
ATOM     13  O   UNL     1       5.497   3.223  19.416  0.00  0.00    +0.000 OA
BRANCH  11  14
ATOM     14  C   UNL     1       5.732   4.676  17.275  0.00  0.00    +0.000 A 
ATOM     15  C   UNL     1       4.879   5.048  16.235  0.00  0.00    +0.000 A 
ATOM     16  C   UNL     1       5.379   5.154  14.933  0.00  0.00    +0.000 A 
ATOM     17  C   UNL     1       6.734   4.904  14.666  0.00  0.00    +0.000 A 
ATOM     18  C   UNL     1       7.268   4.955  13.263  0.00  0.00    +0.000 C 
ATOM     19  C   UNL     1       7.591   4.586  15.725  0.00  0.00    +0.000 A 
ATOM     20  C   UNL     1       7.099   4.491  17.028  0.00  0.00    +0.000 A 
ENDBRANCH  11  14
ENDBRANCH   1  11
BRANCH   1  21
ATOM     21  C   UNL     1       2.891   3.755  17.636  0.00  0.00    +0.000 C 
BRANCH  21  22
ATOM     22  C   UNL     1       2.585   2.289  17.791  0.00  0.00    +0.000 C 
ATOM     23  O   UNL     1       3.457   1.427  17.837  0.00  0.00    +0.000 OA
BRANCH  22  24
ATOM     24  O   UNL     1       1.286   1.990  18.012  0.00  0.00    +0.000 OA
ATOM     25  H   UNL     1       0.916   2.523  18.742  0.00  0.00    +0.000 HD
ENDBRANCH  22  24
ENDBRANCH  21  22
ENDBRANCH   1  21
TORSDOF 7
ENDMDL
MODEL 5
REMARK VINA RESULT:      -7.0      2.669      5.023
REMARK  Name = 
REMARK  10 active torsions:
REMARK  status: ('A' for Active; 'I' for Inactive)
REMARK    1  A    between atoms: C_1  and  O_2
REMARK    2  A    between atoms: O_2  and  C_3
REMARK    3  A    between atoms: C_6  and  C_7
REMARK    4  A    between atoms: C_9  and  N_10
REMARK    5  A    between atoms: N_10  and  C_11
REMARK    6  A    between atoms: N_10  and  S_15
REMARK    7  A    between atoms: C_11  and  C_12
REMARK    8  A    between atoms: C_12  and  O_14
REMARK    9  A    between atoms: S_15  and  C_18
REMARK   10  A    between atoms: C_21  and  C_22
REMARK                            x       y       z     vdW  Elec       q    Type
REMARK                         _______ _______ _______ _____ _____    ______ ____
ROOT
ATOM      1  N   UNL     1       5.594   5.689  18.225  0.00  0.00    +0.000 N 
ENDROOT
BRANCH   1   8
ATOM      2  C   UNL     1       3.292   5.507  19.277  0.00  0.00    +0.000 A 
ATOM      3  C   UNL     1       2.207   4.662  19.565  0.00  0.00    +0.000 A 
ATOM      4  C   UNL     1       2.244   3.301  19.254  0.00  0.00    +0.000 A 
ATOM      5  C   UNL     1       3.379   2.739  18.674  0.00  0.00    +0.000 A 
ATOM      6  C   UNL     1       3.418   1.293  18.294  0.00  0.00    +0.000 C 
ATOM      7  C   UNL     1       4.467   3.575  18.395  0.00  0.00    +0.000 A 
ATOM      8  C   UNL     1       4.419   4.960  18.645  0.00  0.00    +0.000 A 
BRANCH   2  10
ATOM      9  C   UNL     1       2.019   7.388  19.939  0.00  0.00    +0.000 C 
ATOM     10  O   UNL     1       3.289   6.848  19.558  0.00  0.00    +0.000 OA
ENDBRANCH   2  10
ENDBRANCH   1   8
BRANCH   1  11
ATOM     11  S   UNL     1       5.430   6.659  16.818  0.00  0.00    +0.000 S 
ATOM     12  O   UNL     1       4.060   7.110  16.702  0.00  0.00    +0.000 OA
ATOM     13  O   UNL     1       6.512   7.634  16.858  0.00  0.00    +0.000 OA
BRANCH  11  14
ATOM     14  C   UNL     1       5.779   5.579  15.445  0.00  0.00    +0.000 A 
ATOM     15  C   UNL     1       7.033   5.606  14.832  0.00  0.00    +0.000 A 
ATOM     16  C   UNL     1       7.297   4.750  13.758  0.00  0.00    +0.000 A 
ATOM     17  C   UNL     1       6.319   3.853  13.302  0.00  0.00    +0.000 A 
ATOM     18  C   UNL     1       6.571   2.973  12.111  0.00  0.00    +0.000 C 
ATOM     19  C   UNL     1       5.086   3.795  13.960  0.00  0.00    +0.000 A 
ATOM     20  C   UNL     1       4.820   4.640  15.041  0.00  0.00    +0.000 A 
ENDBRANCH  11  14
ENDBRANCH   1  11
BRANCH   1  21
ATOM     21  C   UNL     1       6.957   5.139  18.430  0.00  0.00    +0.000 C 
BRANCH  21  22
ATOM     22  C   UNL     1       7.929   5.856  19.329  0.00  0.00    +0.000 C 
ATOM     23  O   UNL     1       8.460   6.919  19.025  0.00  0.00    +0.000 OA
BRANCH  22  24
ATOM     24  O   UNL     1       8.079   5.321  20.561  0.00  0.00    +0.000 OA
ATOM     25  H   UNL     1       8.297   4.369  20.513  0.00  0.00    +0.000 HD
ENDBRANCH  22  24
ENDBRANCH  21  22
ENDBRANCH   1  21
TORSDOF 7
ENDMDL
MODEL 6
REMARK VINA RESULT:      -7.0      6.397      8.673
REMARK  Name = 
REMARK  10 active torsions:
REMARK  status: ('A' for Active; 'I' for Inactive)
REMARK    1  A    between atoms: C_1  and  O_2
REMARK    2  A    between atoms: O_2  and  C_3
REMARK    3  A    between atoms: C_6  and  C_7
REMARK    4  A    between atoms: C_9  and  N_10
REMARK    5  A    between atoms: N_10  and  C_11
REMARK    6  A    between atoms: N_10  and  S_15
REMARK    7  A    between atoms: C_11  and  C_12
REMARK    8  A    between atoms: C_12  and  O_14
REMARK    9  A    between atoms: S_15  and  C_18
REMARK   10  A    between atoms: C_21  and  C_22
REMARK                            x       y       z     vdW  Elec       q    Type
REMARK                         _______ _______ _______ _____ _____    ______ ____
ROOT
ATOM      1  N   UNL     1       0.405  10.918  19.492  0.00  0.00    +0.000 N 
ENDROOT
BRANCH   1   8
ATOM      2  C   UNL     1      -1.957  11.834  19.630  0.00  0.00    +0.000 A 
ATOM      3  C   UNL     1      -3.208  11.932  18.996  0.00  0.00    +0.000 A 
ATOM      4  C   UNL     1      -3.462  11.279  17.788  0.00  0.00    +0.000 A 
ATOM      5  C   UNL     1      -2.484  10.484  17.195  0.00  0.00    +0.000 A 
ATOM      6  C   UNL     1      -2.725   9.813  15.880  0.00  0.00    +0.000 C 
ATOM      7  C   UNL     1      -1.240  10.375  17.828  0.00  0.00    +0.000 A 
ATOM      8  C   UNL     1      -0.949  11.078  19.013  0.00  0.00    +0.000 A 
BRANCH   2  10
ATOM      9  C   UNL     1      -2.741  13.228  21.374  0.00  0.00    +0.000 C 
ATOM     10  O   UNL     1      -1.667  12.468  20.809  0.00  0.00    +0.000 OA
ENDBRANCH   2  10
ENDBRANCH   1   8
BRANCH   1  11
ATOM     11  S   UNL     1       0.666   9.676  20.648  0.00  0.00    +0.000 S 
ATOM     12  O   UNL     1       1.476  10.192  21.732  0.00  0.00    +0.000 OA
ATOM     13  O   UNL     1      -0.637   9.092  20.932  0.00  0.00    +0.000 OA
BRANCH  11  14
ATOM     14  C   UNL     1       1.603   8.420  19.802  0.00  0.00    +0.000 A 
ATOM     15  C   UNL     1       1.848   7.192  20.418  0.00  0.00    +0.000 A 
ATOM     16  C   UNL     1       2.581   6.212  19.742  0.00  0.00    +0.000 A 
ATOM     17  C   UNL     1       3.058   6.444  18.444  0.00  0.00    +0.000 A 
ATOM     18  C   UNL     1       3.898   5.422  17.733  0.00  0.00    +0.000 C 
ATOM     19  C   UNL     1       2.759   7.657  17.814  0.00  0.00    +0.000 A 
ATOM     20  C   UNL     1       2.018   8.636  18.480  0.00  0.00    +0.000 A 
ENDBRANCH  11  14
ENDBRANCH   1  11
BRANCH   1  21
ATOM     21  C   UNL     1       1.317  12.082  19.632  0.00  0.00    +0.000 C 
BRANCH  21  22
ATOM     22  C   UNL     1       1.447  13.072  18.506  0.00  0.00    +0.000 C 
ATOM     23  O   UNL     1       0.991  14.210  18.562  0.00  0.00    +0.000 OA
BRANCH  22  24
ATOM     24  O   UNL     1       2.221  12.674  17.473  0.00  0.00    +0.000 OA
ATOM     25  H   UNL     1       2.209  11.702  17.371  0.00  0.00    +0.000 HD
ENDBRANCH  22  24
ENDBRANCH  21  22
ENDBRANCH   1  21
TORSDOF 7
ENDMDL
MODEL 7
REMARK VINA RESULT:      -7.0      0.996      2.405
REMARK  Name = 
REMARK  10 active torsions:
REMARK  status: ('A' for Active; 'I' for Inactive)
REMARK    1  A    between atoms: C_1  and  O_2
REMARK    2  A    between atoms: O_2  and  C_3
REMARK    3  A    between atoms: C_6  and  C_7
REMARK    4  A    between atoms: C_9  and  N_10
REMARK    5  A    between atoms: N_10  and  C_11
REMARK    6  A    between atoms: N_10  and  S_15
REMARK    7  A    between atoms: C_11  and  C_12
REMARK    8  A    between atoms: C_12  and  O_14
REMARK    9  A    between atoms: S_15  and  C_18
REMARK   10  A    between atoms: C_21  and  C_22
REMARK                            x       y       z     vdW  Elec       q    Type
REMARK                         _______ _______ _______ _____ _____    ______ ____
ROOT
ATOM      1  N   UNL     1       5.572   4.779  16.767  0.00  0.00    +0.000 N 
ENDROOT
BRANCH   1   8
ATOM      2  C   UNL     1       3.454   5.839  17.676  0.00  0.00    +0.000 A 
ATOM      3  C   UNL     1       2.166   5.612  18.192  0.00  0.00    +0.000 A 
ATOM      4  C   UNL     1       1.689   4.317  18.408  0.00  0.00    +0.000 A 
ATOM      5  C   UNL     1       2.496   3.213  18.144  0.00  0.00    +0.000 A 
ATOM      6  C   UNL     1       1.984   1.820  18.328  0.00  0.00    +0.000 C 
ATOM      7  C   UNL     1       3.783   3.435  17.639  0.00  0.00    +0.000 A 
ATOM      8  C   UNL     1       4.254   4.732  17.357  0.00  0.00    +0.000 A 
BRANCH   2  10
ATOM      9  C   UNL     1       3.061   8.171  17.742  0.00  0.00    +0.000 C 
ATOM     10  O   UNL     1       3.953   7.093  17.440  0.00  0.00    +0.000 OA
ENDBRANCH   2  10
ENDBRANCH   1   8
BRANCH   1  11
ATOM     11  S   UNL     1       6.898   4.785  17.856  0.00  0.00    +0.000 S 
ATOM     12  O   UNL     1       6.446   4.370  19.167  0.00  0.00    +0.000 OA
ATOM     13  O   UNL     1       7.978   4.060  17.201  0.00  0.00    +0.000 OA
BRANCH  11  14
ATOM     14  C   UNL     1       7.427   6.483  17.962  0.00  0.00    +0.000 A 
ATOM     15  C   UNL     1       6.863   7.447  17.125  0.00  0.00    +0.000 A 
ATOM     16  C   UNL     1       7.282   8.777  17.221  0.00  0.00    +0.000 A 
ATOM     17  C   UNL     1       8.253   9.155  18.160  0.00  0.00    +0.000 A 
ATOM     18  C   UNL     1       8.754  10.569  18.230  0.00  0.00    +0.000 C 
ATOM     19  C   UNL     1       8.771   8.191  19.032  0.00  0.00    +0.000 A 
ATOM     20  C   UNL     1       8.347   6.863  18.949  0.00  0.00    +0.000 A 
ENDBRANCH  11  14
ENDBRANCH   1  11
BRANCH   1  21
ATOM     21  C   UNL     1       5.823   5.506  15.497  0.00  0.00    +0.000 C 
BRANCH  21  22
ATOM     22  C   UNL     1       6.642   4.860  14.412  0.00  0.00    +0.000 C 
ATOM     23  O   UNL     1       7.502   5.461  13.777  0.00  0.00    +0.000 OA
BRANCH  22  24
ATOM     24  O   UNL     1       6.463   3.528  14.269  0.00  0.00    +0.000 OA
ATOM     25  H   UNL     1       6.253   3.292  13.344  0.00  0.00    +0.000 HD
ENDBRANCH  22  24
ENDBRANCH  21  22
ENDBRANCH   1  21
TORSDOF 7
ENDMDL
MODEL 8
REMARK VINA RESULT:      -6.9      2.617      5.876
REMARK  Name = 
REMARK  10 active torsions:
REMARK  status: ('A' for Active; 'I' for Inactive)
REMARK    1  A    between atoms: C_1  and  O_2
REMARK    2  A    between atoms: O_2  and  C_3
REMARK    3  A    between atoms: C_6  and  C_7
REMARK    4  A    between atoms: C_9  and  N_10
REMARK    5  A    between atoms: N_10  and  C_11
REMARK    6  A    between atoms: N_10  and  S_15
REMARK    7  A    between atoms: C_11  and  C_12
REMARK    8  A    between atoms: C_12  and  O_14
REMARK    9  A    between atoms: S_15  and  C_18
REMARK   10  A    between atoms: C_21  and  C_22
REMARK                            x       y       z     vdW  Elec       q    Type
REMARK                         _______ _______ _______ _____ _____    ______ ____
ROOT
ATOM      1  N   UNL     1       4.450   3.519  18.258  0.00  0.00    +0.000 N 
ENDROOT
BRANCH   1   8
ATOM      2  C   UNL     1       6.194   5.200  17.503  0.00  0.00    +0.000 A 
ATOM      3  C   UNL     1       6.955   5.685  16.426  0.00  0.00    +0.000 A 
ATOM      4  C   UNL     1       6.790   5.179  15.135  0.00  0.00    +0.000 A 
ATOM      5  C   UNL     1       5.837   4.196  14.878  0.00  0.00    +0.000 A 
ATOM      6  C   UNL     1       5.678   3.612  13.509  0.00  0.00    +0.000 C 
ATOM      7  C   UNL     1       5.069   3.717  15.946  0.00  0.00    +0.000 A 
ATOM      8  C   UNL     1       5.270   4.173  17.264  0.00  0.00    +0.000 A 
BRANCH   2  10
ATOM      9  C   UNL     1       7.683   5.917  19.197  0.00  0.00    +0.000 C 
ATOM     10  O   UNL     1       6.336   5.663  18.785  0.00  0.00    +0.000 OA
ENDBRANCH   2  10
ENDBRANCH   1   8
BRANCH   1  11
ATOM     11  S   UNL     1       2.751   3.703  18.090  0.00  0.00    +0.000 S 
ATOM     12  O   UNL     1       2.427   3.923  16.697  0.00  0.00    +0.000 OA
ATOM     13  O   UNL     1       2.140   2.594  18.809  0.00  0.00    +0.000 OA
BRANCH  11  14
ATOM     14  C   UNL     1       2.335   5.178  18.998  0.00  0.00    +0.000 A 
ATOM     15  C   UNL     1       2.569   6.436  18.440  0.00  0.00    +0.000 A 
ATOM     16  C   UNL     1       2.233   7.586  19.160  0.00  0.00    +0.000 A 
ATOM     17  C   UNL     1       1.648   7.489  20.431  0.00  0.00    +0.000 A 
ATOM     18  C   UNL     1       1.340   8.718  21.238  0.00  0.00    +0.000 C 
ATOM     19  C   UNL     1       1.366   6.223  20.957  0.00  0.00    +0.000 A 
ATOM     20  C   UNL     1       1.689   5.071  20.238  0.00  0.00    +0.000 A 
ENDBRANCH  11  14
ENDBRANCH   1  11
BRANCH   1  21
ATOM     21  C   UNL     1       4.911   3.371  19.661  0.00  0.00    +0.000 C 
BRANCH  21  22
ATOM     22  C   UNL     1       4.578   2.121  20.432  0.00  0.00    +0.000 C 
ATOM     23  O   UNL     1       5.257   1.101  20.375  0.00  0.00    +0.000 OA
BRANCH  22  24
ATOM     24  O   UNL     1       3.550   2.236  21.301  0.00  0.00    +0.000 OA
ATOM     25  H   UNL     1       3.139   1.368  21.486  0.00  0.00    +0.000 HD
ENDBRANCH  22  24
ENDBRANCH  21  22
ENDBRANCH   1  21
TORSDOF 7
ENDMDL
MODEL 9
REMARK VINA RESULT:      -6.9      2.816      4.408
REMARK  Name = 
REMARK  10 active torsions:
REMARK  status: ('A' for Active; 'I' for Inactive)
REMARK    1  A    between atoms: C_1  and  O_2
REMARK    2  A    between atoms: O_2  and  C_3
REMARK    3  A    between atoms: C_6  and  C_7
REMARK    4  A    between atoms: C_9  and  N_10
REMARK    5  A    between atoms: N_10  and  C_11
REMARK    6  A    between atoms: N_10  and  S_15
REMARK    7  A    between atoms: C_11  and  C_12
REMARK    8  A    between atoms: C_12  and  O_14
REMARK    9  A    between atoms: S_15  and  C_18
REMARK   10  A    between atoms: C_21  and  C_22
REMARK                            x       y       z     vdW  Elec       q    Type
REMARK                         _______ _______ _______ _____ _____    ______ ____
ROOT
ATOM      1  N   UNL     1       4.341   5.348  18.699  0.00  0.00    +0.000 N 
ENDROOT
BRANCH   1   8
ATOM      2  C   UNL     1       2.420   5.946  20.243  0.00  0.00    +0.000 A 
ATOM      3  C   UNL     1       1.456   6.910  20.585  0.00  0.00    +0.000 A 
ATOM      4  C   UNL     1       1.317   8.089  19.849  0.00  0.00    +0.000 A 
ATOM      5  C   UNL     1       2.116   8.323  18.732  0.00  0.00    +0.000 A 
ATOM      6  C   UNL     1       2.009   9.600  17.960  0.00  0.00    +0.000 C 
ATOM      7  C   UNL     1       3.070   7.361  18.382  0.00  0.00    +0.000 A 
ATOM      8  C   UNL     1       3.264   6.197  19.152  0.00  0.00    +0.000 A 
BRANCH   2  10
ATOM      9  C   UNL     1       1.507   3.854  20.868  0.00  0.00    +0.000 C 
ATOM     10  O   UNL     1       2.593   4.783  20.947  0.00  0.00    +0.000 OA
ENDBRANCH   2  10
ENDBRANCH   1   8
BRANCH   1  11
ATOM     11  S   UNL     1       3.923   4.109  17.587  0.00  0.00    +0.000 S 
ATOM     12  O   UNL     1       4.266   2.821  18.152  0.00  0.00    +0.000 OA
ATOM     13  O   UNL     1       2.554   4.372  17.166  0.00  0.00    +0.000 OA
BRANCH  11  14
ATOM     14  C   UNL     1       4.948   4.380  16.155  0.00  0.00    +0.000 A 
ATOM     15  C   UNL     1       5.230   5.678  15.730  0.00  0.00    +0.000 A 
ATOM     16  C   UNL     1       6.039   5.879  14.608  0.00  0.00    +0.000 A 
ATOM     17  C   UNL     1       6.584   4.788  13.915  0.00  0.00    +0.000 A 
ATOM     18  C   UNL     1       7.404   4.990  12.673  0.00  0.00    +0.000 C 
ATOM     19  C   UNL     1       6.341   3.492  14.384  0.00  0.00    +0.000 A 
ATOM     20  C   UNL     1       5.542   3.286  15.511  0.00  0.00    +0.000 A 
ENDBRANCH  11  14
ENDBRANCH   1  11
BRANCH   1  21
ATOM     21  C   UNL     1       5.483   5.010  19.586  0.00  0.00    +0.000 C 
BRANCH  21  22
ATOM     22  C   UNL     1       6.840   5.607  19.322  0.00  0.00    +0.000 C 
ATOM     23  O   UNL     1       7.085   6.301  18.341  0.00  0.00    +0.000 OA
BRANCH  22  24
ATOM     24  O   UNL     1       7.746   5.440  20.311  0.00  0.00    +0.000 OA
ATOM     25  H   UNL     1       8.500   4.894  20.017  0.00  0.00    +0.000 HD
ENDBRANCH  22  24
ENDBRANCH  21  22
ENDBRANCH   1  21
TORSDOF 7
ENDMDL
