MODEL 1
REMARK VINA RESULT:      -8.6      0.000      0.000
REMARK  Name = 
REMARK  8 active torsions:
REMARK  status: ('A' for Active; 'I' for Inactive)
REMARK    1  A    between atoms: C_1  and  O_2
REMARK    2  A    between atoms: O_2  and  C_3
REMARK    3  A    between atoms: C_6  and  C_7
REMARK    4  A    between atoms: C_9  and  O_10
REMARK    5  A    between atoms: C_11  and  N_12
REMARK    6  A    between atoms: C_14  and  C_15
REMARK    7  A    between atoms: N_21  and  C_22
REMARK    8  A    between atoms: C_22  and  C_23
REMARK                            x       y       z     vdW  Elec       q    Type
REMARK                         _______ _______ _______ _____ _____    ______ ____
ROOT
ATOM      1  C   UNL     1       3.699   6.360  17.734  0.00  0.00    +0.000 C 
ATOM      2  C   UNL     1       4.304   7.210  16.592  0.00  0.00    +0.000 C 
ATOM      3  C   UNL     1       5.563   6.609  15.954  0.00  0.00    +0.000 C 
ATOM      4  C   UNL     1       6.553   6.081  17.000  0.00  0.00    +0.000 C 
ATOM      5  C   UNL     1       5.811   5.182  18.021  0.00  0.00    +0.000 C 
ATOM      6  N   UNL     1       4.712   5.881  18.719  0.00  0.00    +0.000 NA
ENDROOT
BRANCH   1  10
ATOM      7  C   UNL     1       1.107   9.034  19.906  0.00  0.00    +0.000 A 
ATOM      8  C   UNL     1       1.519   7.837  20.496  0.00  0.00    +0.000 A 
ATOM      9  C   UNL     1       2.284   6.913  19.778  0.00  0.00    +0.000 A 
ATOM     10  C   UNL     1       2.623   7.184  18.450  0.00  0.00    +0.000 A 
ATOM     11  C   UNL     1       2.095   8.323  17.828  0.00  0.00    +0.000 A 
ATOM     12  C   UNL     1       1.354   9.249  18.556  0.00  0.00    +0.000 A 
BRANCH   7  14
ATOM     13  C   UNL     1       0.189   9.424  22.041  0.00  0.00    +0.000 C 
ATOM     14  O   UNL     1       0.457   9.914  20.729  0.00  0.00    +0.000 OA
ENDBRANCH   7  14
ENDBRANCH   1  10
BRANCH   4  15
ATOM     15  N   UNL     1       7.338   7.119  17.652  0.00  0.00    +0.000 N 
ATOM     16  C   UNL     1       7.317   8.458  17.393  0.00  0.00    +0.000 A 
ATOM     17  C   UNL     1       8.279   8.970  18.224  0.00  0.00    +0.000 A 
ATOM     18  N   UNL     1       8.784   7.975  19.006  0.00  0.00    +0.000 NA
ATOM     19  N   UNL     1       8.176   6.846  18.671  0.00  0.00    +0.000 NA
BRANCH  17  20
ATOM     20  C   UNL     1       8.722  10.410  18.256  0.00  0.00    +0.000 C 
ATOM     21  C   UNL     1       9.549  10.889  19.430  0.00  0.00    +0.000 C 
ATOM     22  C   UNL     1      10.204  10.689  18.107  0.00  0.00    +0.000 C 
ENDBRANCH  17  20
ENDBRANCH   4  15
BRANCH   3  23
ATOM     23  O   UNL     1       5.247   5.552  15.032  0.00  0.00    +0.000 OA
ATOM     24  H   UNL     1       4.290   5.407  15.029  0.00  0.00    +0.000 HD
ENDBRANCH   3  23
BRANCH   6  25
ATOM     25  C   UNL     1       4.094   5.051  19.796  0.00  0.00    +0.000 C 
BRANCH  25  26
ATOM     26  C   UNL     1       3.729   3.576  19.450  0.00  0.00    +0.000 C 
ATOM     27  C   UNL     1       3.123   2.722  20.574  0.00  0.00    +0.000 C 
ATOM     28  C   UNL     1       1.610   2.784  20.770  0.00  0.00    +0.000 C 
ATOM     29  C   UNL     1       0.771   2.766  19.505  0.00  0.00    +0.000 C 
ATOM     30  C   UNL     1       1.345   3.573  18.349  0.00  0.00    +0.000 C 
ATOM     31  C   UNL     1       2.865   3.487  18.174  0.00  0.00    +0.000 C 
ENDBRANCH  25  26
ENDBRANCH   6  25
TORSDOF 7
ENDMDL
MODEL 2
REMARK VINA RESULT:      -7.8      5.324      9.935
REMARK  Name = 
REMARK  8 active torsions:
REMARK  status: ('A' for Active; 'I' for Inactive)
REMARK    1  A    between atoms: C_1  and  O_2
REMARK    2  A    between atoms: O_2  and  C_3
REMARK    3  A    between atoms: C_6  and  C_7
REMARK    4  A    between atoms: C_9  and  O_10
REMARK    5  A    between atoms: C_11  and  N_12
REMARK    6  A    between atoms: C_14  and  C_15
REMARK    7  A    between atoms: N_21  and  C_22
REMARK    8  A    between atoms: C_22  and  C_23
REMARK                            x       y       z     vdW  Elec       q    Type
REMARK                         _______ _______ _______ _____ _____    ______ ____
ROOT
ATOM      1  C   UNL     1       0.060  10.874  18.547  0.00  0.00    +0.000 C 
ATOM      2  C   UNL     1      -1.399  10.381  18.690  0.00  0.00    +0.000 C 
ATOM      3  C   UNL     1      -2.454  11.490  18.587  0.00  0.00    +0.000 C 
ATOM      4  C   UNL     1      -2.079  12.732  19.405  0.00  0.00    +0.000 C 
ATOM      5  C   UNL     1      -0.619  13.149  19.088  0.00  0.00    +0.000 C 
ATOM      6  N   UNL     1       0.363  12.081  19.369  0.00  0.00    +0.000 NA
ENDROOT
BRANCH   1  10
ATOM      7  C   UNL     1       2.309   7.304  19.431  0.00  0.00    +0.000 A 
ATOM      8  C   UNL     1       1.651   7.981  20.460  0.00  0.00    +0.000 A 
ATOM      9  C   UNL     1       0.992   9.189  20.214  0.00  0.00    +0.000 A 
ATOM     10  C   UNL     1       1.010   9.732  18.927  0.00  0.00    +0.000 A 
ATOM     11  C   UNL     1       1.781   9.115  17.934  0.00  0.00    +0.000 A 
ATOM     12  C   UNL     1       2.415   7.900  18.181  0.00  0.00    +0.000 A 
BRANCH   7  14
ATOM     13  C   UNL     1       1.982   5.265  20.567  0.00  0.00    +0.000 C 
ATOM     14  O   UNL     1       2.827   6.079  19.757  0.00  0.00    +0.000 OA
ENDBRANCH   7  14
ENDBRANCH   1  10
BRANCH   4  15
ATOM     15  N   UNL     1      -2.312  12.595  20.835  0.00  0.00    +0.000 N 
ATOM     16  C   UNL     1      -3.313  13.161  21.568  0.00  0.00    +0.000 A 
ATOM     17  C   UNL     1      -3.039  12.775  22.854  0.00  0.00    +0.000 A 
ATOM     18  N   UNL     1      -1.962  11.940  22.862  0.00  0.00    +0.000 NA
ATOM     19  N   UNL     1      -1.542  11.808  21.612  0.00  0.00    +0.000 NA
BRANCH  17  20
ATOM     20  C   UNL     1      -3.801  13.222  24.075  0.00  0.00    +0.000 C 
ATOM     21  C   UNL     1      -5.311  13.304  23.998  0.00  0.00    +0.000 C 
ATOM     22  C   UNL     1      -4.677  12.198  24.768  0.00  0.00    +0.000 C 
ENDBRANCH  17  20
ENDBRANCH   4  15
BRANCH   3  23
ATOM     23  O   UNL     1      -2.695  11.881  17.225  0.00  0.00    +0.000 OA
ATOM     24  H   UNL     1      -2.918  11.096  16.703  0.00  0.00    +0.000 HD
ENDBRANCH   3  23
BRANCH   6  25
ATOM     25  C   UNL     1       1.774  12.537  19.192  0.00  0.00    +0.000 C 
BRANCH  25  26
ATOM     26  C   UNL     1       2.048  14.071  19.239  0.00  0.00    +0.000 C 
ATOM     27  C   UNL     1       2.603  14.644  20.552  0.00  0.00    +0.000 C 
ATOM     28  C   UNL     1       4.117  14.623  20.747  0.00  0.00    +0.000 C 
ATOM     29  C   UNL     1       4.952  15.014  19.540  0.00  0.00    +0.000 C 
ATOM     30  C   UNL     1       4.425  14.495  18.209  0.00  0.00    +0.000 C 
ATOM     31  C   UNL     1       2.903  14.533  18.040  0.00  0.00    +0.000 C 
ENDBRANCH  25  26
ENDBRANCH   6  25
TORSDOF 7
ENDMDL
MODEL 3
REMARK VINA RESULT:      -7.7      0.834      1.418
REMARK  Name = 
REMARK  8 active torsions:
REMARK  status: ('A' for Active; 'I' for Inactive)
REMARK    1  A    between atoms: C_1  and  O_2
REMARK    2  A    between atoms: O_2  and  C_3
REMARK    3  A    between atoms: C_6  and  C_7
REMARK    4  A    between atoms: C_9  and  O_10
REMARK    5  A    between atoms: C_11  and  N_12
REMARK    6  A    between atoms: C_14  and  C_15
REMARK    7  A    between atoms: N_21  and  C_22
REMARK    8  A    between atoms: C_22  and  C_23
REMARK                            x       y       z     vdW  Elec       q    Type
REMARK                         _______ _______ _______ _____ _____    ______ ____
ROOT
ATOM      1  C   UNL     1       3.561   6.760  17.725  0.00  0.00    +0.000 C 
ATOM      2  C   UNL     1       4.328   7.504  16.606  0.00  0.00    +0.000 C 
ATOM      3  C   UNL     1       5.476   6.700  15.983  0.00  0.00    +0.000 C 
ATOM      4  C   UNL     1       6.338   5.997  17.040  0.00  0.00    +0.000 C 
ATOM      5  C   UNL     1       5.429   5.229  18.034  0.00  0.00    +0.000 C 
ATOM      6  N   UNL     1       4.454   6.102  18.721  0.00  0.00    +0.000 NA
ENDROOT
BRANCH   1  10
ATOM      7  C   UNL     1       0.513   9.176  19.585  0.00  0.00    +0.000 A 
ATOM      8  C   UNL     1       0.977   9.507  18.309  0.00  0.00    +0.000 A 
ATOM      9  C   UNL     1       2.027   8.794  17.724  0.00  0.00    +0.000 A 
ATOM     10  C   UNL     1       2.630   7.751  18.433  0.00  0.00    +0.000 A 
ATOM     11  C   UNL     1       2.247   7.515  19.759  0.00  0.00    +0.000 A 
ATOM     12  C   UNL     1       1.185   8.213  20.326  0.00  0.00    +0.000 A 
BRANCH   7  14
ATOM     13  C   UNL     1      -1.216  10.679  19.028  0.00  0.00    +0.000 C 
ATOM     14  O   UNL     1      -0.588   9.866  20.017  0.00  0.00    +0.000 OA
ENDBRANCH   7  14
ENDBRANCH   1  10
BRANCH   4  15
ATOM     15  N   UNL     1       7.277   6.875  17.720  0.00  0.00    +0.000 N 
ATOM     16  C   UNL     1       7.589   8.163  17.398  0.00  0.00    +0.000 A 
ATOM     17  C   UNL     1       8.562   8.503  18.300  0.00  0.00    +0.000 A 
ATOM     18  N   UNL     1       8.752   7.477  19.177  0.00  0.00    +0.000 NA
ATOM     19  N   UNL     1       7.933   6.493  18.834  0.00  0.00    +0.000 NA
BRANCH  17  20
ATOM     20  C   UNL     1       9.321   9.805  18.309  0.00  0.00    +0.000 C 
ATOM     21  C   UNL     1       8.542  11.099  18.198  0.00  0.00    +0.000 C 
ATOM     22  C   UNL     1       9.137  10.714  19.508  0.00  0.00    +0.000 C 
ENDBRANCH  17  20
ENDBRANCH   4  15
BRANCH   3  23
ATOM     23  O   UNL     1       5.000   5.723  15.041  0.00  0.00    +0.000 OA
ATOM     24  H   UNL     1       4.366   6.142  14.441  0.00  0.00    +0.000 HD
ENDBRANCH   3  23
BRANCH   6  25
ATOM     25  C   UNL     1       3.680   5.381  19.775  0.00  0.00    +0.000 C 
BRANCH  25  26
ATOM     26  C   UNL     1       3.176   3.944  19.444  0.00  0.00    +0.000 C 
ATOM     27  C   UNL     1       3.532   2.829  20.441  0.00  0.00    +0.000 C 
ATOM     28  C   UNL     1       2.590   2.614  21.623  0.00  0.00    +0.000 C 
ATOM     29  C   UNL     1       1.104   2.669  21.313  0.00  0.00    +0.000 C 
ATOM     30  C   UNL     1       0.704   3.738  20.306  0.00  0.00    +0.000 C 
ATOM     31  C   UNL     1       1.665   3.928  19.128  0.00  0.00    +0.000 C 
ENDBRANCH  25  26
ENDBRANCH   6  25
TORSDOF 7
ENDMDL
MODEL 4
REMARK VINA RESULT:      -7.7      4.578      8.395
REMARK  Name = 
REMARK  8 active torsions:
REMARK  status: ('A' for Active; 'I' for Inactive)
REMARK    1  A    between atoms: C_1  and  O_2
REMARK    2  A    between atoms: O_2  and  C_3
REMARK    3  A    between atoms: C_6  and  C_7
REMARK    4  A    between atoms: C_9  and  O_10
REMARK    5  A    between atoms: C_11  and  N_12
REMARK    6  A    between atoms: C_14  and  C_15
REMARK    7  A    between atoms: N_21  and  C_22
REMARK    8  A    between atoms: C_22  and  C_23
REMARK                            x       y       z     vdW  Elec       q    Type
REMARK                         _______ _______ _______ _____ _____    ______ ____
ROOT
ATOM      1  C   UNL     1      -0.627  10.420  20.154  0.00  0.00    +0.000 C 
ATOM      2  C   UNL     1      -1.153   9.109  20.783  0.00  0.00    +0.000 C 
ATOM      3  C   UNL     1      -0.288   8.562  21.925  0.00  0.00    +0.000 C 
ATOM      4  C   UNL     1       1.209   8.596  21.592  0.00  0.00    +0.000 C 
ATOM      5  C   UNL     1       1.596   9.998  21.054  0.00  0.00    +0.000 C 
ATOM      6  N   UNL     1       0.833  10.389  19.851  0.00  0.00    +0.000 NA
ENDROOT
BRANCH   1  10
ATOM      7  C   UNL     1      -3.254  10.867  16.765  0.00  0.00    +0.000 A 
ATOM      8  C   UNL     1      -2.132  10.040  16.668  0.00  0.00    +0.000 A 
ATOM      9  C   UNL     1      -1.216   9.951  17.722  0.00  0.00    +0.000 A 
ATOM     10  C   UNL     1      -1.420  10.712  18.875  0.00  0.00    +0.000 A 
ATOM     11  C   UNL     1      -2.473  11.635  18.909  0.00  0.00    +0.000 A 
ATOM     12  C   UNL     1      -3.392  11.701  17.867  0.00  0.00    +0.000 A 
BRANCH   7  14
ATOM     13  C   UNL     1      -3.631  10.180  14.542  0.00  0.00    +0.000 C 
ATOM     14  O   UNL     1      -4.139  10.796  15.723  0.00  0.00    +0.000 OA
ENDBRANCH   7  14
ENDBRANCH   1  10
BRANCH   4  15
ATOM     15  N   UNL     1       1.645   7.529  20.704  0.00  0.00    +0.000 N 
ATOM     16  C   UNL     1       1.437   6.189  20.855  0.00  0.00    +0.000 A 
ATOM     17  C   UNL     1       2.101   5.630  19.795  0.00  0.00    +0.000 A 
ATOM     18  N   UNL     1       2.608   6.615  19.002  0.00  0.00    +0.000 NA
ATOM     19  N   UNL     1       2.293   7.780  19.550  0.00  0.00    +0.000 NA
BRANCH  17  20
ATOM     20  C   UNL     1       2.263   4.151  19.555  0.00  0.00    +0.000 C 
ATOM     21  C   UNL     1       1.098   3.235  19.865  0.00  0.00    +0.000 C 
ATOM     22  C   UNL     1       1.440   3.529  18.445  0.00  0.00    +0.000 C 
ENDBRANCH  17  20
ENDBRANCH   4  15
BRANCH   3  23
ATOM     23  O   UNL     1      -0.510   9.269  23.156  0.00  0.00    +0.000 OA
ATOM     24  H   UNL     1       0.295   9.747  23.399  0.00  0.00    +0.000 HD
ENDBRANCH   3  23
BRANCH   6  25
ATOM     25  C   UNL     1       1.308  11.676  19.261  0.00  0.00    +0.000 C 
BRANCH  25  26
ATOM     26  C   UNL     1       1.377  12.918  20.201  0.00  0.00    +0.000 C 
ATOM     27  C   UNL     1       2.723  13.654  20.294  0.00  0.00    +0.000 C 
ATOM     28  C   UNL     1       3.007  14.738  19.257  0.00  0.00    +0.000 C 
ATOM     29  C   UNL     1       1.853  15.670  18.931  0.00  0.00    +0.000 C 
ATOM     30  C   UNL     1       0.491  14.993  18.858  0.00  0.00    +0.000 C 
ATOM     31  C   UNL     1       0.232  13.913  19.914  0.00  0.00    +0.000 C 
ENDBRANCH  25  26
ENDBRANCH   6  25
TORSDOF 7
ENDMDL
MODEL 5
REMARK VINA RESULT:      -7.5      6.095     10.386
REMARK  Name = 
REMARK  8 active torsions:
REMARK  status: ('A' for Active; 'I' for Inactive)
REMARK    1  A    between atoms: C_1  and  O_2
REMARK    2  A    between atoms: O_2  and  C_3
REMARK    3  A    between atoms: C_6  and  C_7
REMARK    4  A    between atoms: C_9  and  O_10
REMARK    5  A    between atoms: C_11  and  N_12
REMARK    6  A    between atoms: C_14  and  C_15
REMARK    7  A    between atoms: N_21  and  C_22
REMARK    8  A    between atoms: C_22  and  C_23
REMARK                            x       y       z     vdW  Elec       q    Type
REMARK                         _______ _______ _______ _____ _____    ______ ____
ROOT
ATOM      1  C   UNL     1      -1.507  12.060  19.542  0.00  0.00    +0.000 C 
ATOM      2  C   UNL     1      -2.180  13.428  19.800  0.00  0.00    +0.000 C 
ATOM      3  C   UNL     1      -1.675  14.156  21.052  0.00  0.00    +0.000 C 
ATOM      4  C   UNL     1      -1.558  13.223  22.264  0.00  0.00    +0.000 C 
ATOM      5  C   UNL     1      -0.789  11.937  21.865  0.00  0.00    +0.000 C 
ATOM      6  N   UNL     1      -1.428  11.198  20.757  0.00  0.00    +0.000 NA
ENDROOT
BRANCH   1  10
ATOM      7  C   UNL     1      -3.474  10.429  16.069  0.00  0.00    +0.000 A 
ATOM      8  C   UNL     1      -4.208  11.174  16.995  0.00  0.00    +0.000 A 
ATOM      9  C   UNL     1      -3.613  11.635  18.174  0.00  0.00    +0.000 A 
ATOM     10  C   UNL     1      -2.275  11.330  18.433  0.00  0.00    +0.000 A 
ATOM     11  C   UNL     1      -1.587  10.473  17.564  0.00  0.00    +0.000 A 
ATOM     12  C   UNL     1      -2.179  10.038  16.382  0.00  0.00    +0.000 A 
BRANCH   7  14
ATOM     13  C   UNL     1      -3.276   9.989  13.762  0.00  0.00    +0.000 C 
ATOM     14  O   UNL     1      -4.122  10.121  14.903  0.00  0.00    +0.000 OA
ENDBRANCH   7  14
ENDBRANCH   1  10
BRANCH   4  15
ATOM     15  N   UNL     1      -2.828  12.924  22.908  0.00  0.00    +0.000 N 
ATOM     16  C   UNL     1      -4.004  13.603  22.775  0.00  0.00    +0.000 A 
ATOM     17  C   UNL     1      -4.855  12.960  23.635  0.00  0.00    +0.000 A 
ATOM     18  N   UNL     1      -4.223  11.887  24.188  0.00  0.00    +0.000 NA
ATOM     19  N   UNL     1      -2.988  11.852  23.709  0.00  0.00    +0.000 NA
BRANCH  17  20
ATOM     20  C   UNL     1      -6.269  13.386  23.938  0.00  0.00    +0.000 C 
ATOM     21  C   UNL     1      -7.002  14.237  22.922  0.00  0.00    +0.000 C 
ATOM     22  C   UNL     1      -7.374  12.804  23.081  0.00  0.00    +0.000 C 
ENDBRANCH  17  20
ENDBRANCH   4  15
BRANCH   3  23
ATOM     23  O   UNL     1      -0.407  14.796  20.829  0.00  0.00    +0.000 OA
ATOM     24  H   UNL     1      -0.038  15.078  21.678  0.00  0.00    +0.000 HD
ENDBRANCH   3  23
BRANCH   6  25
ATOM     25  C   UNL     1      -0.759   9.894  20.473  0.00  0.00    +0.000 C 
BRANCH  25  26
ATOM     26  C   UNL     1       0.796   9.845  20.573  0.00  0.00    +0.000 C 
ATOM     27  C   UNL     1       1.415   8.625  21.273  0.00  0.00    +0.000 C 
ATOM     28  C   UNL     1       1.682   7.384  20.424  0.00  0.00    +0.000 C 
ATOM     29  C   UNL     1       2.275   7.632  19.047  0.00  0.00    +0.000 C 
ATOM     30  C   UNL     1       1.716   8.849  18.324  0.00  0.00    +0.000 C 
ATOM     31  C   UNL     1       1.462  10.080  19.200  0.00  0.00    +0.000 C 
ENDBRANCH  25  26
ENDBRANCH   6  25
TORSDOF 7
ENDMDL
MODEL 6
REMARK VINA RESULT:      -7.5      4.205      8.018
REMARK  Name = 
REMARK  8 active torsions:
REMARK  status: ('A' for Active; 'I' for Inactive)
REMARK    1  A    between atoms: C_1  and  O_2
REMARK    2  A    between atoms: O_2  and  C_3
REMARK    3  A    between atoms: C_6  and  C_7
REMARK    4  A    between atoms: C_9  and  O_10
REMARK    5  A    between atoms: C_11  and  N_12
REMARK    6  A    between atoms: C_14  and  C_15
REMARK    7  A    between atoms: N_21  and  C_22
REMARK    8  A    between atoms: C_22  and  C_23
REMARK                            x       y       z     vdW  Elec       q    Type
REMARK                         _______ _______ _______ _____ _____    ______ ____
ROOT
ATOM      1  C   UNL     1      -0.648  10.400  20.089  0.00  0.00    +0.000 C 
ATOM      2  C   UNL     1      -1.162   9.084  20.719  0.00  0.00    +0.000 C 
ATOM      3  C   UNL     1      -0.308   8.563  21.883  0.00  0.00    +0.000 C 
ATOM      4  C   UNL     1       1.194   8.624  21.579  0.00  0.00    +0.000 C 
ATOM      5  C   UNL     1       1.565  10.028  21.036  0.00  0.00    +0.000 C 
ATOM      6  N   UNL     1       0.818  10.394  19.814  0.00  0.00    +0.000 NA
ENDROOT
BRANCH   1  10
ATOM      7  C   UNL     1      -3.223  10.776  16.652  0.00  0.00    +0.000 A 
ATOM      8  C   UNL     1      -2.102   9.945  16.590  0.00  0.00    +0.000 A 
ATOM      9  C   UNL     1      -1.203   9.878  17.659  0.00  0.00    +0.000 A 
ATOM     10  C   UNL     1      -1.421  10.665  18.792  0.00  0.00    +0.000 A 
ATOM     11  C   UNL     1      -2.473  11.590  18.791  0.00  0.00    +0.000 A 
ATOM     12  C   UNL     1      -3.376  11.635  17.733  0.00  0.00    +0.000 A 
BRANCH   7  14
ATOM     13  C   UNL     1      -3.534  10.154  14.400  0.00  0.00    +0.000 C 
ATOM     14  O   UNL     1      -4.093  10.685  15.599  0.00  0.00    +0.000 OA
ENDBRANCH   7  14
ENDBRANCH   1  10
BRANCH   4  15
ATOM     15  N   UNL     1       1.668   7.557  20.710  0.00  0.00    +0.000 N 
ATOM     16  C   UNL     1       2.392   7.685  19.561  0.00  0.00    +0.000 A 
ATOM     17  C   UNL     1       2.514   6.399  19.103  0.00  0.00    +0.000 A 
ATOM     18  N   UNL     1       1.954   5.539  19.999  0.00  0.00    +0.000 NA
ATOM     19  N   UNL     1       1.466   6.257  21.000  0.00  0.00    +0.000 NA
BRANCH  17  20
ATOM     20  C   UNL     1       3.153   6.000  17.797  0.00  0.00    +0.000 C 
ATOM     21  C   UNL     1       4.276   6.855  17.249  0.00  0.00    +0.000 C 
ATOM     22  C   UNL     1       4.591   5.524  17.839  0.00  0.00    +0.000 C 
ENDBRANCH  17  20
ENDBRANCH   4  15
BRANCH   3  23
ATOM     23  O   UNL     1      -0.568   9.277  23.104  0.00  0.00    +0.000 OA
ATOM     24  H   UNL     1      -1.462   9.067  23.412  0.00  0.00    +0.000 HD
ENDBRANCH   3  23
BRANCH   6  25
ATOM     25  C   UNL     1       1.280  11.684  19.222  0.00  0.00    +0.000 C 
BRANCH  25  26
ATOM     26  C   UNL     1       1.392  12.915  20.173  0.00  0.00    +0.000 C 
ATOM     27  C   UNL     1       2.720  13.687  20.166  0.00  0.00    +0.000 C 
ATOM     28  C   UNL     1       2.888  14.793  19.127  0.00  0.00    +0.000 C 
ATOM     29  C   UNL     1       1.685  15.696  18.911  0.00  0.00    +0.000 C 
ATOM     30  C   UNL     1       0.341  14.981  18.940  0.00  0.00    +0.000 C 
ATOM     31  C   UNL     1       0.201  13.880  19.996  0.00  0.00    +0.000 C 
ENDBRANCH  25  26
ENDBRANCH   6  25
TORSDOF 7
ENDMDL
MODEL 7
REMARK VINA RESULT:      -7.5      6.747     11.376
REMARK  Name = 
REMARK  8 active torsions:
REMARK  status: ('A' for Active; 'I' for Inactive)
REMARK    1  A    between atoms: C_1  and  O_2
REMARK    2  A    between atoms: O_2  and  C_3
REMARK    3  A    between atoms: C_6  and  C_7
REMARK    4  A    between atoms: C_9  and  O_10
REMARK    5  A    between atoms: C_11  and  N_12
REMARK    6  A    between atoms: C_14  and  C_15
REMARK    7  A    between atoms: N_21  and  C_22
REMARK    8  A    between atoms: C_22  and  C_23
REMARK                            x       y       z     vdW  Elec       q    Type
REMARK                         _______ _______ _______ _____ _____    ______ ____
ROOT
ATOM      1  C   UNL     1      -1.524  13.891  20.984  0.00  0.00    +0.000 C 
ATOM      2  C   UNL     1      -2.646  14.934  21.195  0.00  0.00    +0.000 C 
ATOM      3  C   UNL     1      -2.680  15.551  22.599  0.00  0.00    +0.000 C 
ATOM      4  C   UNL     1      -2.519  14.499  23.704  0.00  0.00    +0.000 C 
ATOM      5  C   UNL     1      -1.306  13.588  23.390  0.00  0.00    +0.000 C 
ATOM      6  N   UNL     1      -1.421  12.895  22.089  0.00  0.00    +0.000 NA
ENDROOT
BRANCH   1  10
ATOM      7  C   UNL     1      -1.999  11.383  17.510  0.00  0.00    +0.000 A 
ATOM      8  C   UNL     1      -0.879  12.211  17.618  0.00  0.00    +0.000 A 
ATOM      9  C   UNL     1      -0.749  13.100  18.690  0.00  0.00    +0.000 A 
ATOM     10  C   UNL     1      -1.760  13.170  19.652  0.00  0.00    +0.000 A 
ATOM     11  C   UNL     1      -2.936  12.432  19.463  0.00  0.00    +0.000 A 
ATOM     12  C   UNL     1      -3.048  11.534  18.407  0.00  0.00    +0.000 A 
BRANCH   7  14
ATOM     13  C   UNL     1      -3.228  10.261  15.841  0.00  0.00    +0.000 C 
ATOM     14  O   UNL     1      -1.974  10.477  16.483  0.00  0.00    +0.000 OA
ENDBRANCH   7  14
ENDBRANCH   1  10
BRANCH   4  15
ATOM     15  N   UNL     1      -3.726  13.732  23.975  0.00  0.00    +0.000 N 
ATOM     16  C   UNL     1      -4.985  13.979  23.512  0.00  0.00    +0.000 A 
ATOM     17  C   UNL     1      -5.752  13.014  24.110  0.00  0.00    +0.000 A 
ATOM     18  N   UNL     1      -4.954  12.177  24.831  0.00  0.00    +0.000 NA
ATOM     19  N   UNL     1      -3.706  12.606  24.715  0.00  0.00    +0.000 NA
BRANCH  17  20
ATOM     20  C   UNL     1      -7.251  12.906  24.002  0.00  0.00    +0.000 C 
ATOM     21  C   UNL     1      -7.915  13.299  22.699  0.00  0.00    +0.000 C 
ATOM     22  C   UNL     1      -7.812  11.858  23.063  0.00  0.00    +0.000 C 
ENDBRANCH  17  20
ENDBRANCH   4  15
BRANCH   3  23
ATOM     23  O   UNL     1      -1.675  16.565  22.767  0.00  0.00    +0.000 OA
ATOM     24  H   UNL     1      -1.481  16.668  23.710  0.00  0.00    +0.000 HD
ENDBRANCH   3  23
BRANCH   6  25
ATOM     25  C   UNL     1      -0.318  11.916  21.859  0.00  0.00    +0.000 C 
BRANCH  25  26
ATOM     26  C   UNL     1      -0.703  10.411  21.735  0.00  0.00    +0.000 C 
ATOM     27  C   UNL     1      -0.483   9.741  20.369  0.00  0.00    +0.000 C 
ATOM     28  C   UNL     1       0.897   9.151  20.087  0.00  0.00    +0.000 C 
ATOM     29  C   UNL     1       1.539   8.380  21.227  0.00  0.00    +0.000 C 
ATOM     30  C   UNL     1       1.324   8.987  22.606  0.00  0.00    +0.000 C 
ATOM     31  C   UNL     1      -0.071   9.567  22.862  0.00  0.00    +0.000 C 
ENDBRANCH  25  26
ENDBRANCH   6  25
TORSDOF 7
ENDMDL
MODEL 8
REMARK VINA RESULT:      -7.3      5.302      9.610
REMARK  Name = 
REMARK  8 active torsions:
REMARK  status: ('A' for Active; 'I' for Inactive)
REMARK    1  A    between atoms: C_1  and  O_2
REMARK    2  A    between atoms: O_2  and  C_3
REMARK    3  A    between atoms: C_6  and  C_7
REMARK    4  A    between atoms: C_9  and  O_10
REMARK    5  A    between atoms: C_11  and  N_12
REMARK    6  A    between atoms: C_14  and  C_15
REMARK    7  A    between atoms: N_21  and  C_22
REMARK    8  A    between atoms: C_22  and  C_23
REMARK                            x       y       z     vdW  Elec       q    Type
REMARK                         _______ _______ _______ _____ _____    ______ ____
ROOT
ATOM      1  C   UNL     1       0.247  10.770  18.157  0.00  0.00    +0.000 C 
ATOM      2  C   UNL     1      -1.218  10.279  18.084  0.00  0.00    +0.000 C 
ATOM      3  C   UNL     1      -2.233  11.369  17.719  0.00  0.00    +0.000 C 
ATOM      4  C   UNL     1      -1.996  12.672  18.493  0.00  0.00    +0.000 C 
ATOM      5  C   UNL     1      -0.502  13.074  18.401  0.00  0.00    +0.000 C 
ATOM      6  N   UNL     1       0.412  12.037  18.926  0.00  0.00    +0.000 NA
ENDROOT
BRANCH   1  10
ATOM      7  C   UNL     1       2.273   7.294  19.707  0.00  0.00    +0.000 A 
ATOM      8  C   UNL     1       1.501   8.084  20.561  0.00  0.00    +0.000 A 
ATOM      9  C   UNL     1       0.910   9.265  20.103  0.00  0.00    +0.000 A 
ATOM     10  C   UNL     1       1.110   9.666  18.780  0.00  0.00    +0.000 A 
ATOM     11  C   UNL     1       1.992   8.938  17.970  0.00  0.00    +0.000 A 
ATOM     12  C   UNL     1       2.558   7.752  18.427  0.00  0.00    +0.000 A 
BRANCH   7  14
ATOM     13  C   UNL     1       3.674   5.419  19.428  0.00  0.00    +0.000 C 
ATOM     14  O   UNL     1       2.714   6.107  20.227  0.00  0.00    +0.000 OA
ENDBRANCH   7  14
ENDBRANCH   1  10
BRANCH   4  15
ATOM     15  N   UNL     1      -2.473  12.641  19.868  0.00  0.00    +0.000 N 
ATOM     16  C   UNL     1      -1.816  13.077  20.981  0.00  0.00    +0.000 A 
ATOM     17  C   UNL     1      -2.665  12.760  22.009  0.00  0.00    +0.000 A 
ATOM     18  N   UNL     1      -3.817  12.236  21.507  0.00  0.00    +0.000 NA
ATOM     19  N   UNL     1      -3.704  12.198  20.187  0.00  0.00    +0.000 NA
BRANCH  17  20
ATOM     20  C   UNL     1      -2.361  12.947  23.474  0.00  0.00    +0.000 C 
ATOM     21  C   UNL     1      -1.526  14.137  23.895  0.00  0.00    +0.000 C 
ATOM     22  C   UNL     1      -2.989  14.136  24.173  0.00  0.00    +0.000 C 
ENDBRANCH  17  20
ENDBRANCH   4  15
BRANCH   3  23
ATOM     23  O   UNL     1      -2.234  11.654  16.310  0.00  0.00    +0.000 OA
ATOM     24  H   UNL     1      -1.577  12.341  16.123  0.00  0.00    +0.000 HD
ENDBRANCH   3  23
BRANCH   6  25
ATOM     25  C   UNL     1       1.834  12.488  18.961  0.00  0.00    +0.000 C 
BRANCH  25  26
ATOM     26  C   UNL     1       2.103  14.017  19.105  0.00  0.00    +0.000 C 
ATOM     27  C   UNL     1       2.595  14.517  20.472  0.00  0.00    +0.000 C 
ATOM     28  C   UNL     1       4.098  14.484  20.737  0.00  0.00    +0.000 C 
ATOM     29  C   UNL     1       4.988  14.940  19.593  0.00  0.00    +0.000 C 
ATOM     30  C   UNL     1       4.526  14.496  18.212  0.00  0.00    +0.000 C 
ATOM     31  C   UNL     1       3.013  14.544  17.975  0.00  0.00    +0.000 C 
ENDBRANCH  25  26
ENDBRANCH   6  25
TORSDOF 7
ENDMDL
MODEL 9
REMARK VINA RESULT:      -7.3      5.287      9.853
REMARK  Name = 
REMARK  8 active torsions:
REMARK  status: ('A' for Active; 'I' for Inactive)
REMARK    1  A    between atoms: C_1  and  O_2
REMARK    2  A    between atoms: O_2  and  C_3
REMARK    3  A    between atoms: C_6  and  C_7
REMARK    4  A    between atoms: C_9  and  O_10
REMARK    5  A    between atoms: C_11  and  N_12
REMARK    6  A    between atoms: C_14  and  C_15
REMARK    7  A    between atoms: N_21  and  C_22
REMARK    8  A    between atoms: C_22  and  C_23
REMARK                            x       y       z     vdW  Elec       q    Type
REMARK                         _______ _______ _______ _____ _____    ______ ____
ROOT
ATOM      1  C   UNL     1       0.030  10.704  18.199  0.00  0.00    +0.000 C 
ATOM      2  C   UNL     1      -1.415  10.155  18.252  0.00  0.00    +0.000 C 
ATOM      3  C   UNL     1      -2.502  11.206  17.996  0.00  0.00    +0.000 C 
ATOM      4  C   UNL     1      -2.248  12.509  18.766  0.00  0.00    +0.000 C 
ATOM      5  C   UNL     1      -0.785  12.973  18.545  0.00  0.00    +0.000 C 
ATOM      6  N   UNL     1       0.213  11.968  18.969  0.00  0.00    +0.000 NA
ENDROOT
BRANCH   1  10
ATOM      7  C   UNL     1       2.323   7.297  19.510  0.00  0.00    +0.000 A 
ATOM      8  C   UNL     1       1.608   8.052  20.443  0.00  0.00    +0.000 A 
ATOM      9  C   UNL     1       0.933   9.213  20.056  0.00  0.00    +0.000 A 
ATOM     10  C   UNL     1       0.989   9.630  18.724  0.00  0.00    +0.000 A 
ATOM     11  C   UNL     1       1.814   8.941  17.826  0.00  0.00    +0.000 A 
ATOM     12  C   UNL     1       2.465   7.773  18.213  0.00  0.00    +0.000 A 
BRANCH   7  14
ATOM     13  C   UNL     1       1.927   5.253  20.616  0.00  0.00    +0.000 C 
ATOM     14  O   UNL     1       2.855   6.124  19.973  0.00  0.00    +0.000 OA
ENDBRANCH   7  14
ENDBRANCH   1  10
BRANCH   4  15
ATOM     15  N   UNL     1      -2.595  12.442  20.178  0.00  0.00    +0.000 N 
ATOM     16  C   UNL     1      -3.766  12.830  20.761  0.00  0.00    +0.000 A 
ATOM     17  C   UNL     1      -3.552  12.623  22.098  0.00  0.00    +0.000 A 
ATOM     18  N   UNL     1      -2.330  12.051  22.284  0.00  0.00    +0.000 NA
ATOM     19  N   UNL     1      -1.762  11.912  21.094  0.00  0.00    +0.000 NA
BRANCH  17  20
ATOM     20  C   UNL     1      -4.516  12.989  23.198  0.00  0.00    +0.000 C 
ATOM     21  C   UNL     1      -4.152  12.643  24.626  0.00  0.00    +0.000 C 
ATOM     22  C   UNL     1      -4.085  14.062  24.178  0.00  0.00    +0.000 C 
ENDBRANCH  17  20
ENDBRANCH   4  15
BRANCH   3  23
ATOM     23  O   UNL     1      -2.643  11.508  16.598  0.00  0.00    +0.000 OA
ATOM     24  H   UNL     1      -2.387  12.429  16.443  0.00  0.00    +0.000 HD
ENDBRANCH   3  23
BRANCH   6  25
ATOM     25  C   UNL     1       1.614  12.477  18.882  0.00  0.00    +0.000 C 
BRANCH  25  26
ATOM     26  C   UNL     1       2.248  13.067  20.178  0.00  0.00    +0.000 C 
ATOM     27  C   UNL     1       3.314  14.160  20.002  0.00  0.00    +0.000 C 
ATOM     28  C   UNL     1       2.832  15.604  19.883  0.00  0.00    +0.000 C 
ATOM     29  C   UNL     1       1.722  16.018  20.833  0.00  0.00    +0.000 C 
ATOM     30  C   UNL     1       0.655  14.957  21.066  0.00  0.00    +0.000 C 
ATOM     31  C   UNL     1       1.170  13.518  21.186  0.00  0.00    +0.000 C 
ENDBRANCH  25  26
ENDBRANCH   6  25
TORSDOF 7
ENDMDL
