MODEL 1
REMARK VINA RESULT:      -9.0      0.000      0.000
REMARK  Name = 
REMARK  3 active torsions:
REMARK  status: ('A' for Active; 'I' for Inactive)
REMARK    1  A    between atoms: C_5  and  C_7
REMARK    2  A    between atoms: C_9  and  C_10
REMARK    3  A    between atoms: C_22  and  N_23
REMARK                            x       y       z     vdW  Elec       q    Type
REMARK                         _______ _______ _______ _____ _____    ______ ____
ROOT
ATOM      1  C   UNL     1       6.099   5.103  15.784  0.00  0.00    +0.000 A 
ATOM      2  N   UNL     1       4.964   4.406  16.085  0.00  0.00    +0.000 NA
ATOM      3  C   UNL     1       4.422   4.668  17.302  0.00  0.00    +0.000 A 
ATOM      4  C   UNL     1       5.031   5.603  18.184  0.00  0.00    +0.000 A 
ATOM      5  N   UNL     1       4.605   5.857  19.491  0.00  0.00    +0.000 N 
ATOM      6  N   UNL     1       6.133   6.303  17.843  0.00  0.00    +0.000 NA
ATOM      7  C   UNL     1       6.677   6.050  16.638  0.00  0.00    +0.000 A 
ATOM      8  H   UNL     1       4.568   4.999  20.034  0.00  0.00    +0.000 HD
ATOM      9  H   UNL     1       5.271   6.513  19.892  0.00  0.00    +0.000 HD
ENDROOT
BRANCH   1  14
ATOM     10  N   UNL     1       5.502   2.577  11.956  0.00  0.00    +0.000 NA
ATOM     11  C   UNL     1       6.324   3.431  12.463  0.00  0.00    +0.000 C 
ATOM     12  N   UNL     1       7.400   3.902  11.799  0.00  0.00    +0.000 N 
ATOM     13  N   UNL     1       6.024   3.851  13.713  0.00  0.00    +0.000 N 
ATOM     14  C   UNL     1       6.671   4.835  14.439  0.00  0.00    +0.000 C 
ATOM     15  O   UNL     1       7.593   5.510  13.979  0.00  0.00    +0.000 OA
ATOM     16  H   UNL     1       5.829   2.316  11.022  0.00  0.00    +0.000 HD
ATOM     17  H   UNL     1       7.293   4.038  10.803  0.00  0.00    +0.000 HD
ATOM     18  H   UNL     1       7.827   4.707  12.259  0.00  0.00    +0.000 HD
ATOM     19  H   UNL     1       5.213   3.421  14.129  0.00  0.00    +0.000 HD
ENDBRANCH   1  14
BRANCH   3  20
ATOM     20  C   UNL     1       3.333   3.755  17.719  0.00  0.00    +0.000 A 
ATOM     21  C   UNL     1       3.608   2.361  17.800  0.00  0.00    +0.000 A 
ATOM     22  C   UNL     1       2.953   1.557  18.729  0.00  0.00    +0.000 A 
ATOM     23  C   UNL     1       2.026   2.188  19.519  0.00  0.00    +0.000 A 
ATOM     24  C   UNL     1       1.508   3.442  19.219  0.00  0.00    +0.000 A 
ATOM     25  C   UNL     1       2.147   4.246  18.301  0.00  0.00    +0.000 A 
ATOM     26  C   UNL     1       0.571   3.810  20.311  0.00  0.00    +0.000 C 
ATOM     27  C   UNL     1       1.412   3.142  21.390  0.00  0.00    +0.000 C 
ATOM     28  O   UNL     1       1.764   1.839  20.834  0.00  0.00    +0.000 OA
ENDBRANCH   3  20
BRANCH   7  29
ATOM     29  N   UNL     1       7.887   6.692  16.406  0.00  0.00    +0.000 N 
ATOM     30  H   UNL     1       8.462   6.139  15.779  0.00  0.00    +0.000 HD
ATOM     31  H   UNL     1       8.351   6.990  17.263  0.00  0.00    +0.000 HD
ENDBRANCH   7  29
TORSDOF 3
ENDMDL
MODEL 2
REMARK VINA RESULT:      -8.2      4.557      7.503
REMARK  Name = 
REMARK  3 active torsions:
REMARK  status: ('A' for Active; 'I' for Inactive)
REMARK    1  A    between atoms: C_5  and  C_7
REMARK    2  A    between atoms: C_9  and  C_10
REMARK    3  A    between atoms: C_22  and  N_23
REMARK                            x       y       z     vdW  Elec       q    Type
REMARK                         _______ _______ _______ _____ _____    ______ ____
ROOT
ATOM      1  C   UNL     1       1.472   8.882  19.619  0.00  0.00    +0.000 A 
ATOM      2  N   UNL     1       1.664   7.683  20.242  0.00  0.00    +0.000 NA
ATOM      3  C   UNL     1       2.396   6.774  19.548  0.00  0.00    +0.000 A 
ATOM      4  C   UNL     1       2.901   7.080  18.254  0.00  0.00    +0.000 A 
ATOM      5  N   UNL     1       3.571   6.173  17.428  0.00  0.00    +0.000 N 
ATOM      6  N   UNL     1       2.724   8.287  17.680  0.00  0.00    +0.000 NA
ATOM      7  C   UNL     1       2.001   9.196  18.360  0.00  0.00    +0.000 A 
ATOM      8  H   UNL     1       3.014   5.336  17.280  0.00  0.00    +0.000 HD
ATOM      9  H   UNL     1       3.746   6.655  16.549  0.00  0.00    +0.000 HD
ENDROOT
BRANCH   1  14
ATOM     10  N   UNL     1      -0.349   9.720  23.786  0.00  0.00    +0.000 NA
ATOM     11  C   UNL     1      -0.284  10.240  22.609  0.00  0.00    +0.000 C 
ATOM     12  N   UNL     1      -0.822  11.440  22.304  0.00  0.00    +0.000 N 
ATOM     13  N   UNL     1       0.387   9.512  21.689  0.00  0.00    +0.000 N 
ATOM     14  C   UNL     1       0.697   9.885  20.394  0.00  0.00    +0.000 C 
ATOM     15  O   UNL     1       0.436  10.999  19.938  0.00  0.00    +0.000 OA
ATOM     16  H   UNL     1      -0.889  10.340  24.395  0.00  0.00    +0.000 HD
ATOM     17  H   UNL     1      -0.787  12.148  23.025  0.00  0.00    +0.000 HD
ATOM     18  H   UNL     1      -0.514  11.791  21.396  0.00  0.00    +0.000 HD
ATOM     19  H   UNL     1       0.731   8.620  22.013  0.00  0.00    +0.000 HD
ENDBRANCH   1  14
BRANCH   3  20
ATOM     20  C   UNL     1       2.412   5.407  20.120  0.00  0.00    +0.000 A 
ATOM     21  C   UNL     1       1.170   4.795  20.451  0.00  0.00    +0.000 A 
ATOM     22  C   UNL     1       1.010   3.414  20.365  0.00  0.00    +0.000 A 
ATOM     23  C   UNL     1       2.117   2.706  19.976  0.00  0.00    +0.000 A 
ATOM     24  C   UNL     1       3.399   3.243  19.990  0.00  0.00    +0.000 A 
ATOM     25  C   UNL     1       3.570   4.607  20.076  0.00  0.00    +0.000 A 
ATOM     26  C   UNL     1       4.324   2.202  19.472  0.00  0.00    +0.000 C 
ATOM     27  C   UNL     1       3.314   1.666  18.467  0.00  0.00    +0.000 C 
ATOM     28  O   UNL     1       2.068   1.546  19.219  0.00  0.00    +0.000 OA
ENDBRANCH   3  20
BRANCH   7  29
ATOM     29  N   UNL     1       1.731  10.363  17.655  0.00  0.00    +0.000 N 
ATOM     30  H   UNL     1       1.399  10.140  16.723  0.00  0.00    +0.000 HD
ATOM     31  H   UNL     1       2.497  11.035  17.689  0.00  0.00    +0.000 HD
ENDBRANCH   7  29
TORSDOF 3
ENDMDL
MODEL 3
REMARK VINA RESULT:      -8.0      3.766      7.481
REMARK  Name = 
REMARK  3 active torsions:
REMARK  status: ('A' for Active; 'I' for Inactive)
REMARK    1  A    between atoms: C_5  and  C_7
REMARK    2  A    between atoms: C_9  and  C_10
REMARK    3  A    between atoms: C_22  and  N_23
REMARK                            x       y       z     vdW  Elec       q    Type
REMARK                         _______ _______ _______ _____ _____    ______ ____
ROOT
ATOM      1  C   UNL     1       2.462   4.438  20.492  0.00  0.00    +0.000 A 
ATOM      2  N   UNL     1       3.408   4.727  19.551  0.00  0.00    +0.000 NA
ATOM      3  C   UNL     1       4.336   3.759  19.338  0.00  0.00    +0.000 A 
ATOM      4  C   UNL     1       4.301   2.542  20.073  0.00  0.00    +0.000 A 
ATOM      5  N   UNL     1       5.271   1.538  19.995  0.00  0.00    +0.000 N 
ATOM      6  N   UNL     1       3.332   2.271  20.972  0.00  0.00    +0.000 NA
ATOM      7  C   UNL     1       2.407   3.225  21.190  0.00  0.00    +0.000 A 
ATOM      8  H   UNL     1       6.197   1.911  20.186  0.00  0.00    +0.000 HD
ATOM      9  H   UNL     1       5.015   0.832  20.681  0.00  0.00    +0.000 HD
ENDROOT
BRANCH   1  14
ATOM     10  N   UNL     1       1.910   8.919  21.492  0.00  0.00    +0.000 NA
ATOM     11  C   UNL     1       1.212   7.856  21.283  0.00  0.00    +0.000 C 
ATOM     12  N   UNL     1      -0.137   7.853  21.264  0.00  0.00    +0.000 N 
ATOM     13  N   UNL     1       1.925   6.730  21.057  0.00  0.00    +0.000 N 
ATOM     14  C   UNL     1       1.432   5.488  20.701  0.00  0.00    +0.000 C 
ATOM     15  O   UNL     1       0.238   5.280  20.479  0.00  0.00    +0.000 OA
ATOM     16  H   UNL     1       1.276   9.703  21.667  0.00  0.00    +0.000 HD
ATOM     17  H   UNL     1      -0.586   8.672  20.877  0.00  0.00    +0.000 HD
ATOM     18  H   UNL     1      -0.525   6.984  20.893  0.00  0.00    +0.000 HD
ATOM     19  H   UNL     1       2.927   6.835  21.116  0.00  0.00    +0.000 HD
ENDBRANCH   1  14
BRANCH   3  20
ATOM     20  C   UNL     1       5.483   4.159  18.490  0.00  0.00    +0.000 A 
ATOM     21  C   UNL     1       5.340   4.089  17.076  0.00  0.00    +0.000 A 
ATOM     22  C   UNL     1       6.016   4.980  16.246  0.00  0.00    +0.000 A 
ATOM     23  C   UNL     1       6.830   5.886  16.876  0.00  0.00    +0.000 A 
ATOM     24  C   UNL     1       7.240   5.741  18.195  0.00  0.00    +0.000 A 
ATOM     25  C   UNL     1       6.580   4.862  19.026  0.00  0.00    +0.000 A 
ATOM     26  C   UNL     1       8.073   6.922  18.536  0.00  0.00    +0.000 C 
ATOM     27  C   UNL     1       7.240   7.875  17.690  0.00  0.00    +0.000 C 
ATOM     28  O   UNL     1       7.049   7.177  16.422  0.00  0.00    +0.000 OA
ENDBRANCH   3  20
BRANCH   7  29
ATOM     29  N   UNL     1       1.526   2.946  22.228  0.00  0.00    +0.000 N 
ATOM     30  H   UNL     1       1.550   1.957  22.451  0.00  0.00    +0.000 HD
ATOM     31  H   UNL     1       0.595   3.329  22.072  0.00  0.00    +0.000 HD
ENDBRANCH   7  29
TORSDOF 3
ENDMDL
MODEL 4
REMARK VINA RESULT:      -8.0      5.477      7.684
REMARK  Name = 
REMARK  3 active torsions:
REMARK  status: ('A' for Active; 'I' for Inactive)
REMARK    1  A    between atoms: C_5  and  C_7
REMARK    2  A    between atoms: C_9  and  C_10
REMARK    3  A    between atoms: C_22  and  N_23
REMARK                            x       y       z     vdW  Elec       q    Type
REMARK                         _______ _______ _______ _____ _____    ______ ____
ROOT
ATOM      1  C   UNL     1       0.966   9.752  19.547  0.00  0.00    +0.000 A 
ATOM      2  N   UNL     1       1.444   8.887  18.605  0.00  0.00    +0.000 NA
ATOM      3  C   UNL     1       1.811   7.664  19.068  0.00  0.00    +0.000 A 
ATOM      4  C   UNL     1       1.704   7.345  20.450  0.00  0.00    +0.000 A 
ATOM      5  N   UNL     1       2.154   6.155  21.029  0.00  0.00    +0.000 N 
ATOM      6  N   UNL     1       1.195   8.211  21.351  0.00  0.00    +0.000 NA
ATOM      7  C   UNL     1       0.827   9.425  20.902  0.00  0.00    +0.000 A 
ATOM      8  H   UNL     1       3.136   5.997  20.818  0.00  0.00    +0.000 HD
ATOM      9  H   UNL     1       2.007   6.245  22.031  0.00  0.00    +0.000 HD
ENDROOT
BRANCH   1  14
ATOM     10  N   UNL     1      -2.441  11.902  17.275  0.00  0.00    +0.000 NA
ATOM     11  C   UNL     1      -1.280  12.141  17.781  0.00  0.00    +0.000 C 
ATOM     12  N   UNL     1      -0.720  13.369  17.790  0.00  0.00    +0.000 N 
ATOM     13  N   UNL     1      -0.656  11.076  18.331  0.00  0.00    +0.000 N 
ATOM     14  C   UNL     1       0.536  11.078  19.032  0.00  0.00    +0.000 C 
ATOM     15  O   UNL     1       1.156  12.109  19.296  0.00  0.00    +0.000 OA
ATOM     16  H   UNL     1      -2.813  12.766  16.874  0.00  0.00    +0.000 HD
ATOM     17  H   UNL     1      -1.348  14.152  17.917  0.00  0.00    +0.000 HD
ATOM     18  H   UNL     1       0.100  13.425  18.396  0.00  0.00    +0.000 HD
ATOM     19  H   UNL     1      -1.149  10.200  18.252  0.00  0.00    +0.000 HD
ENDBRANCH   1  14
BRANCH   3  20
ATOM     20  C   UNL     1       2.535   6.812  18.096  0.00  0.00    +0.000 A 
ATOM     21  C   UNL     1       3.817   7.236  17.645  0.00  0.00    +0.000 A 
ATOM     22  C   UNL     1       4.794   6.306  17.299  0.00  0.00    +0.000 A 
ATOM     23  C   UNL     1       4.429   4.988  17.397  0.00  0.00    +0.000 A 
ATOM     24  C   UNL     1       3.105   4.578  17.495  0.00  0.00    +0.000 A 
ATOM     25  C   UNL     1       2.129   5.489  17.835  0.00  0.00    +0.000 A 
ATOM     26  C   UNL     1       3.104   3.098  17.618  0.00  0.00    +0.000 C 
ATOM     27  C   UNL     1       4.381   3.069  18.448  0.00  0.00    +0.000 C 
ATOM     28  O   UNL     1       5.297   3.968  17.752  0.00  0.00    +0.000 OA
ENDBRANCH   3  20
BRANCH   7  29
ATOM     29  N   UNL     1       0.449  10.318  21.898  0.00  0.00    +0.000 N 
ATOM     30  H   UNL     1       0.775  11.252  21.673  0.00  0.00    +0.000 HD
ATOM     31  H   UNL     1       0.687   9.994  22.834  0.00  0.00    +0.000 HD
ENDBRANCH   7  29
TORSDOF 3
ENDMDL
MODEL 5
REMARK VINA RESULT:      -7.9      3.278      7.281
REMARK  Name = 
REMARK  3 active torsions:
REMARK  status: ('A' for Active; 'I' for Inactive)
REMARK    1  A    between atoms: C_5  and  C_7
REMARK    2  A    between atoms: C_9  and  C_10
REMARK    3  A    between atoms: C_22  and  N_23
REMARK                            x       y       z     vdW  Elec       q    Type
REMARK                         _______ _______ _______ _____ _____    ______ ____
ROOT
ATOM      1  C   UNL     1       2.303   5.200  19.713  0.00  0.00    +0.000 A 
ATOM      2  N   UNL     1       3.490   5.420  19.074  0.00  0.00    +0.000 NA
ATOM      3  C   UNL     1       4.078   4.319  18.539  0.00  0.00    +0.000 A 
ATOM      4  C   UNL     1       3.477   3.037  18.667  0.00  0.00    +0.000 A 
ATOM      5  N   UNL     1       4.061   1.839  18.241  0.00  0.00    +0.000 N 
ATOM      6  N   UNL     1       2.286   2.857  19.274  0.00  0.00    +0.000 NA
ATOM      7  C   UNL     1       1.694   3.942  19.807  0.00  0.00    +0.000 A 
ATOM      8  H   UNL     1       4.982   1.718  18.652  0.00  0.00    +0.000 HD
ATOM      9  H   UNL     1       3.433   1.092  18.528  0.00  0.00    +0.000 HD
ENDROOT
BRANCH   1  14
ATOM     10  N   UNL     1       1.510   9.680  18.883  0.00  0.00    +0.000 NA
ATOM     11  C   UNL     1       1.309   8.788  19.791  0.00  0.00    +0.000 C 
ATOM     12  N   UNL     1       0.620   9.035  20.926  0.00  0.00    +0.000 N 
ATOM     13  N   UNL     1       1.815   7.563  19.524  0.00  0.00    +0.000 N 
ATOM     14  C   UNL     1       1.648   6.411  20.271  0.00  0.00    +0.000 C 
ATOM     15  O   UNL     1       0.933   6.360  21.273  0.00  0.00    +0.000 OA
ATOM     16  H   UNL     1       1.104  10.566  19.192  0.00  0.00    +0.000 HD
ATOM     17  H   UNL     1      -0.162   9.672  20.851  0.00  0.00    +0.000 HD
ATOM     18  H   UNL     1       0.383   8.184  21.437  0.00  0.00    +0.000 HD
ATOM     19  H   UNL     1       2.331   7.490  18.661  0.00  0.00    +0.000 HD
ENDBRANCH   1  14
BRANCH   3  20
ATOM     20  C   UNL     1       5.462   4.518  18.049  0.00  0.00    +0.000 A 
ATOM     21  C   UNL     1       5.721   4.350  16.659  0.00  0.00    +0.000 A 
ATOM     22  C   UNL     1       6.717   5.089  16.025  0.00  0.00    +0.000 A 
ATOM     23  C   UNL     1       7.428   5.946  16.824  0.00  0.00    +0.000 A 
ATOM     24  C   UNL     1       7.421   5.865  18.211  0.00  0.00    +0.000 A 
ATOM     25  C   UNL     1       6.442   5.136  18.850  0.00  0.00    +0.000 A 
ATOM     26  C   UNL     1       8.269   6.970  18.727  0.00  0.00    +0.000 C 
ATOM     27  C   UNL     1       7.844   7.937  17.631  0.00  0.00    +0.000 C 
ATOM     28  O   UNL     1       7.934   7.164  16.396  0.00  0.00    +0.000 OA
ENDBRANCH   3  20
BRANCH   7  29
ATOM     29  N   UNL     1       0.547   3.670  20.543  0.00  0.00    +0.000 N 
ATOM     30  H   UNL     1       0.066   2.865  20.156  0.00  0.00    +0.000 HD
ATOM     31  H   UNL     1      -0.038   4.492  20.687  0.00  0.00    +0.000 HD
ENDBRANCH   7  29
TORSDOF 3
ENDMDL
MODEL 6
REMARK VINA RESULT:      -7.7      1.006      1.006
REMARK  Name = 
REMARK  3 active torsions:
REMARK  status: ('A' for Active; 'I' for Inactive)
REMARK    1  A    between atoms: C_5  and  C_7
REMARK    2  A    between atoms: C_9  and  C_10
REMARK    3  A    between atoms: C_22  and  N_23
REMARK                            x       y       z     vdW  Elec       q    Type
REMARK                         _______ _______ _______ _____ _____    ______ ____
ROOT
ATOM      1  C   UNL     1       6.247   4.450  15.867  0.00  0.00    +0.000 A 
ATOM      2  N   UNL     1       4.915   4.293  16.126  0.00  0.00    +0.000 NA
ATOM      3  C   UNL     1       4.574   4.269  17.440  0.00  0.00    +0.000 A 
ATOM      4  C   UNL     1       5.565   4.388  18.453  0.00  0.00    +0.000 A 
ATOM      5  N   UNL     1       5.320   4.269  19.824  0.00  0.00    +0.000 N 
ATOM      6  N   UNL     1       6.870   4.578  18.164  0.00  0.00    +0.000 NA
ATOM      7  C   UNL     1       7.218   4.605  16.865  0.00  0.00    +0.000 A 
ATOM      8  H   UNL     1       4.861   3.388  20.036  0.00  0.00    +0.000 HD
ATOM      9  H   UNL     1       6.223   4.331  20.287  0.00  0.00    +0.000 HD
ENDROOT
BRANCH   1  14
ATOM     10  N   UNL     1       5.735   2.235  11.840  0.00  0.00    +0.000 NA
ATOM     11  C   UNL     1       6.342   3.256  12.341  0.00  0.00    +0.000 C 
ATOM     12  N   UNL     1       7.083   4.107  11.602  0.00  0.00    +0.000 N 
ATOM     13  N   UNL     1       6.168   3.439  13.669  0.00  0.00    +0.000 N 
ATOM     14  C   UNL     1       6.612   4.507  14.428  0.00  0.00    +0.000 C 
ATOM     15  O   UNL     1       7.187   5.482  13.942  0.00  0.00    +0.000 OA
ATOM     16  H   UNL     1       5.946   2.180  10.841  0.00  0.00    +0.000 HD
ATOM     17  H   UNL     1       6.757   4.293  10.663  0.00  0.00    +0.000 HD
ATOM     18  H   UNL     1       7.327   4.960  12.107  0.00  0.00    +0.000 HD
ATOM     19  H   UNL     1       5.615   2.735  14.133  0.00  0.00    +0.000 HD
ENDBRANCH   1  14
BRANCH   3  20
ATOM     20  C   UNL     1       3.174   3.874  17.722  0.00  0.00    +0.000 A 
ATOM     21  C   UNL     1       2.763   2.552  17.393  0.00  0.00    +0.000 A 
ATOM     22  C   UNL     1       1.786   1.901  18.142  0.00  0.00    +0.000 A 
ATOM     23  C   UNL     1       1.245   2.622  19.176  0.00  0.00    +0.000 A 
ATOM     24  C   UNL     1       1.382   4.000  19.287  0.00  0.00    +0.000 A 
ATOM     25  C   UNL     1       2.344   4.655  18.550  0.00  0.00    +0.000 A 
ATOM     26  C   UNL     1       0.702   4.416  20.540  0.00  0.00    +0.000 C 
ATOM     27  C   UNL     1       1.108   3.157  21.293  0.00  0.00    +0.000 C 
ATOM     28  O   UNL     1       0.821   2.062  20.371  0.00  0.00    +0.000 OA
ENDBRANCH   3  20
BRANCH   7  29
ATOM     29  N   UNL     1       8.588   4.656  16.636  0.00  0.00    +0.000 N 
ATOM     30  H   UNL     1       8.814   4.194  15.761  0.00  0.00    +0.000 HD
ATOM     31  H   UNL     1       9.137   4.349  17.437  0.00  0.00    +0.000 HD
ENDBRANCH   7  29
TORSDOF 3
ENDMDL
MODEL 7
REMARK VINA RESULT:      -7.7      1.613      2.396
REMARK  Name = 
REMARK  3 active torsions:
REMARK  status: ('A' for Active; 'I' for Inactive)
REMARK    1  A    between atoms: C_5  and  C_7
REMARK    2  A    between atoms: C_9  and  C_10
REMARK    3  A    between atoms: C_22  and  N_23
REMARK                            x       y       z     vdW  Elec       q    Type
REMARK                         _______ _______ _______ _____ _____    ______ ____
ROOT
ATOM      1  C   UNL     1       5.937   4.449  14.768  0.00  0.00    +0.000 A 
ATOM      2  N   UNL     1       5.129   4.259  15.852  0.00  0.00    +0.000 NA
ATOM      3  C   UNL     1       5.544   4.852  17.001  0.00  0.00    +0.000 A 
ATOM      4  C   UNL     1       6.752   5.601  17.040  0.00  0.00    +0.000 A 
ATOM      5  N   UNL     1       7.307   6.155  18.197  0.00  0.00    +0.000 N 
ATOM      6  N   UNL     1       7.511   5.800  15.942  0.00  0.00    +0.000 NA
ATOM      7  C   UNL     1       7.108   5.218  14.798  0.00  0.00    +0.000 A 
ATOM      8  H   UNL     1       7.438   5.445  18.913  0.00  0.00    +0.000 HD
ATOM      9  H   UNL     1       8.196   6.566  17.925  0.00  0.00    +0.000 HD
ENDROOT
BRANCH   1  14
ATOM     10  N   UNL     1       7.183   1.534  11.400  0.00  0.00    +0.000 NA
ATOM     11  C   UNL     1       6.208   2.311  11.731  0.00  0.00    +0.000 C 
ATOM     12  N   UNL     1       5.071   2.412  11.011  0.00  0.00    +0.000 N 
ATOM     13  N   UNL     1       6.387   3.012  12.873  0.00  0.00    +0.000 N 
ATOM     14  C   UNL     1       5.464   3.825  13.505  0.00  0.00    +0.000 C 
ATOM     15  O   UNL     1       4.304   3.954  13.111  0.00  0.00    +0.000 OA
ATOM     16  H   UNL     1       6.952   1.069  10.519  0.00  0.00    +0.000 HD
ATOM     17  H   UNL     1       4.737   1.565  10.571  0.00  0.00    +0.000 HD
ATOM     18  H   UNL     1       4.332   2.911  11.508  0.00  0.00    +0.000 HD
ATOM     19  H   UNL     1       7.280   2.882  13.322  0.00  0.00    +0.000 HD
ENDBRANCH   1  14
BRANCH   3  20
ATOM     20  C   UNL     1       4.795   4.461  18.219  0.00  0.00    +0.000 A 
ATOM     21  C   UNL     1       4.315   5.488  19.079  0.00  0.00    +0.000 A 
ATOM     22  C   UNL     1       3.143   5.315  19.811  0.00  0.00    +0.000 A 
ATOM     23  C   UNL     1       2.519   4.103  19.666  0.00  0.00    +0.000 A 
ATOM     24  C   UNL     1       3.148   2.992  19.117  0.00  0.00    +0.000 A 
ATOM     25  C   UNL     1       4.309   3.150  18.392  0.00  0.00    +0.000 A 
ATOM     26  C   UNL     1       2.157   1.887  19.089  0.00  0.00    +0.000 C 
ATOM     27  C   UNL     1       0.987   2.812  18.784  0.00  0.00    +0.000 C 
ATOM     28  O   UNL     1       1.145   3.929  19.711  0.00  0.00    +0.000 OA
ENDBRANCH   3  20
BRANCH   7  29
ATOM     29  N   UNL     1       8.004   5.337  13.743  0.00  0.00    +0.000 N 
ATOM     30  H   UNL     1       7.574   5.839  12.973  0.00  0.00    +0.000 HD
ATOM     31  H   UNL     1       8.440   4.452  13.489  0.00  0.00    +0.000 HD
ENDBRANCH   7  29
TORSDOF 3
ENDMDL
MODEL 8
REMARK VINA RESULT:      -7.6      4.376      7.275
REMARK  Name = 
REMARK  3 active torsions:
REMARK  status: ('A' for Active; 'I' for Inactive)
REMARK    1  A    between atoms: C_5  and  C_7
REMARK    2  A    between atoms: C_9  and  C_10
REMARK    3  A    between atoms: C_22  and  N_23
REMARK                            x       y       z     vdW  Elec       q    Type
REMARK                         _______ _______ _______ _____ _____    ______ ____
ROOT
ATOM      1  C   UNL     1       1.472   8.850  19.369  0.00  0.00    +0.000 A 
ATOM      2  N   UNL     1       1.826   7.553  19.606  0.00  0.00    +0.000 NA
ATOM      3  C   UNL     1       2.707   7.017  18.723  0.00  0.00    +0.000 A 
ATOM      4  C   UNL     1       3.197   7.780  17.628  0.00  0.00    +0.000 A 
ATOM      5  N   UNL     1       4.021   7.280  16.615  0.00  0.00    +0.000 N 
ATOM      6  N   UNL     1       2.856   9.072  17.441  0.00  0.00    +0.000 NA
ATOM      7  C   UNL     1       1.984   9.613  18.312  0.00  0.00    +0.000 A 
ATOM      8  H   UNL     1       3.602   6.465  16.175  0.00  0.00    +0.000 HD
ATOM      9  H   UNL     1       4.146   8.033  15.943  0.00  0.00    +0.000 HD
ENDROOT
BRANCH   1  14
ATOM     10  N   UNL     1       0.780   9.466  23.900  0.00  0.00    +0.000 NA
ATOM     11  C   UNL     1       0.204   9.689  22.769  0.00  0.00    +0.000 C 
ATOM     12  N   UNL     1      -0.970  10.345  22.657  0.00  0.00    +0.000 N 
ATOM     13  N   UNL     1       0.869   9.240  21.681  0.00  0.00    +0.000 N 
ATOM     14  C   UNL     1       0.532   9.443  20.355  0.00  0.00    +0.000 C 
ATOM     15  O   UNL     1      -0.422  10.140  20.005  0.00  0.00    +0.000 OA
ATOM     16  H   UNL     1       0.188   9.828  24.652  0.00  0.00    +0.000 HD
ATOM     17  H   UNL     1      -1.131  11.100  23.310  0.00  0.00    +0.000 HD
ATOM     18  H   UNL     1      -1.186  10.608  21.695  0.00  0.00    +0.000 HD
ATOM     19  H   UNL     1       1.726   8.744  21.874  0.00  0.00    +0.000 HD
ENDBRANCH   1  14
BRANCH   3  20
ATOM     20  C   UNL     1       2.913   5.555  18.846  0.00  0.00    +0.000 A 
ATOM     21  C   UNL     1       4.199   5.081  19.231  0.00  0.00    +0.000 A 
ATOM     22  C   UNL     1       4.335   3.906  19.967  0.00  0.00    +0.000 A 
ATOM     23  C   UNL     1       3.171   3.244  20.259  0.00  0.00    +0.000 A 
ATOM     24  C   UNL     1       1.972   3.502  19.605  0.00  0.00    +0.000 A 
ATOM     25  C   UNL     1       1.826   4.660  18.874  0.00  0.00    +0.000 A 
ATOM     26  C   UNL     1       0.936   2.627  20.211  0.00  0.00    +0.000 C 
ATOM     27  C   UNL     1       1.527   2.730  21.610  0.00  0.00    +0.000 C 
ATOM     28  O   UNL     1       2.961   2.524  21.425  0.00  0.00    +0.000 OA
ENDBRANCH   3  20
BRANCH   7  29
ATOM     29  N   UNL     1       1.561  10.895  17.982  0.00  0.00    +0.000 N 
ATOM     30  H   UNL     1       2.191  11.308  17.302  0.00  0.00    +0.000 HD
ATOM     31  H   UNL     1       1.372  11.475  18.799  0.00  0.00    +0.000 HD
ENDBRANCH   7  29
TORSDOF 3
ENDMDL
MODEL 9
REMARK VINA RESULT:      -7.5      4.273      7.454
REMARK  Name = 
REMARK  3 active torsions:
REMARK  status: ('A' for Active; 'I' for Inactive)
REMARK    1  A    between atoms: C_5  and  C_7
REMARK    2  A    between atoms: C_9  and  C_10
REMARK    3  A    between atoms: C_22  and  N_23
REMARK                            x       y       z     vdW  Elec       q    Type
REMARK                         _______ _______ _______ _____ _____    ______ ____
ROOT
ATOM      1  C   UNL     1       2.052   8.598  18.802  0.00  0.00    +0.000 A 
ATOM      2  N   UNL     1       2.982   8.328  17.840  0.00  0.00    +0.000 NA
ATOM      3  C   UNL     1       3.645   7.151  17.982  0.00  0.00    +0.000 A 
ATOM      4  C   UNL     1       3.373   6.289  19.080  0.00  0.00    +0.000 A 
ATOM      5  N   UNL     1       4.077   5.115  19.363  0.00  0.00    +0.000 N 
ATOM      6  N   UNL     1       2.422   6.568  19.995  0.00  0.00    +0.000 NA
ATOM      7  C   UNL     1       1.758   7.732  19.863  0.00  0.00    +0.000 A 
ATOM      8  H   UNL     1       5.073   5.298  19.439  0.00  0.00    +0.000 HD
ATOM      9  H   UNL     1       3.705   4.756  20.238  0.00  0.00    +0.000 HD
ENDROOT
BRANCH   1  14
ATOM     10  N   UNL     1       2.547  13.017  17.533  0.00  0.00    +0.000 NA
ATOM     11  C   UNL     1       1.652  12.210  17.990  0.00  0.00    +0.000 C 
ATOM     12  N   UNL     1       0.367  12.573  18.189  0.00  0.00    +0.000 N 
ATOM     13  N   UNL     1       2.079  10.952  18.240  0.00  0.00    +0.000 N 
ATOM     14  C   UNL     1       1.307   9.872  18.626  0.00  0.00    +0.000 C 
ATOM     15  O   UNL     1       0.080   9.927  18.728  0.00  0.00    +0.000 OA
ATOM     16  H   UNL     1       2.125  13.939  17.396  0.00  0.00    +0.000 HD
ATOM     17  H   UNL     1      -0.027  13.226  17.525  0.00  0.00    +0.000 HD
ATOM     18  H   UNL     1      -0.246  11.775  18.362  0.00  0.00    +0.000 HD
ATOM     19  H   UNL     1       3.061  10.791  18.079  0.00  0.00    +0.000 HD
ENDBRANCH   1  14
BRANCH   3  20
ATOM     20  C   UNL     1       4.802   6.965  17.076  0.00  0.00    +0.000 A 
ATOM     21  C   UNL     1       6.111   7.190  17.591  0.00  0.00    +0.000 A 
ATOM     22  C   UNL     1       7.201   6.473  17.105  0.00  0.00    +0.000 A 
ATOM     23  C   UNL     1       6.931   5.579  16.101  0.00  0.00    +0.000 A 
ATOM     24  C   UNL     1       5.751   5.603  15.367  0.00  0.00    +0.000 A 
ATOM     25  C   UNL     1       4.666   6.309  15.837  0.00  0.00    +0.000 A 
ATOM     26  C   UNL     1       5.802   4.472  14.405  0.00  0.00    +0.000 C 
ATOM     27  C   UNL     1       6.535   3.554  15.373  0.00  0.00    +0.000 C 
ATOM     28  O   UNL     1       7.602   4.378  15.933  0.00  0.00    +0.000 OA
ENDBRANCH   3  20
BRANCH   7  29
ATOM     29  N   UNL     1       0.899   8.028  20.914  0.00  0.00    +0.000 N 
ATOM     30  H   UNL     1       1.322   7.763  21.797  0.00  0.00    +0.000 HD
ATOM     31  H   UNL     1      -0.046   7.675  20.768  0.00  0.00    +0.000 HD
ENDBRANCH   7  29
TORSDOF 3
ENDMDL
