MODEL 1
REMARK VINA RESULT:      -7.4      0.000      0.000
REMARK  Name = 
REMARK  6 active torsions:
REMARK  status: ('A' for Active; 'I' for Inactive)
REMARK    1  A    between atoms: C_1  and  N_2
REMARK    2  A    between atoms: N_5  and  C_6
REMARK    3  A    between atoms: C_6  and  C_7
REMARK    4  A    between atoms: C_7  and  C_8
REMARK    5  A    between atoms: C_8  and  N_9
REMARK    6  A    between atoms: C_15  and  N_16
REMARK                            x       y       z     vdW  Elec       q    Type
REMARK                         _______ _______ _______ _____ _____    ______ ____
ROOT
ATOM      1  N   UNL     1      -0.377  11.857  20.019  0.00  0.00    +0.000 N 
ATOM      2  C   UNL     1      -1.537  12.394  20.565  0.00  0.00    +0.000 A 
ATOM      3  C   UNL     1      -2.725  12.255  19.945  0.00  0.00    +0.000 A 
ATOM      4  C   UNL     1      -2.860  11.608  18.656  0.00  0.00    +0.000 A 
ATOM      5  C   UNL     1      -4.054  11.612  17.935  0.00  0.00    +0.000 A 
ATOM      6  C   UNL     1      -4.140  10.958  16.705  0.00  0.00    +0.000 A 
ATOM      7  C   UNL     1      -3.060  10.224  16.212  0.00  0.00    +0.000 A 
ATOM      8  C   UNL     1      -1.839  10.293  16.889  0.00  0.00    +0.000 A 
ATOM      9  C   UNL     1      -1.735  10.990  18.106  0.00  0.00    +0.000 A 
ATOM     10  C   UNL     1      -0.415  11.130  18.795  0.00  0.00    +0.000 A 
ATOM     11  O   UNL     1       0.577  10.635  18.264  0.00  0.00    +0.000 OA
ATOM     12  C   UNL     1      -3.792  12.808  20.795  0.00  0.00    +0.000 C 
ATOM     13  O   UNL     1      -4.989  12.812  20.601  0.00  0.00    +0.000 OA
ATOM     14  C   UNL     1      -3.131  13.359  21.961  0.00  0.00    +0.000 A 
ATOM     15  C   UNL     1      -3.749  14.013  23.015  0.00  0.00    +0.000 A 
ATOM     16  C   UNL     1      -2.892  14.481  23.975  0.00  0.00    +0.000 A 
ATOM     17  C   UNL     1      -1.522  14.315  23.875  0.00  0.00    +0.000 A 
ATOM     18  C   UNL     1      -0.916  13.649  22.814  0.00  0.00    +0.000 A 
ATOM     19  C   UNL     1      -1.747  13.139  21.822  0.00  0.00    +0.000 A 
ATOM     20  O   UNL     1      -0.868  14.881  24.929  0.00  0.00    +0.000 OA
ATOM     21  C   UNL     1      -1.974  15.401  25.700  0.00  0.00    +0.000 C 
ATOM     22  O   UNL     1      -3.259  15.160  25.092  0.00  0.00    +0.000 OA
ENDROOT
BRANCH   7  23
ATOM     23  N   UNL     1      -3.153   9.631  14.946  0.00  0.00    +0.000 N 
ATOM     24  H   UNL     1      -3.759  10.139  14.305  0.00  0.00    +0.000 HD
ATOM     25  H   UNL     1      -3.382   8.642  14.979  0.00  0.00    +0.000 HD
ENDBRANCH   7  23
BRANCH   1  26
ATOM     26  C   UNL     1       0.947  12.021  20.623  0.00  0.00    +0.000 C 
BRANCH  26  27
ATOM     27  C   UNL     1       1.505  13.429  20.386  0.00  0.00    +0.000 C 
BRANCH  27  28
ATOM     28  C   UNL     1       2.561  13.483  19.272  0.00  0.00    +0.000 C 
BRANCH  28  33
ATOM     29  C   UNL     1       2.208  17.598  16.713  0.00  0.00    +0.000 C 
ATOM     30  N   UNL     1       2.988  16.875  17.710  0.00  0.00    +0.000 NA
ATOM     31  C   UNL     1       3.546  15.628  17.157  0.00  0.00    +0.000 C 
ATOM     32  C   UNL     1       4.341  14.828  18.217  0.00  0.00    +0.000 C 
ATOM     33  N   UNL     1       3.588  14.517  19.455  0.00  0.00    +0.000 NA
ATOM     34  C   UNL     1       3.002  15.782  19.959  0.00  0.00    +0.000 C 
ATOM     35  C   UNL     1       2.190  16.584  18.913  0.00  0.00    +0.000 C 
ENDBRANCH  28  33
ENDBRANCH  27  28
ENDBRANCH  26  27
ENDBRANCH   1  26
TORSDOF 5
ENDMDL
MODEL 2
REMARK VINA RESULT:      -7.4      1.015      1.254
REMARK  Name = 
REMARK  6 active torsions:
REMARK  status: ('A' for Active; 'I' for Inactive)
REMARK    1  A    between atoms: C_1  and  N_2
REMARK    2  A    between atoms: N_5  and  C_6
REMARK    3  A    between atoms: C_6  and  C_7
REMARK    4  A    between atoms: C_7  and  C_8
REMARK    5  A    between atoms: C_8  and  N_9
REMARK    6  A    between atoms: C_15  and  N_16
REMARK                            x       y       z     vdW  Elec       q    Type
REMARK                         _______ _______ _______ _____ _____    ______ ____
ROOT
ATOM      1  N   UNL     1      -0.452  11.736  20.005  0.00  0.00    +0.000 N 
ATOM      2  C   UNL     1      -1.585  12.358  20.516  0.00  0.00    +0.000 A 
ATOM      3  C   UNL     1      -2.767  12.284  19.873  0.00  0.00    +0.000 A 
ATOM      4  C   UNL     1      -2.917  11.623  18.593  0.00  0.00    +0.000 A 
ATOM      5  C   UNL     1      -4.093  11.691  17.845  0.00  0.00    +0.000 A 
ATOM      6  C   UNL     1      -4.196  11.020  16.626  0.00  0.00    +0.000 A 
ATOM      7  C   UNL     1      -3.156  10.208  16.170  0.00  0.00    +0.000 A 
ATOM      8  C   UNL     1      -1.948  10.211  16.872  0.00  0.00    +0.000 A 
ATOM      9  C   UNL     1      -1.824  10.923  18.079  0.00  0.00    +0.000 A 
ATOM     10  C   UNL     1      -0.512  10.990  18.793  0.00  0.00    +0.000 A 
ATOM     11  O   UNL     1       0.456  10.420  18.294  0.00  0.00    +0.000 OA
ATOM     12  C   UNL     1      -3.812  12.922  20.689  0.00  0.00    +0.000 C 
ATOM     13  O   UNL     1      -5.003  13.001  20.469  0.00  0.00    +0.000 OA
ATOM     14  C   UNL     1      -3.141  13.451  21.859  0.00  0.00    +0.000 A 
ATOM     15  C   UNL     1      -3.737  14.164  22.888  0.00  0.00    +0.000 A 
ATOM     16  C   UNL     1      -2.871  14.594  23.858  0.00  0.00    +0.000 A 
ATOM     17  C   UNL     1      -1.513  14.337  23.790  0.00  0.00    +0.000 A 
ATOM     18  C   UNL     1      -0.930  13.613  22.755  0.00  0.00    +0.000 A 
ATOM     19  C   UNL     1      -1.772  13.139  21.755  0.00  0.00    +0.000 A 
ATOM     20  O   UNL     1      -0.845  14.879  24.848  0.00  0.00    +0.000 OA
ATOM     21  C   UNL     1      -1.931  15.485  25.585  0.00  0.00    +0.000 C 
ATOM     22  O   UNL     1      -3.215  15.317  24.954  0.00  0.00    +0.000 OA
ENDROOT
BRANCH   7  23
ATOM     23  N   UNL     1      -3.261   9.598  14.913  0.00  0.00    +0.000 N 
ATOM     24  H   UNL     1      -2.543   9.897  14.257  0.00  0.00    +0.000 HD
ATOM     25  H   UNL     1      -4.191   9.663  14.510  0.00  0.00    +0.000 HD
ENDBRANCH   7  23
BRANCH   1  26
ATOM     26  C   UNL     1       0.868  11.825  20.635  0.00  0.00    +0.000 C 
BRANCH  26  27
ATOM     27  C   UNL     1       1.765  12.844  19.925  0.00  0.00    +0.000 C 
BRANCH  27  28
ATOM     28  C   UNL     1       0.981  13.994  19.276  0.00  0.00    +0.000 C 
BRANCH  28  33
ATOM     29  C   UNL     1       0.891  18.277  16.984  0.00  0.00    +0.000 C 
ATOM     30  N   UNL     1       0.872  17.618  18.284  0.00  0.00    +0.000 NA
ATOM     31  C   UNL     1       2.112  16.856  18.519  0.00  0.00    +0.000 C 
ATOM     32  C   UNL     1       2.088  16.116  19.878  0.00  0.00    +0.000 C 
ATOM     33  N   UNL     1       0.923  15.222  20.079  0.00  0.00    +0.000 NA
ATOM     34  C   UNL     1      -0.303  16.004  19.790  0.00  0.00    +0.000 C 
ATOM     35  C   UNL     1      -0.299  16.737  18.426  0.00  0.00    +0.000 C 
ENDBRANCH  28  33
ENDBRANCH  27  28
ENDBRANCH  26  27
ENDBRANCH   1  26
TORSDOF 5
ENDMDL
MODEL 3
REMARK VINA RESULT:      -7.4      1.376      1.801
REMARK  Name = 
REMARK  6 active torsions:
REMARK  status: ('A' for Active; 'I' for Inactive)
REMARK    1  A    between atoms: C_1  and  N_2
REMARK    2  A    between atoms: N_5  and  C_6
REMARK    3  A    between atoms: C_6  and  C_7
REMARK    4  A    between atoms: C_7  and  C_8
REMARK    5  A    between atoms: C_8  and  N_9
REMARK    6  A    between atoms: C_15  and  N_16
REMARK                            x       y       z     vdW  Elec       q    Type
REMARK                         _______ _______ _______ _____ _____    ______ ____
ROOT
ATOM      1  N   UNL     1      -0.454  11.757  20.111  0.00  0.00    +0.000 N 
ATOM      2  C   UNL     1      -1.589  12.385  20.609  0.00  0.00    +0.000 A 
ATOM      3  C   UNL     1      -2.764  12.318  19.953  0.00  0.00    +0.000 A 
ATOM      4  C   UNL     1      -2.904  11.657  18.672  0.00  0.00    +0.000 A 
ATOM      5  C   UNL     1      -4.072  11.731  17.912  0.00  0.00    +0.000 A 
ATOM      6  C   UNL     1      -4.166  11.061  16.692  0.00  0.00    +0.000 A 
ATOM      7  C   UNL     1      -3.126  10.242  16.248  0.00  0.00    +0.000 A 
ATOM      8  C   UNL     1      -1.925  10.238  16.963  0.00  0.00    +0.000 A 
ATOM      9  C   UNL     1      -1.810  10.950  18.170  0.00  0.00    +0.000 A 
ATOM     10  C   UNL     1      -0.505  11.010  18.899  0.00  0.00    +0.000 A 
ATOM     11  O   UNL     1       0.465  10.434  18.410  0.00  0.00    +0.000 OA
ATOM     12  C   UNL     1      -3.815  12.963  20.758  0.00  0.00    +0.000 C 
ATOM     13  O   UNL     1      -5.002  13.048  20.525  0.00  0.00    +0.000 OA
ATOM     14  C   UNL     1      -3.153  13.489  21.935  0.00  0.00    +0.000 A 
ATOM     15  C   UNL     1      -3.755  14.206  22.957  0.00  0.00    +0.000 A 
ATOM     16  C   UNL     1      -2.898  14.631  23.936  0.00  0.00    +0.000 A 
ATOM     17  C   UNL     1      -1.541  14.366  23.883  0.00  0.00    +0.000 A 
ATOM     18  C   UNL     1      -0.951  13.638  22.854  0.00  0.00    +0.000 A 
ATOM     19  C   UNL     1      -1.784  13.168  21.845  0.00  0.00    +0.000 A 
ATOM     20  O   UNL     1      -0.881  14.905  24.947  0.00  0.00    +0.000 OA
ATOM     21  C   UNL     1      -1.970  15.518  25.673  0.00  0.00    +0.000 C 
ATOM     22  O   UNL     1      -3.249  15.357  25.028  0.00  0.00    +0.000 OA
ENDROOT
BRANCH   7  23
ATOM     23  N   UNL     1      -3.222   9.632  14.990  0.00  0.00    +0.000 N 
ATOM     24  H   UNL     1      -4.022   9.010  14.902  0.00  0.00    +0.000 HD
ATOM     25  H   UNL     1      -2.360   9.184  14.693  0.00  0.00    +0.000 HD
ENDBRANCH   7  23
BRANCH   1  26
ATOM     26  C   UNL     1       0.859  11.838  20.755  0.00  0.00    +0.000 C 
BRANCH  26  27
ATOM     27  C   UNL     1       1.806  12.770  19.991  0.00  0.00    +0.000 C 
BRANCH  27  28
ATOM     28  C   UNL     1       1.559  14.257  20.282  0.00  0.00    +0.000 C 
BRANCH  28  33
ATOM     29  C   UNL     1      -1.035  18.332  20.806  0.00  0.00    +0.000 C 
ATOM     30  N   UNL     1      -0.324  17.483  19.858  0.00  0.00    +0.000 NA
ATOM     31  C   UNL     1      -0.936  16.144  19.771  0.00  0.00    +0.000 C 
ATOM     32  C   UNL     1      -0.166  15.218  18.800  0.00  0.00    +0.000 C 
ATOM     33  N   UNL     1       1.280  15.073  19.093  0.00  0.00    +0.000 NA
ATOM     34  C   UNL     1       1.855  16.434  19.221  0.00  0.00    +0.000 C 
ATOM     35  C   UNL     1       1.103  17.367  20.202  0.00  0.00    +0.000 C 
ENDBRANCH  28  33
ENDBRANCH  27  28
ENDBRANCH  26  27
ENDBRANCH   1  26
TORSDOF 5
ENDMDL
MODEL 4
REMARK VINA RESULT:      -7.4      2.671      6.524
REMARK  Name = 
REMARK  6 active torsions:
REMARK  status: ('A' for Active; 'I' for Inactive)
REMARK    1  A    between atoms: C_1  and  N_2
REMARK    2  A    between atoms: N_5  and  C_6
REMARK    3  A    between atoms: C_6  and  C_7
REMARK    4  A    between atoms: C_7  and  C_8
REMARK    5  A    between atoms: C_8  and  N_9
REMARK    6  A    between atoms: C_15  and  N_16
REMARK                            x       y       z     vdW  Elec       q    Type
REMARK                         _______ _______ _______ _____ _____    ______ ____
ROOT
ATOM      1  N   UNL     1       0.038  11.735  21.667  0.00  0.00    +0.000 N 
ATOM      2  C   UNL     1       0.058  13.037  21.179  0.00  0.00    +0.000 A 
ATOM      3  C   UNL     1      -0.907  13.917  21.509  0.00  0.00    +0.000 A 
ATOM      4  C   UNL     1      -2.048  13.553  22.323  0.00  0.00    +0.000 A 
ATOM      5  C   UNL     1      -3.131  14.408  22.525  0.00  0.00    +0.000 A 
ATOM      6  C   UNL     1      -4.199  14.020  23.334  0.00  0.00    +0.000 A 
ATOM      7  C   UNL     1      -4.168  12.803  24.017  0.00  0.00    +0.000 A 
ATOM      8  C   UNL     1      -3.129  11.909  23.746  0.00  0.00    +0.000 A 
ATOM      9  C   UNL     1      -2.072  12.279  22.895  0.00  0.00    +0.000 A 
ATOM     10  C   UNL     1      -0.998  11.300  22.543  0.00  0.00    +0.000 A 
ATOM     11  O   UNL     1      -1.069  10.163  23.005  0.00  0.00    +0.000 OA
ATOM     12  C   UNL     1      -0.575  15.241  20.957  0.00  0.00    +0.000 C 
ATOM     13  O   UNL     1      -1.171  16.289  21.092  0.00  0.00    +0.000 OA
ATOM     14  C   UNL     1       0.650  15.066  20.203  0.00  0.00    +0.000 A 
ATOM     15  C   UNL     1       1.311  16.049  19.483  0.00  0.00    +0.000 A 
ATOM     16  C   UNL     1       2.426  15.614  18.818  0.00  0.00    +0.000 A 
ATOM     17  C   UNL     1       2.834  14.292  18.863  0.00  0.00    +0.000 A 
ATOM     18  C   UNL     1       2.164  13.318  19.597  0.00  0.00    +0.000 A 
ATOM     19  C   UNL     1       1.036  13.715  20.305  0.00  0.00    +0.000 A 
ATOM     20  O   UNL     1       3.950  14.085  18.109  0.00  0.00    +0.000 OA
ATOM     21  C   UNL     1       4.201  15.415  17.604  0.00  0.00    +0.000 C 
ATOM     22  O   UNL     1       3.229  16.385  18.041  0.00  0.00    +0.000 OA
ENDROOT
BRANCH   7  23
ATOM     23  N   UNL     1      -5.282  12.410  24.772  0.00  0.00    +0.000 N 
ATOM     24  H   UNL     1      -5.408  11.401  24.813  0.00  0.00    +0.000 HD
ATOM     25  H   UNL     1      -6.138  12.887  24.504  0.00  0.00    +0.000 HD
ENDBRANCH   7  23
BRANCH   1  26
ATOM     26  C   UNL     1       1.032  10.723  21.303  0.00  0.00    +0.000 C 
BRANCH  26  27
ATOM     27  C   UNL     1       0.766  10.148  19.907  0.00  0.00    +0.000 C 
BRANCH  27  28
ATOM     28  C   UNL     1      -0.717  10.178  19.511  0.00  0.00    +0.000 C 
BRANCH  28  33
ATOM     29  C   UNL     1      -5.340  10.823  18.161  0.00  0.00    +0.000 C 
ATOM     30  N   UNL     1      -3.946  11.031  17.786  0.00  0.00    +0.000 NA
ATOM     31  C   UNL     1      -3.234   9.749  17.633  0.00  0.00    +0.000 C 
ATOM     32  C   UNL     1      -1.742   9.956  17.277  0.00  0.00    +0.000 C 
ATOM     33  N   UNL     1      -0.991  10.820  18.219  0.00  0.00    +0.000 NA
ATOM     34  C   UNL     1      -1.756  12.078  18.387  0.00  0.00    +0.000 C 
ATOM     35  C   UNL     1      -3.247  11.887  18.759  0.00  0.00    +0.000 C 
ENDBRANCH  28  33
ENDBRANCH  27  28
ENDBRANCH  26  27
ENDBRANCH   1  26
TORSDOF 5
ENDMDL
MODEL 5
REMARK VINA RESULT:      -7.3      0.811      1.318
REMARK  Name = 
REMARK  6 active torsions:
REMARK  status: ('A' for Active; 'I' for Inactive)
REMARK    1  A    between atoms: C_1  and  N_2
REMARK    2  A    between atoms: N_5  and  C_6
REMARK    3  A    between atoms: C_6  and  C_7
REMARK    4  A    between atoms: C_7  and  C_8
REMARK    5  A    between atoms: C_8  and  N_9
REMARK    6  A    between atoms: C_15  and  N_16
REMARK                            x       y       z     vdW  Elec       q    Type
REMARK                         _______ _______ _______ _____ _____    ______ ____
ROOT
ATOM      1  N   UNL     1      -0.464  11.709  20.110  0.00  0.00    +0.000 N 
ATOM      2  C   UNL     1      -1.592  12.364  20.592  0.00  0.00    +0.000 A 
ATOM      3  C   UNL     1      -2.761  12.316  19.923  0.00  0.00    +0.000 A 
ATOM      4  C   UNL     1      -2.900  11.650  18.645  0.00  0.00    +0.000 A 
ATOM      5  C   UNL     1      -4.057  11.742  17.872  0.00  0.00    +0.000 A 
ATOM      6  C   UNL     1      -4.151  11.066  16.655  0.00  0.00    +0.000 A 
ATOM      7  C   UNL     1      -3.124  10.224  16.227  0.00  0.00    +0.000 A 
ATOM      8  C   UNL     1      -1.931  10.200  16.955  0.00  0.00    +0.000 A 
ATOM      9  C   UNL     1      -1.815  10.918  18.160  0.00  0.00    +0.000 A 
ATOM     10  C   UNL     1      -0.517  10.956  18.902  0.00  0.00    +0.000 A 
ATOM     11  O   UNL     1       0.446  10.358  18.427  0.00  0.00    +0.000 OA
ATOM     12  C   UNL     1      -3.806  12.987  20.712  0.00  0.00    +0.000 C 
ATOM     13  O   UNL     1      -4.989  13.095  20.466  0.00  0.00    +0.000 OA
ATOM     14  C   UNL     1      -3.147  13.507  21.893  0.00  0.00    +0.000 A 
ATOM     15  C   UNL     1      -3.746  14.243  22.904  0.00  0.00    +0.000 A 
ATOM     16  C   UNL     1      -2.890  14.657  23.889  0.00  0.00    +0.000 A 
ATOM     17  C   UNL     1      -1.539  14.365  23.854  0.00  0.00    +0.000 A 
ATOM     18  C   UNL     1      -0.952  13.618  22.836  0.00  0.00    +0.000 A 
ATOM     19  C   UNL     1      -1.784  13.159  21.821  0.00  0.00    +0.000 A 
ATOM     20  O   UNL     1      -0.880  14.897  24.922  0.00  0.00    +0.000 OA
ATOM     21  C   UNL     1      -1.965  15.536  25.631  0.00  0.00    +0.000 C 
ATOM     22  O   UNL     1      -3.239  15.397  24.973  0.00  0.00    +0.000 OA
ENDROOT
BRANCH   7  23
ATOM     23  N   UNL     1      -3.218   9.608  14.972  0.00  0.00    +0.000 N 
ATOM     24  H   UNL     1      -2.382   9.721  14.402  0.00  0.00    +0.000 HD
ATOM     25  H   UNL     1      -4.060   9.858  14.462  0.00  0.00    +0.000 HD
ENDBRANCH   7  23
BRANCH   1  26
ATOM     26  C   UNL     1       0.843  11.768  20.768  0.00  0.00    +0.000 C 
BRANCH  26  27
ATOM     27  C   UNL     1       1.835  12.629  19.977  0.00  0.00    +0.000 C 
BRANCH  27  28
ATOM     28  C   UNL     1       1.555  14.135  20.090  0.00  0.00    +0.000 C 
BRANCH  28  33
ATOM     29  C   UNL     1       5.366  17.052  19.331  0.00  0.00    +0.000 C 
ATOM     30  N   UNL     1       4.132  16.527  18.760  0.00  0.00    +0.000 NA
ATOM     31  C   UNL     1       2.957  16.927  19.557  0.00  0.00    +0.000 C 
ATOM     32  C   UNL     1       1.644  16.341  18.986  0.00  0.00    +0.000 C 
ATOM     33  N   UNL     1       1.640  14.868  18.820  0.00  0.00    +0.000 NA
ATOM     34  C   UNL     1       2.855  14.495  18.057  0.00  0.00    +0.000 C 
ATOM     35  C   UNL     1       4.179  15.061  18.627  0.00  0.00    +0.000 C 
ENDBRANCH  28  33
ENDBRANCH  27  28
ENDBRANCH  26  27
ENDBRANCH   1  26
TORSDOF 5
ENDMDL
MODEL 6
REMARK VINA RESULT:      -7.2      3.347      6.335
REMARK  Name = 
REMARK  6 active torsions:
REMARK  status: ('A' for Active; 'I' for Inactive)
REMARK    1  A    between atoms: C_1  and  N_2
REMARK    2  A    between atoms: N_5  and  C_6
REMARK    3  A    between atoms: C_6  and  C_7
REMARK    4  A    between atoms: C_7  and  C_8
REMARK    5  A    between atoms: C_8  and  N_9
REMARK    6  A    between atoms: C_15  and  N_16
REMARK                            x       y       z     vdW  Elec       q    Type
REMARK                         _______ _______ _______ _____ _____    ______ ____
ROOT
ATOM      1  N   UNL     1      -0.716  11.301  19.163  0.00  0.00    +0.000 N 
ATOM      2  C   UNL     1      -0.912  11.302  20.539  0.00  0.00    +0.000 A 
ATOM      3  C   UNL     1      -0.303  10.396  21.328  0.00  0.00    +0.000 A 
ATOM      4  C   UNL     1       0.528   9.335  20.796  0.00  0.00    +0.000 A 
ATOM      5  C   UNL     1       1.021   8.298  21.589  0.00  0.00    +0.000 A 
ATOM      6  C   UNL     1       1.834   7.309  21.035  0.00  0.00    +0.000 A 
ATOM      7  C   UNL     1       2.234   7.381  19.699  0.00  0.00    +0.000 A 
ATOM      8  C   UNL     1       1.670   8.368  18.885  0.00  0.00    +0.000 A 
ATOM      9  C   UNL     1       0.813   9.340  19.430  0.00  0.00    +0.000 A 
ATOM     10  C   UNL     1       0.149  10.351  18.549  0.00  0.00    +0.000 A 
ATOM     11  O   UNL     1       0.360  10.301  17.339  0.00  0.00    +0.000 OA
ATOM     12  C   UNL     1      -0.589  10.700  22.739  0.00  0.00    +0.000 C 
ATOM     13  O   UNL     1      -0.170  10.145  23.733  0.00  0.00    +0.000 OA
ATOM     14  C   UNL     1      -1.486  11.837  22.731  0.00  0.00    +0.000 A 
ATOM     15  C   UNL     1      -2.043  12.444  23.846  0.00  0.00    +0.000 A 
ATOM     16  C   UNL     1      -2.899  13.475  23.564  0.00  0.00    +0.000 A 
ATOM     17  C   UNL     1      -3.181  13.856  22.264  0.00  0.00    +0.000 A 
ATOM     18  C   UNL     1      -2.608  13.242  21.155  0.00  0.00    +0.000 A 
ATOM     19  C   UNL     1      -1.717  12.201  21.390  0.00  0.00    +0.000 A 
ATOM     20  O   UNL     1      -4.074  14.885  22.224  0.00  0.00    +0.000 OA
ATOM     21  C   UNL     1      -4.305  15.113  23.632  0.00  0.00    +0.000 C 
ATOM     22  O   UNL     1      -3.571  14.213  24.485  0.00  0.00    +0.000 OA
ENDROOT
BRANCH   7  23
ATOM     23  N   UNL     1       2.998   6.341  19.154  0.00  0.00    +0.000 N 
ATOM     24  H   UNL     1       2.510   5.448  19.134  0.00  0.00    +0.000 HD
ATOM     25  H   UNL     1       3.921   6.259  19.568  0.00  0.00    +0.000 HD
ENDBRANCH   7  23
BRANCH   1  26
ATOM     26  C   UNL     1      -1.391  12.230  18.253  0.00  0.00    +0.000 C 
BRANCH  26  27
ATOM     27  C   UNL     1      -2.607  11.581  17.584  0.00  0.00    +0.000 C 
BRANCH  27  28
ATOM     28  C   UNL     1      -3.790  11.377  18.542  0.00  0.00    +0.000 C 
BRANCH  28  33
ATOM     29  C   UNL     1      -7.913  10.448  20.939  0.00  0.00    +0.000 C 
ATOM     30  N   UNL     1      -7.291  11.268  19.906  0.00  0.00    +0.000 NA
ATOM     31  C   UNL     1      -6.809  10.444  18.782  0.00  0.00    +0.000 C 
ATOM     32  C   UNL     1      -6.108  11.297  17.698  0.00  0.00    +0.000 C 
ATOM     33  N   UNL     1      -4.995  12.141  18.194  0.00  0.00    +0.000 NA
ATOM     34  C   UNL     1      -5.498  12.920  19.351  0.00  0.00    +0.000 C 
ATOM     35  C   UNL     1      -6.188  12.077  20.451  0.00  0.00    +0.000 C 
ENDBRANCH  28  33
ENDBRANCH  27  28
ENDBRANCH  26  27
ENDBRANCH   1  26
TORSDOF 5
ENDMDL
MODEL 7
REMARK VINA RESULT:      -7.1      0.851      1.027
REMARK  Name = 
REMARK  6 active torsions:
REMARK  status: ('A' for Active; 'I' for Inactive)
REMARK    1  A    between atoms: C_1  and  N_2
REMARK    2  A    between atoms: N_5  and  C_6
REMARK    3  A    between atoms: C_6  and  C_7
REMARK    4  A    between atoms: C_7  and  C_8
REMARK    5  A    between atoms: C_8  and  N_9
REMARK    6  A    between atoms: C_15  and  N_16
REMARK                            x       y       z     vdW  Elec       q    Type
REMARK                         _______ _______ _______ _____ _____    ______ ____
ROOT
ATOM      1  N   UNL     1      -0.641  11.486  19.952  0.00  0.00    +0.000 N 
ATOM      2  C   UNL     1      -1.734  12.210  20.413  0.00  0.00    +0.000 A 
ATOM      3  C   UNL     1      -2.886  12.248  19.716  0.00  0.00    +0.000 A 
ATOM      4  C   UNL     1      -3.036  11.607  18.425  0.00  0.00    +0.000 A 
ATOM      5  C   UNL     1      -4.164  11.786  17.625  0.00  0.00    +0.000 A 
ATOM      6  C   UNL     1      -4.272  11.130  16.398  0.00  0.00    +0.000 A 
ATOM      7  C   UNL     1      -3.292  10.226  15.985  0.00  0.00    +0.000 A 
ATOM      8  C   UNL     1      -2.123  10.114  16.743  0.00  0.00    +0.000 A 
ATOM      9  C   UNL     1      -1.991  10.809  17.959  0.00  0.00    +0.000 A 
ATOM     10  C   UNL     1      -0.713  10.751  18.734  0.00  0.00    +0.000 A 
ATOM     11  O   UNL     1       0.220  10.095  18.276  0.00  0.00    +0.000 OA
ATOM     12  C   UNL     1      -3.904  12.980  20.486  0.00  0.00    +0.000 C 
ATOM     13  O   UNL     1      -5.070  13.170  20.211  0.00  0.00    +0.000 OA
ATOM     14  C   UNL     1      -3.242  13.441  21.690  0.00  0.00    +0.000 A 
ATOM     15  C   UNL     1      -3.816  14.204  22.694  0.00  0.00    +0.000 A 
ATOM     16  C   UNL     1      -2.961  14.549  23.706  0.00  0.00    +0.000 A 
ATOM     17  C   UNL     1      -1.631  14.166  23.701  0.00  0.00    +0.000 A 
ATOM     18  C   UNL     1      -1.070  13.393  22.689  0.00  0.00    +0.000 A 
ATOM     19  C   UNL     1      -1.904  13.002  21.647  0.00  0.00    +0.000 A 
ATOM     20  O   UNL     1      -0.966  14.641  24.792  0.00  0.00    +0.000 OA
ATOM     21  C   UNL     1      -2.024  15.344  25.482  0.00  0.00    +0.000 C 
ATOM     22  O   UNL     1      -3.287  15.299  24.790  0.00  0.00    +0.000 OA
ENDROOT
BRANCH   7  23
ATOM     23  N   UNL     1      -3.395   9.631  14.720  0.00  0.00    +0.000 N 
ATOM     24  H   UNL     1      -3.973  10.160  14.071  0.00  0.00    +0.000 HD
ATOM     25  H   UNL     1      -3.664   8.652  14.756  0.00  0.00    +0.000 HD
ENDBRANCH   7  23
BRANCH   1  26
ATOM     26  C   UNL     1       0.650  11.449  20.644  0.00  0.00    +0.000 C 
BRANCH  26  27
ATOM     27  C   UNL     1       1.704  12.290  19.915  0.00  0.00    +0.000 C 
BRANCH  27  28
ATOM     28  C   UNL     1       1.876  13.695  20.511  0.00  0.00    +0.000 C 
BRANCH  28  33
ATOM     29  C   UNL     1       1.083  18.375  19.472  0.00  0.00    +0.000 C 
ATOM     30  N   UNL     1       2.064  17.297  19.450  0.00  0.00    +0.000 NA
ATOM     31  C   UNL     1       1.630  16.193  18.575  0.00  0.00    +0.000 C 
ATOM     32  C   UNL     1       2.642  15.022  18.575  0.00  0.00    +0.000 C 
ATOM     33  N   UNL     1       2.966  14.480  19.917  0.00  0.00    +0.000 NA
ATOM     34  C   UNL     1       3.352  15.619  20.784  0.00  0.00    +0.000 C 
ATOM     35  C   UNL     1       2.340  16.791  20.805  0.00  0.00    +0.000 C 
ENDBRANCH  28  33
ENDBRANCH  27  28
ENDBRANCH  26  27
ENDBRANCH   1  26
TORSDOF 5
ENDMDL
MODEL 8
REMARK VINA RESULT:      -7.1      0.950      1.507
REMARK  Name = 
REMARK  6 active torsions:
REMARK  status: ('A' for Active; 'I' for Inactive)
REMARK    1  A    between atoms: C_1  and  N_2
REMARK    2  A    between atoms: N_5  and  C_6
REMARK    3  A    between atoms: C_6  and  C_7
REMARK    4  A    between atoms: C_7  and  C_8
REMARK    5  A    between atoms: C_8  and  N_9
REMARK    6  A    between atoms: C_15  and  N_16
REMARK                            x       y       z     vdW  Elec       q    Type
REMARK                         _______ _______ _______ _____ _____    ______ ____
ROOT
ATOM      1  N   UNL     1      -0.374  11.958  20.025  0.00  0.00    +0.000 N 
ATOM      2  C   UNL     1      -1.523  12.484  20.603  0.00  0.00    +0.000 A 
ATOM      3  C   UNL     1      -2.728  12.326  20.021  0.00  0.00    +0.000 A 
ATOM      4  C   UNL     1      -2.894  11.670  18.740  0.00  0.00    +0.000 A 
ATOM      5  C   UNL     1      -4.109  11.654  18.055  0.00  0.00    +0.000 A 
ATOM      6  C   UNL     1      -4.224  10.992  16.833  0.00  0.00    +0.000 A 
ATOM      7  C   UNL     1      -3.150  10.268  16.311  0.00  0.00    +0.000 A 
ATOM      8  C   UNL     1      -1.910  10.357  16.950  0.00  0.00    +0.000 A 
ATOM      9  C   UNL     1      -1.779  11.063  18.160  0.00  0.00    +0.000 A 
ATOM     10  C   UNL     1      -0.440  11.223  18.807  0.00  0.00    +0.000 A 
ATOM     11  O   UNL     1       0.542  10.737  18.249  0.00  0.00    +0.000 OA
ATOM     12  C   UNL     1      -3.775  12.872  20.899  0.00  0.00    +0.000 C 
ATOM     13  O   UNL     1      -4.978  12.860  20.742  0.00  0.00    +0.000 OA
ATOM     14  C   UNL     1      -3.086  13.438  22.041  0.00  0.00    +0.000 A 
ATOM     15  C   UNL     1      -3.680  14.091  23.110  0.00  0.00    +0.000 A 
ATOM     16  C   UNL     1      -2.800  14.576  24.041  0.00  0.00    +0.000 A 
ATOM     17  C   UNL     1      -1.432  14.426  23.899  0.00  0.00    +0.000 A 
ATOM     18  C   UNL     1      -0.850  13.761  22.825  0.00  0.00    +0.000 A 
ATOM     19  C   UNL     1      -1.704  13.234  21.862  0.00  0.00    +0.000 A 
ATOM     20  O   UNL     1      -0.753  15.006  24.930  0.00  0.00    +0.000 OA
ATOM     21  C   UNL     1      -1.842  15.518  25.731  0.00  0.00    +0.000 C 
ATOM     22  O   UNL     1      -3.141  15.257  25.164  0.00  0.00    +0.000 OA
ENDROOT
BRANCH   7  23
ATOM     23  N   UNL     1      -3.274   9.666  15.052  0.00  0.00    +0.000 N 
ATOM     24  H   UNL     1      -4.238   9.583  14.737  0.00  0.00    +0.000 HD
ATOM     25  H   UNL     1      -2.773   8.786  14.975  0.00  0.00    +0.000 HD
ENDBRANCH   7  23
BRANCH   1  26
ATOM     26  C   UNL     1       0.966  12.142  20.588  0.00  0.00    +0.000 C 
BRANCH  26  27
ATOM     27  C   UNL     1       1.660  13.376  20.000  0.00  0.00    +0.000 C 
BRANCH  27  28
ATOM     28  C   UNL     1       2.905  13.805  20.791  0.00  0.00    +0.000 C 
BRANCH  28  33
ATOM     29  C   UNL     1       6.673  14.884  17.919  0.00  0.00    +0.000 C 
ATOM     30  N   UNL     1       5.628  15.433  18.775  0.00  0.00    +0.000 NA
ATOM     31  C   UNL     1       5.782  14.981  20.169  0.00  0.00    +0.000 C 
ATOM     32  C   UNL     1       4.655  15.522  21.081  0.00  0.00    +0.000 C 
ATOM     33  N   UNL     1       3.280  15.215  20.619  0.00  0.00    +0.000 NA
ATOM     34  C   UNL     1       3.173  15.638  19.202  0.00  0.00    +0.000 C 
ATOM     35  C   UNL     1       4.286  15.090  18.276  0.00  0.00    +0.000 C 
ENDBRANCH  28  33
ENDBRANCH  27  28
ENDBRANCH  26  27
ENDBRANCH   1  26
TORSDOF 5
ENDMDL
MODEL 9
REMARK VINA RESULT:      -7.1      3.695      6.542
REMARK  Name = 
REMARK  6 active torsions:
REMARK  status: ('A' for Active; 'I' for Inactive)
REMARK    1  A    between atoms: C_1  and  N_2
REMARK    2  A    between atoms: N_5  and  C_6
REMARK    3  A    between atoms: C_6  and  C_7
REMARK    4  A    between atoms: C_7  and  C_8
REMARK    5  A    between atoms: C_8  and  N_9
REMARK    6  A    between atoms: C_15  and  N_16
REMARK                            x       y       z     vdW  Elec       q    Type
REMARK                         _______ _______ _______ _____ _____    ______ ____
ROOT
ATOM      1  N   UNL     1      -1.661  11.254  18.948  0.00  0.00    +0.000 N 
ATOM      2  C   UNL     1      -1.671  11.451  20.324  0.00  0.00    +0.000 A 
ATOM      3  C   UNL     1      -0.828  10.774  21.128  0.00  0.00    +0.000 A 
ATOM      4  C   UNL     1       0.079   9.761  20.629  0.00  0.00    +0.000 A 
ATOM      5  C   UNL     1       0.828   8.941  21.473  0.00  0.00    +0.000 A 
ATOM      6  C   UNL     1       1.704   7.992  20.944  0.00  0.00    +0.000 A 
ATOM      7  C   UNL     1       1.906   7.900  19.566  0.00  0.00    +0.000 A 
ATOM      8  C   UNL     1       1.093   8.658  18.718  0.00  0.00    +0.000 A 
ATOM      9  C   UNL     1       0.175   9.583  19.247  0.00  0.00    +0.000 A 
ATOM     10  C   UNL     1      -0.748  10.340  18.347  0.00  0.00    +0.000 A 
ATOM     11  O   UNL     1      -0.695  10.124  17.138  0.00  0.00    +0.000 OA
ATOM     12  C   UNL     1      -0.968  11.261  22.510  0.00  0.00    +0.000 C 
ATOM     13  O   UNL     1      -0.340  10.934  23.495  0.00  0.00    +0.000 OA
ATOM     14  C   UNL     1      -2.024  12.253  22.481  0.00  0.00    +0.000 A 
ATOM     15  C   UNL     1      -2.515  12.952  23.572  0.00  0.00    +0.000 A 
ATOM     16  C   UNL     1      -3.550  13.801  23.285  0.00  0.00    +0.000 A 
ATOM     17  C   UNL     1      -4.058  13.926  22.004  0.00  0.00    +0.000 A 
ATOM     18  C   UNL     1      -3.550  13.222  20.916  0.00  0.00    +0.000 A 
ATOM     19  C   UNL     1      -2.485  12.360  21.154  0.00  0.00    +0.000 A 
ATOM     20  O   UNL     1      -5.097  14.806  21.958  0.00  0.00    +0.000 OA
ATOM     21  C   UNL     1      -5.171  15.226  23.339  0.00  0.00    +0.000 C 
ATOM     22  O   UNL     1      -4.200  14.582  24.186  0.00  0.00    +0.000 OA
ENDROOT
BRANCH   7  23
ATOM     23  N   UNL     1       2.743   6.896  19.060  0.00  0.00    +0.000 N 
ATOM     24  H   UNL     1       2.288   6.300  18.372  0.00  0.00    +0.000 HD
ATOM     25  H   UNL     1       3.206   6.355  19.783  0.00  0.00    +0.000 HD
ENDBRANCH   7  23
BRANCH   1  26
ATOM     26  C   UNL     1      -2.587  11.926  18.032  0.00  0.00    +0.000 C 
BRANCH  26  27
ATOM     27  C   UNL     1      -3.956  11.237  18.009  0.00  0.00    +0.000 C 
BRANCH  27  28
ATOM     28  C   UNL     1      -5.116  12.203  17.732  0.00  0.00    +0.000 C 
BRANCH  28  33
ATOM     29  C   UNL     1      -7.792  12.699  21.757  0.00  0.00    +0.000 C 
ATOM     30  N   UNL     1      -7.751  12.139  20.412  0.00  0.00    +0.000 NA
ATOM     31  C   UNL     1      -6.676  11.139  20.277  0.00  0.00    +0.000 C 
ATOM     32  C   UNL     1      -6.594  10.567  18.842  0.00  0.00    +0.000 C 
ATOM     33  N   UNL     1      -6.448  11.585  17.774  0.00  0.00    +0.000 NA
ATOM     34  C   UNL     1      -7.513  12.599  17.965  0.00  0.00    +0.000 C 
ATOM     35  C   UNL     1      -7.595  13.191  19.393  0.00  0.00    +0.000 C 
ENDBRANCH  28  33
ENDBRANCH  27  28
ENDBRANCH  26  27
ENDBRANCH   1  26
TORSDOF 5
ENDMDL
