MODEL 1
REMARK VINA RESULT:      -8.7      0.000      0.000
REMARK  Name = 
REMARK  7 active torsions:
REMARK  status: ('A' for Active; 'I' for Inactive)
REMARK    1  A    between atoms: C_1  and  O_2
REMARK    2  A    between atoms: O_2  and  C_3
REMARK    3  A    between atoms: C_6  and  N_7
REMARK    4  A    between atoms: N_10  and  C_11
REMARK    5  A    between atoms: C_11  and  C_12
REMARK    6  A    between atoms: N_14  and  C_15
REMARK    7  A    between atoms: C_15  and  C_16
REMARK                            x       y       z     vdW  Elec       q    Type
REMARK                         _______ _______ _______ _____ _____    ______ ____
ROOT
ATOM      1  N   UNL     1       4.274   3.346  17.553  0.00  0.00    +0.000 N 
ATOM      2  C   UNL     1       2.833   3.377  17.216  0.00  0.00    +0.000 C 
ATOM      3  C   UNL     1       2.106   2.206  17.930  0.00  0.00    +0.000 C 
ATOM      4  N   UNL     1       2.268   2.171  19.405  0.00  0.00    +0.000 NA
ATOM      5  C   UNL     1       3.710   2.250  19.708  0.00  0.00    +0.000 C 
ATOM      6  C   UNL     1       4.524   3.360  18.992  0.00  0.00    +0.000 C 
ENDROOT
BRANCH   1  10
ATOM      7  C   UNL     1       7.055   5.090  14.882  0.00  0.00    +0.000 A 
ATOM      8  C   UNL     1       7.348   5.031  16.235  0.00  0.00    +0.000 A 
ATOM      9  C   UNL     1       6.423   4.489  17.141  0.00  0.00    +0.000 A 
ATOM     10  C   UNL     1       5.174   4.006  16.716  0.00  0.00    +0.000 A 
ATOM     11  C   UNL     1       4.892   4.119  15.351  0.00  0.00    +0.000 A 
ATOM     12  C   UNL     1       5.809   4.655  14.442  0.00  0.00    +0.000 A 
BRANCH   7  14
ATOM     13  C   UNL     1       7.956   5.187  12.709  0.00  0.00    +0.000 C 
ATOM     14  O   UNL     1       8.044   5.580  14.076  0.00  0.00    +0.000 OA
ENDBRANCH   7  14
ENDBRANCH   1  10
BRANCH   4  15
ATOM     15  C   UNL     1       1.390   3.168  20.051  0.00  0.00    +0.000 C 
BRANCH  15  16
ATOM     16  C   UNL     1       2.033   3.890  21.253  0.00  0.00    +0.000 C 
ATOM     17  O   UNL     1       2.207   3.338  22.340  0.00  0.00    +0.000 OA
ATOM     18  N   UNL     1       2.392   5.213  21.124  0.00  0.00    +0.000 N 
ATOM     19  H   UNL     1       2.896   5.559  21.932  0.00  0.00    +0.000 HD
BRANCH  18  20
ATOM     20  C   UNL     1       2.608   5.868  19.866  0.00  0.00    +0.000 C 
BRANCH  20  21
ATOM     21  C   UNL     1       2.100   7.264  19.753  0.00  0.00    +0.000 A 
ATOM     22  C   UNL     1       2.192   7.947  18.532  0.00  0.00    +0.000 A 
ATOM     23  C   UNL     1       1.622   9.210  18.396  0.00  0.00    +0.000 A 
ATOM     24  C   UNL     1       0.962   9.789  19.480  0.00  0.00    +0.000 A 
ATOM     25 CL   UNL     1       0.270  11.353  19.316  0.00  0.00    +0.000 Cl
ATOM     26  C   UNL     1       0.851   9.108  20.692  0.00  0.00    +0.000 A 
ATOM     27  C   UNL     1       1.420   7.846  20.830  0.00  0.00    +0.000 A 
ENDBRANCH  20  21
ENDBRANCH  18  20
ENDBRANCH  15  16
ENDBRANCH   4  15
TORSDOF 6
ENDMDL
MODEL 2
REMARK VINA RESULT:      -7.7      3.044      7.182
REMARK  Name = 
REMARK  7 active torsions:
REMARK  status: ('A' for Active; 'I' for Inactive)
REMARK    1  A    between atoms: C_1  and  O_2
REMARK    2  A    between atoms: O_2  and  C_3
REMARK    3  A    between atoms: C_6  and  N_7
REMARK    4  A    between atoms: N_10  and  C_11
REMARK    5  A    between atoms: C_11  and  C_12
REMARK    6  A    between atoms: N_14  and  C_15
REMARK    7  A    between atoms: C_15  and  C_16
REMARK                            x       y       z     vdW  Elec       q    Type
REMARK                         _______ _______ _______ _____ _____    ______ ____
ROOT
ATOM      1  N   UNL     1       2.077   6.827  20.400  0.00  0.00    +0.000 N 
ATOM      2  C   UNL     1       3.085   6.590  19.342  0.00  0.00    +0.000 C 
ATOM      3  C   UNL     1       3.927   5.334  19.696  0.00  0.00    +0.000 C 
ATOM      4  N   UNL     1       3.143   4.093  19.917  0.00  0.00    +0.000 NA
ATOM      5  C   UNL     1       2.081   4.394  20.896  0.00  0.00    +0.000 C 
ATOM      6  C   UNL     1       1.227   5.664  20.647  0.00  0.00    +0.000 C 
ENDROOT
BRANCH   1  10
ATOM      7  C   UNL     1       0.122  10.554  20.828  0.00  0.00    +0.000 A 
ATOM      8  C   UNL     1       0.622  10.180  19.590  0.00  0.00    +0.000 A 
ATOM      9  C   UNL     1       1.304   8.963  19.437  0.00  0.00    +0.000 A 
ATOM     10  C   UNL     1       1.518   8.098  20.523  0.00  0.00    +0.000 A 
ATOM     11  C   UNL     1       1.039   8.525  21.765  0.00  0.00    +0.000 A 
ATOM     12  C   UNL     1       0.355   9.733  21.926  0.00  0.00    +0.000 A 
BRANCH   7  14
ATOM     13  C   UNL     1      -0.889  12.207  22.166  0.00  0.00    +0.000 C 
ATOM     14  O   UNL     1      -0.579  11.728  20.860  0.00  0.00    +0.000 OA
ENDBRANCH   7  14
ENDBRANCH   1  10
BRANCH   4  15
ATOM     15  C   UNL     1       2.723   3.504  18.629  0.00  0.00    +0.000 C 
BRANCH  15  16
ATOM     16  C   UNL     1       3.651   2.384  18.116  0.00  0.00    +0.000 C 
ATOM     17  O   UNL     1       3.554   1.217  18.499  0.00  0.00    +0.000 OA
ATOM     18  N   UNL     1       4.652   2.702  17.225  0.00  0.00    +0.000 N 
ATOM     19  H   UNL     1       5.134   1.883  16.875  0.00  0.00    +0.000 HD
BRANCH  18  20
ATOM     20  C   UNL     1       4.660   3.884  16.414  0.00  0.00    +0.000 C 
BRANCH  20  21
ATOM     21  C   UNL     1       5.625   4.949  16.808  0.00  0.00    +0.000 A 
ATOM     22  C   UNL     1       5.354   6.290  16.502  0.00  0.00    +0.000 A 
ATOM     23  C   UNL     1       6.201   7.294  16.963  0.00  0.00    +0.000 A 
ATOM     24  C   UNL     1       7.318   6.958  17.726  0.00  0.00    +0.000 A 
ATOM     25 CL   UNL     1       8.370   8.197  18.284  0.00  0.00    +0.000 Cl
ATOM     26  C   UNL     1       7.585   5.628  18.049  0.00  0.00    +0.000 A 
ATOM     27  C   UNL     1       6.740   4.622  17.589  0.00  0.00    +0.000 A 
ENDBRANCH  20  21
ENDBRANCH  18  20
ENDBRANCH  15  16
ENDBRANCH   4  15
TORSDOF 6
ENDMDL
MODEL 3
REMARK VINA RESULT:      -7.7      1.798      2.322
REMARK  Name = 
REMARK  7 active torsions:
REMARK  status: ('A' for Active; 'I' for Inactive)
REMARK    1  A    between atoms: C_1  and  O_2
REMARK    2  A    between atoms: O_2  and  C_3
REMARK    3  A    between atoms: C_6  and  N_7
REMARK    4  A    between atoms: N_10  and  C_11
REMARK    5  A    between atoms: C_11  and  C_12
REMARK    6  A    between atoms: N_14  and  C_15
REMARK    7  A    between atoms: C_15  and  C_16
REMARK                            x       y       z     vdW  Elec       q    Type
REMARK                         _______ _______ _______ _____ _____    ______ ____
ROOT
ATOM      1  N   UNL     1       4.964   3.930  18.369  0.00  0.00    +0.000 N 
ATOM      2  C   UNL     1       3.756   3.616  17.573  0.00  0.00    +0.000 C 
ATOM      3  C   UNL     1       3.322   2.149  17.841  0.00  0.00    +0.000 C 
ATOM      4  N   UNL     1       3.076   1.816  19.265  0.00  0.00    +0.000 NA
ATOM      5  C   UNL     1       4.255   2.239  20.044  0.00  0.00    +0.000 C 
ATOM      6  C   UNL     1       4.788   3.675  19.797  0.00  0.00    +0.000 C 
ENDROOT
BRANCH   1  10
ATOM      7  C   UNL     1       7.328   7.314  17.438  0.00  0.00    +0.000 A 
ATOM      8  C   UNL     1       6.193   7.042  16.689  0.00  0.00    +0.000 A 
ATOM      9  C   UNL     1       5.416   5.905  16.960  0.00  0.00    +0.000 A 
ATOM     10  C   UNL     1       5.765   5.002  17.978  0.00  0.00    +0.000 A 
ATOM     11  C   UNL     1       6.938   5.281  18.686  0.00  0.00    +0.000 A 
ATOM     12  C   UNL     1       7.715   6.413  18.425  0.00  0.00    +0.000 A 
BRANCH   7  14
ATOM     13  C   UNL     1       8.433   9.222  18.262  0.00  0.00    +0.000 C 
ATOM     14  O   UNL     1       7.981   8.475  17.136  0.00  0.00    +0.000 OA
ENDBRANCH   7  14
ENDBRANCH   1  10
BRANCH   4  15
ATOM     15  C   UNL     1       1.762   2.330  19.703  0.00  0.00    +0.000 C 
BRANCH  15  16
ATOM     16  C   UNL     1       1.810   3.156  21.004  0.00  0.00    +0.000 C 
ATOM     17  O   UNL     1       1.890   2.634  22.117  0.00  0.00    +0.000 OA
ATOM     18  N   UNL     1       1.721   4.529  20.928  0.00  0.00    +0.000 N 
ATOM     19  H   UNL     1       1.866   4.977  21.825  0.00  0.00    +0.000 HD
BRANCH  18  20
ATOM     20  C   UNL     1       2.002   5.287  19.744  0.00  0.00    +0.000 C 
BRANCH  20  21
ATOM     21  C   UNL     1       1.806   6.761  19.842  0.00  0.00    +0.000 A 
ATOM     22  C   UNL     1       2.067   7.579  18.734  0.00  0.00    +0.000 A 
ATOM     23  C   UNL     1       1.783   8.941  18.791  0.00  0.00    +0.000 A 
ATOM     24  C   UNL     1       1.239   9.483  19.955  0.00  0.00    +0.000 A 
ATOM     25 CL   UNL     1       0.900  11.166  20.029  0.00  0.00    +0.000 Cl
ATOM     26  C   UNL     1       0.960   8.673  21.055  0.00  0.00    +0.000 A 
ATOM     27  C   UNL     1       1.244   7.312  21.000  0.00  0.00    +0.000 A 
ENDBRANCH  20  21
ENDBRANCH  18  20
ENDBRANCH  15  16
ENDBRANCH   4  15
TORSDOF 6
ENDMDL
MODEL 4
REMARK VINA RESULT:      -7.7      3.035      6.986
REMARK  Name = 
REMARK  7 active torsions:
REMARK  status: ('A' for Active; 'I' for Inactive)
REMARK    1  A    between atoms: C_1  and  O_2
REMARK    2  A    between atoms: O_2  and  C_3
REMARK    3  A    between atoms: C_6  and  N_7
REMARK    4  A    between atoms: N_10  and  C_11
REMARK    5  A    between atoms: C_11  and  C_12
REMARK    6  A    between atoms: N_14  and  C_15
REMARK    7  A    between atoms: C_15  and  C_16
REMARK                            x       y       z     vdW  Elec       q    Type
REMARK                         _______ _______ _______ _____ _____    ______ ____
ROOT
ATOM      1  N   UNL     1       2.014   6.801  20.343  0.00  0.00    +0.000 N 
ATOM      2  C   UNL     1       3.049   6.552  19.314  0.00  0.00    +0.000 C 
ATOM      3  C   UNL     1       3.877   5.297  19.701  0.00  0.00    +0.000 C 
ATOM      4  N   UNL     1       3.084   4.060  19.913  0.00  0.00    +0.000 NA
ATOM      5  C   UNL     1       1.997   4.372  20.861  0.00  0.00    +0.000 C 
ATOM      6  C   UNL     1       1.154   5.642  20.578  0.00  0.00    +0.000 C 
ENDROOT
BRANCH   1  10
ATOM      7  C   UNL     1       0.585  10.776  20.583  0.00  0.00    +0.000 A 
ATOM      8  C   UNL     1       0.581   9.976  21.715  0.00  0.00    +0.000 A 
ATOM      9  C   UNL     1       1.019   8.644  21.647  0.00  0.00    +0.000 A 
ATOM     10  C   UNL     1       1.455   8.074  20.439  0.00  0.00    +0.000 A 
ATOM     11  C   UNL     1       1.405   8.894  19.307  0.00  0.00    +0.000 A 
ATOM     12  C   UNL     1       0.975  10.223  19.368  0.00  0.00    +0.000 A 
BRANCH   7  14
ATOM     13  C   UNL     1      -1.033  12.428  20.142  0.00  0.00    +0.000 C 
ATOM     14  O   UNL     1       0.197  12.074  20.765  0.00  0.00    +0.000 OA
ENDBRANCH   7  14
ENDBRANCH   1  10
BRANCH   4  15
ATOM     15  C   UNL     1       2.697   3.460  18.620  0.00  0.00    +0.000 C 
BRANCH  15  16
ATOM     16  C   UNL     1       3.662   2.367  18.118  0.00  0.00    +0.000 C 
ATOM     17  O   UNL     1       3.592   1.197  18.498  0.00  0.00    +0.000 OA
ATOM     18  N   UNL     1       4.667   2.713  17.242  0.00  0.00    +0.000 N 
ATOM     19  H   UNL     1       5.176   1.908  16.897  0.00  0.00    +0.000 HD
BRANCH  18  20
ATOM     20  C   UNL     1       4.653   3.897  16.433  0.00  0.00    +0.000 C 
BRANCH  20  21
ATOM     21  C   UNL     1       5.618   4.968  16.812  0.00  0.00    +0.000 A 
ATOM     22  C   UNL     1       5.337   6.306  16.508  0.00  0.00    +0.000 A 
ATOM     23  C   UNL     1       6.185   7.316  16.955  0.00  0.00    +0.000 A 
ATOM     24  C   UNL     1       7.313   6.986  17.705  0.00  0.00    +0.000 A 
ATOM     25 CL   UNL     1       8.367   8.231  18.246  0.00  0.00    +0.000 Cl
ATOM     26  C   UNL     1       7.590   5.658  18.027  0.00  0.00    +0.000 A 
ATOM     27  C   UNL     1       6.744   4.647  17.580  0.00  0.00    +0.000 A 
ENDBRANCH  20  21
ENDBRANCH  18  20
ENDBRANCH  15  16
ENDBRANCH   4  15
TORSDOF 6
ENDMDL
MODEL 5
REMARK VINA RESULT:      -7.5      3.019      7.041
REMARK  Name = 
REMARK  7 active torsions:
REMARK  status: ('A' for Active; 'I' for Inactive)
REMARK    1  A    between atoms: C_1  and  O_2
REMARK    2  A    between atoms: O_2  and  C_3
REMARK    3  A    between atoms: C_6  and  N_7
REMARK    4  A    between atoms: N_10  and  C_11
REMARK    5  A    between atoms: C_11  and  C_12
REMARK    6  A    between atoms: N_14  and  C_15
REMARK    7  A    between atoms: C_15  and  C_16
REMARK                            x       y       z     vdW  Elec       q    Type
REMARK                         _______ _______ _______ _____ _____    ______ ____
ROOT
ATOM      1  N   UNL     1       2.025   6.844  20.371  0.00  0.00    +0.000 N 
ATOM      2  C   UNL     1       3.101   6.577  19.390  0.00  0.00    +0.000 C 
ATOM      3  C   UNL     1       3.861   5.284  19.790  0.00  0.00    +0.000 C 
ATOM      4  N   UNL     1       3.013   4.074  19.934  0.00  0.00    +0.000 NA
ATOM      5  C   UNL     1       1.891   4.408  20.833  0.00  0.00    +0.000 C 
ATOM      6  C   UNL     1       1.112   5.715  20.536  0.00  0.00    +0.000 C 
ENDROOT
BRANCH   1  10
ATOM      7  C   UNL     1       0.199  10.645  20.722  0.00  0.00    +0.000 A 
ATOM      8  C   UNL     1       0.681  10.227  19.492  0.00  0.00    +0.000 A 
ATOM      9  C   UNL     1       1.321   8.984  19.363  0.00  0.00    +0.000 A 
ATOM     10  C   UNL     1       1.510   8.137  20.467  0.00  0.00    +0.000 A 
ATOM     11  C   UNL     1       1.051   8.607  21.702  0.00  0.00    +0.000 A 
ATOM     12  C   UNL     1       0.410   9.841  21.837  0.00  0.00    +0.000 A 
BRANCH   7  14
ATOM     13  C   UNL     1      -0.656  12.431  19.449  0.00  0.00    +0.000 C 
ATOM     14  O   UNL     1      -0.460  11.843  20.732  0.00  0.00    +0.000 OA
ENDBRANCH   7  14
ENDBRANCH   1  10
BRANCH   4  15
ATOM     15  C   UNL     1       2.670   3.516  18.610  0.00  0.00    +0.000 C 
BRANCH  15  16
ATOM     16  C   UNL     1       3.616   2.395  18.134  0.00  0.00    +0.000 C 
ATOM     17  O   UNL     1       3.505   1.229  18.517  0.00  0.00    +0.000 OA
ATOM     18  N   UNL     1       4.650   2.709  17.281  0.00  0.00    +0.000 N 
ATOM     19  H   UNL     1       5.144   1.889  16.951  0.00  0.00    +0.000 HD
BRANCH  18  20
ATOM     20  C   UNL     1       4.688   3.890  16.467  0.00  0.00    +0.000 C 
BRANCH  20  21
ATOM     21  C   UNL     1       5.553   5.001  16.955  0.00  0.00    +0.000 A 
ATOM     22  C   UNL     1       6.707   4.718  17.698  0.00  0.00    +0.000 A 
ATOM     23  C   UNL     1       7.571   5.747  18.062  0.00  0.00    +0.000 A 
ATOM     24  C   UNL     1       7.280   7.057  17.685  0.00  0.00    +0.000 A 
ATOM     25 CL   UNL     1       8.340   8.329  18.146  0.00  0.00    +0.000 Cl
ATOM     26  C   UNL     1       6.143   7.345  16.930  0.00  0.00    +0.000 A 
ATOM     27  C   UNL     1       5.278   6.317  16.566  0.00  0.00    +0.000 A 
ENDBRANCH  20  21
ENDBRANCH  18  20
ENDBRANCH  15  16
ENDBRANCH   4  15
TORSDOF 6
ENDMDL
MODEL 6
REMARK VINA RESULT:      -7.4      0.703      1.205
REMARK  Name = 
REMARK  7 active torsions:
REMARK  status: ('A' for Active; 'I' for Inactive)
REMARK    1  A    between atoms: C_1  and  O_2
REMARK    2  A    between atoms: O_2  and  C_3
REMARK    3  A    between atoms: C_6  and  N_7
REMARK    4  A    between atoms: N_10  and  C_11
REMARK    5  A    between atoms: C_11  and  C_12
REMARK    6  A    between atoms: N_14  and  C_15
REMARK    7  A    between atoms: C_15  and  C_16
REMARK                            x       y       z     vdW  Elec       q    Type
REMARK                         _______ _______ _______ _____ _____    ______ ____
ROOT
ATOM      1  N   UNL     1       4.587   3.375  17.131  0.00  0.00    +0.000 N 
ATOM      2  C   UNL     1       3.155   3.061  16.921  0.00  0.00    +0.000 C 
ATOM      3  C   UNL     1       2.680   2.051  18.001  0.00  0.00    +0.000 C 
ATOM      4  N   UNL     1       2.890   2.486  19.405  0.00  0.00    +0.000 NA
ATOM      5  C   UNL     1       4.300   2.893  19.550  0.00  0.00    +0.000 C 
ATOM      6  C   UNL     1       4.872   3.859  18.480  0.00  0.00    +0.000 C 
ENDROOT
BRANCH   1  10
ATOM      7  C   UNL     1       6.857   4.681  13.808  0.00  0.00    +0.000 A 
ATOM      8  C   UNL     1       7.363   4.838  15.089  0.00  0.00    +0.000 A 
ATOM      9  C   UNL     1       6.610   4.443  16.205  0.00  0.00    +0.000 A 
ATOM     10  C   UNL     1       5.323   3.896  16.067  0.00  0.00    +0.000 A 
ATOM     11  C   UNL     1       4.824   3.792  14.765  0.00  0.00    +0.000 A 
ATOM     12  C   UNL     1       5.570   4.179  13.649  0.00  0.00    +0.000 A 
BRANCH   7  14
ATOM     13  C   UNL     1       8.737   5.936  13.151  0.00  0.00    +0.000 C 
ATOM     14  O   UNL     1       7.691   5.041  12.786  0.00  0.00    +0.000 OA
ENDBRANCH   7  14
ENDBRANCH   1  10
BRANCH   4  15
ATOM     15  C   UNL     1       1.862   3.468  19.807  0.00  0.00    +0.000 C 
BRANCH  15  16
ATOM     16  C   UNL     1       2.211   4.258  21.085  0.00  0.00    +0.000 C 
ATOM     17  O   UNL     1       2.277   3.725  22.194  0.00  0.00    +0.000 OA
ATOM     18  N   UNL     1       2.418   5.616  20.996  0.00  0.00    +0.000 N 
ATOM     19  H   UNL     1       2.740   6.018  21.868  0.00  0.00    +0.000 HD
BRANCH  18  20
ATOM     20  C   UNL     1       2.747   6.300  19.779  0.00  0.00    +0.000 C 
BRANCH  20  21
ATOM     21  C   UNL     1       2.050   7.595  19.540  0.00  0.00    +0.000 A 
ATOM     22  C   UNL     1       1.370   8.231  20.588  0.00  0.00    +0.000 A 
ATOM     23  C   UNL     1       0.810   9.490  20.392  0.00  0.00    +0.000 A 
ATOM     24  C   UNL     1       0.928  10.112  19.150  0.00  0.00    +0.000 A 
ATOM     25 CL   UNL     1       0.225  11.661  18.905  0.00  0.00    +0.000 Cl
ATOM     26  C   UNL     1       1.618   9.494  18.107  0.00  0.00    +0.000 A 
ATOM     27  C   UNL     1       2.178   8.235  18.301  0.00  0.00    +0.000 A 
ENDBRANCH  20  21
ENDBRANCH  18  20
ENDBRANCH  15  16
ENDBRANCH   4  15
TORSDOF 6
ENDMDL
MODEL 7
REMARK VINA RESULT:      -7.2      3.162      7.696
REMARK  Name = 
REMARK  7 active torsions:
REMARK  status: ('A' for Active; 'I' for Inactive)
REMARK    1  A    between atoms: C_1  and  O_2
REMARK    2  A    between atoms: O_2  and  C_3
REMARK    3  A    between atoms: C_6  and  N_7
REMARK    4  A    between atoms: N_10  and  C_11
REMARK    5  A    between atoms: C_11  and  C_12
REMARK    6  A    between atoms: N_14  and  C_15
REMARK    7  A    between atoms: C_15  and  C_16
REMARK                            x       y       z     vdW  Elec       q    Type
REMARK                         _______ _______ _______ _____ _____    ______ ____
ROOT
ATOM      1  N   UNL     1       1.872   7.886  19.751  0.00  0.00    +0.000 N 
ATOM      2  C   UNL     1       2.109   7.856  18.291  0.00  0.00    +0.000 C 
ATOM      3  C   UNL     1       3.458   7.145  17.996  0.00  0.00    +0.000 C 
ATOM      4  N   UNL     1       3.578   5.772  18.544  0.00  0.00    +0.000 NA
ATOM      5  C   UNL     1       3.232   5.820  19.977  0.00  0.00    +0.000 C 
ATOM      6  C   UNL     1       1.925   6.560  20.365  0.00  0.00    +0.000 C 
ENDROOT
BRANCH   1  10
ATOM      7  C   UNL     1      -0.620  10.919  21.331  0.00  0.00    +0.000 A 
ATOM      8  C   UNL     1      -0.353   9.788  22.086  0.00  0.00    +0.000 A 
ATOM      9  C   UNL     1       0.443   8.755  21.566  0.00  0.00    +0.000 A 
ATOM     10  C   UNL     1       0.978   8.822  20.268  0.00  0.00    +0.000 A 
ATOM     11  C   UNL     1       0.654   9.956  19.517  0.00  0.00    +0.000 A 
ATOM     12  C   UNL     1      -0.134  10.990  20.030  0.00  0.00    +0.000 A 
BRANCH   7  14
ATOM     13  C   UNL     1      -1.866  11.537  23.230  0.00  0.00    +0.000 C 
ATOM     14  O   UNL     1      -1.354  11.892  21.949  0.00  0.00    +0.000 OA
ENDBRANCH   7  14
ENDBRANCH   1  10
BRANCH   4  15
ATOM     15  C   UNL     1       2.837   4.807  17.706  0.00  0.00    +0.000 C 
BRANCH  15  16
ATOM     16  C   UNL     1       3.317   3.349  17.847  0.00  0.00    +0.000 C 
ATOM     17  O   UNL     1       2.646   2.483  18.410  0.00  0.00    +0.000 OA
ATOM     18  N   UNL     1       4.560   3.004  17.363  0.00  0.00    +0.000 N 
ATOM     19  H   UNL     1       4.734   2.007  17.414  0.00  0.00    +0.000 HD
BRANCH  18  20
ATOM     20  C   UNL     1       5.277   3.762  16.378  0.00  0.00    +0.000 C 
BRANCH  20  21
ATOM     21  C   UNL     1       6.166   4.841  16.893  0.00  0.00    +0.000 A 
ATOM     22  C   UNL     1       6.236   6.071  16.226  0.00  0.00    +0.000 A 
ATOM     23  C   UNL     1       6.983   7.115  16.765  0.00  0.00    +0.000 A 
ATOM     24  C   UNL     1       7.660   6.927  17.969  0.00  0.00    +0.000 A 
ATOM     25 CL   UNL     1       8.592   8.212  18.628  0.00  0.00    +0.000 Cl
ATOM     26  C   UNL     1       7.581   5.712  18.648  0.00  0.00    +0.000 A 
ATOM     27  C   UNL     1       6.835   4.667  18.111  0.00  0.00    +0.000 A 
ENDBRANCH  20  21
ENDBRANCH  18  20
ENDBRANCH  15  16
ENDBRANCH   4  15
TORSDOF 6
ENDMDL
MODEL 8
REMARK VINA RESULT:      -7.2      2.170      2.761
REMARK  Name = 
REMARK  7 active torsions:
REMARK  status: ('A' for Active; 'I' for Inactive)
REMARK    1  A    between atoms: C_1  and  O_2
REMARK    2  A    between atoms: O_2  and  C_3
REMARK    3  A    between atoms: C_6  and  N_7
REMARK    4  A    between atoms: N_10  and  C_11
REMARK    5  A    between atoms: C_11  and  C_12
REMARK    6  A    between atoms: N_14  and  C_15
REMARK    7  A    between atoms: C_15  and  C_16
REMARK                            x       y       z     vdW  Elec       q    Type
REMARK                         _______ _______ _______ _____ _____    ______ ____
ROOT
ATOM      1  N   UNL     1       5.003   4.708  18.181  0.00  0.00    +0.000 N 
ATOM      2  C   UNL     1       3.894   4.875  17.215  0.00  0.00    +0.000 C 
ATOM      3  C   UNL     1       3.135   3.530  17.054  0.00  0.00    +0.000 C 
ATOM      4  N   UNL     1       2.609   2.950  18.314  0.00  0.00    +0.000 NA
ATOM      5  C   UNL     1       3.715   2.896  19.289  0.00  0.00    +0.000 C 
ATOM      6  C   UNL     1       4.560   4.184  19.472  0.00  0.00    +0.000 C 
ENDROOT
BRANCH   1  10
ATOM      7  C   UNL     1       8.110   7.573  18.381  0.00  0.00    +0.000 A 
ATOM      8  C   UNL     1       7.109   7.711  17.432  0.00  0.00    +0.000 A 
ATOM      9  C   UNL     1       6.090   6.752  17.327  0.00  0.00    +0.000 A 
ATOM     10  C   UNL     1       6.056   5.621  18.160  0.00  0.00    +0.000 A 
ATOM     11  C   UNL     1       7.104   5.489  19.077  0.00  0.00    +0.000 A 
ATOM     12  C   UNL     1       8.120   6.442  19.189  0.00  0.00    +0.000 A 
BRANCH   7  14
ATOM     13  C   UNL     1       8.502   9.882  18.144  0.00  0.00    +0.000 C 
ATOM     14  O   UNL     1       9.022   8.590  18.442  0.00  0.00    +0.000 OA
ENDBRANCH   7  14
ENDBRANCH   1  10
BRANCH   4  15
ATOM     15  C   UNL     1       1.376   3.645  18.735  0.00  0.00    +0.000 C 
BRANCH  15  16
ATOM     16  C   UNL     1       1.292   3.919  20.251  0.00  0.00    +0.000 C 
ATOM     17  O   UNL     1       1.006   3.042  21.067  0.00  0.00    +0.000 OA
ATOM     18  N   UNL     1       1.507   5.199  20.711  0.00  0.00    +0.000 N 
ATOM     19  H   UNL     1       1.530   5.250  21.723  0.00  0.00    +0.000 HD
BRANCH  18  20
ATOM     20  C   UNL     1       2.201   6.213  19.972  0.00  0.00    +0.000 C 
BRANCH  20  21
ATOM     21  C   UNL     1       1.671   7.600  20.094  0.00  0.00    +0.000 A 
ATOM     22  C   UNL     1       1.672   8.453  18.982  0.00  0.00    +0.000 A 
ATOM     23  C   UNL     1       1.080   9.710  19.067  0.00  0.00    +0.000 A 
ATOM     24  C   UNL     1       0.489  10.114  20.263  0.00  0.00    +0.000 A 
ATOM     25 CL   UNL     1      -0.229  11.671  20.372  0.00  0.00    +0.000 Cl
ATOM     26  C   UNL     1       0.469   9.265  21.369  0.00  0.00    +0.000 A 
ATOM     27  C   UNL     1       1.061   8.008  21.287  0.00  0.00    +0.000 A 
ENDBRANCH  20  21
ENDBRANCH  18  20
ENDBRANCH  15  16
ENDBRANCH   4  15
TORSDOF 6
ENDMDL
MODEL 9
REMARK VINA RESULT:      -7.2      1.899      2.604
REMARK  Name = 
REMARK  7 active torsions:
REMARK  status: ('A' for Active; 'I' for Inactive)
REMARK    1  A    between atoms: C_1  and  O_2
REMARK    2  A    between atoms: O_2  and  C_3
REMARK    3  A    between atoms: C_6  and  N_7
REMARK    4  A    between atoms: N_10  and  C_11
REMARK    5  A    between atoms: C_11  and  C_12
REMARK    6  A    between atoms: N_14  and  C_15
REMARK    7  A    between atoms: C_15  and  C_16
REMARK                            x       y       z     vdW  Elec       q    Type
REMARK                         _______ _______ _______ _____ _____    ______ ____
ROOT
ATOM      1  N   UNL     1       4.670   4.429  18.288  0.00  0.00    +0.000 N 
ATOM      2  C   UNL     1       3.338   4.632  17.675  0.00  0.00    +0.000 C 
ATOM      3  C   UNL     1       2.559   3.289  17.667  0.00  0.00    +0.000 C 
ATOM      4  N   UNL     1       2.399   2.645  18.995  0.00  0.00    +0.000 NA
ATOM      5  C   UNL     1       3.732   2.557  19.622  0.00  0.00    +0.000 C 
ATOM      6  C   UNL     1       4.600   3.842  19.624  0.00  0.00    +0.000 C 
ENDROOT
BRANCH   1  10
ATOM      7  C   UNL     1       7.676   7.355  17.731  0.00  0.00    +0.000 A 
ATOM      8  C   UNL     1       6.561   7.352  16.907  0.00  0.00    +0.000 A 
ATOM      9  C   UNL     1       5.570   6.368  17.054  0.00  0.00    +0.000 A 
ATOM     10  C   UNL     1       5.680   5.353  18.019  0.00  0.00    +0.000 A 
ATOM     11  C   UNL     1       6.837   5.359  18.804  0.00  0.00    +0.000 A 
ATOM     12  C   UNL     1       7.825   6.337  18.667  0.00  0.00    +0.000 A 
BRANCH   7  14
ATOM     13  C   UNL     1       8.127   9.639  18.084  0.00  0.00    +0.000 C 
ATOM     14  O   UNL     1       8.552   8.389  17.548  0.00  0.00    +0.000 OA
ENDBRANCH   7  14
ENDBRANCH   1  10
BRANCH   4  15
ATOM     15  C   UNL     1       1.334   3.309  19.773  0.00  0.00    +0.000 C 
BRANCH  15  16
ATOM     16  C   UNL     1       1.817   3.936  21.097  0.00  0.00    +0.000 C 
ATOM     17  O   UNL     1       2.037   3.265  22.106  0.00  0.00    +0.000 OA
ATOM     18  N   UNL     1       1.972   5.303  21.171  0.00  0.00    +0.000 N 
ATOM     19  H   UNL     1       2.389   5.599  22.046  0.00  0.00    +0.000 HD
BRANCH  18  20
ATOM     20  C   UNL     1       2.127   6.157  20.030  0.00  0.00    +0.000 C 
BRANCH  20  21
ATOM     21  C   UNL     1       1.601   7.545  20.167  0.00  0.00    +0.000 A 
ATOM     22  C   UNL     1       1.173   8.013  21.417  0.00  0.00    +0.000 A 
ATOM     23  C   UNL     1       0.782   9.341  21.567  0.00  0.00    +0.000 A 
ATOM     24  C   UNL     1       0.819  10.198  20.468  0.00  0.00    +0.000 A 
ATOM     25 CL   UNL     1       0.324  11.834  20.650  0.00  0.00    +0.000 Cl
ATOM     26  C   UNL     1       1.260   9.745  19.225  0.00  0.00    +0.000 A 
ATOM     27  C   UNL     1       1.650   8.418  19.073  0.00  0.00    +0.000 A 
ENDBRANCH  20  21
ENDBRANCH  18  20
ENDBRANCH  15  16
ENDBRANCH   4  15
TORSDOF 6
ENDMDL
