MODEL 1
REMARK VINA RESULT:      -8.6      0.000      0.000
REMARK  Name = 
REMARK  7 active torsions:
REMARK  status: ('A' for Active; 'I' for Inactive)
REMARK    1  A    between atoms: C_2  and  C_3
REMARK    2  A    between atoms: C_8  and  N_9
REMARK    3  A    between atoms: N_9  and  C_10
REMARK    4  A    between atoms: N_9  and  C_18
REMARK    5  A    between atoms: C_10  and  C_11
REMARK    6  A    between atoms: C_11  and  C_12
REMARK    7  A    between atoms: C_18  and  C_19
REMARK                            x       y       z     vdW  Elec       q    Type
REMARK                         _______ _______ _______ _____ _____    ______ ____
ROOT
ATOM      1  N   UNL     1       3.860   5.113  18.010  0.00  0.00    +0.000 N 
ENDROOT
BRANCH   1   7
ATOM      2  C   UNL     1       6.361   4.348  15.554  0.00  0.00    +0.000 A 
ATOM      3  N   UNL     1       7.552   4.353  16.198  0.00  0.00    +0.000 NA
ATOM      4  C   UNL     1       7.473   4.631  17.515  0.00  0.00    +0.000 A 
ATOM      5  C   UNL     1       6.302   4.927  18.178  0.00  0.00    +0.000 A 
ATOM      6  F   UNL     1       6.338   5.178  19.491  0.00  0.00    +0.000 F 
ATOM      7  C   UNL     1       5.114   4.895  17.448  0.00  0.00    +0.000 A 
ATOM      8  N   UNL     1       5.166   4.592  16.127  0.00  0.00    +0.000 NA
BRANCH   2  10
ATOM      9  N   UNL     1       6.393   3.808  13.007  0.00  0.00    +0.000 NA
ATOM     10  C   UNL     1       6.384   4.051  14.146  0.00  0.00    +0.000 C 
ENDBRANCH   2  10
ENDBRANCH   1   7
BRANCH   1  11
ATOM     11  C   UNL     1       2.640   4.437  17.555  0.00  0.00    +0.000 C 
BRANCH  11  12
ATOM     12  C   UNL     1       2.729   2.916  17.724  0.00  0.00    +0.000 C 
BRANCH  12  13
ATOM     13  C   UNL     1       2.440   2.421  19.158  0.00  0.00    +0.000 C 
ATOM     14  C   UNL     1       1.325   3.279  19.782  0.00  0.00    +0.000 C 
ATOM     15  C   UNL     1       1.095   2.934  21.248  0.00  0.00    +0.000 C 
ATOM     16  O   UNL     1       2.310   3.040  21.986  0.00  0.00    +0.000 OA
ATOM     17  C   UNL     1       3.300   2.127  21.517  0.00  0.00    +0.000 C 
ATOM     18  C   UNL     1       3.676   2.434  20.070  0.00  0.00    +0.000 C 
ENDBRANCH  12  13
ENDBRANCH  11  12
ENDBRANCH   1  11
BRANCH   1  19
ATOM     19  C   UNL     1       3.749   5.902  19.241  0.00  0.00    +0.000 C 
BRANCH  19  20
ATOM     20  C   UNL     1       2.618   6.925  19.192  0.00  0.00    +0.000 A 
ATOM     21  C   UNL     1       1.869   7.184  20.371  0.00  0.00    +0.000 A 
ATOM     22  C   UNL     1       1.136   8.367  20.518  0.00  0.00    +0.000 A 
ATOM     23  C   UNL     1       1.221   9.278  19.491  0.00  0.00    +0.000 A 
ATOM     24  C   UNL     1       1.844   8.978  18.298  0.00  0.00    +0.000 A 
ATOM     25  C   UNL     1       2.510   7.796  18.096  0.00  0.00    +0.000 A 
ATOM     26  O   UNL     1       1.929  10.069  17.480  0.00  0.00    +0.000 OA
ATOM     27  C   UNL     1       1.743  11.081  18.487  0.00  0.00    +0.000 C 
ATOM     28  O   UNL     1       0.908  10.606  19.566  0.00  0.00    +0.000 OA
ENDBRANCH  19  20
ENDBRANCH   1  19
TORSDOF 7
ENDMDL
MODEL 2
REMARK VINA RESULT:      -8.4      0.904      1.140
REMARK  Name = 
REMARK  7 active torsions:
REMARK  status: ('A' for Active; 'I' for Inactive)
REMARK    1  A    between atoms: C_2  and  C_3
REMARK    2  A    between atoms: C_8  and  N_9
REMARK    3  A    between atoms: N_9  and  C_10
REMARK    4  A    between atoms: N_9  and  C_18
REMARK    5  A    between atoms: C_10  and  C_11
REMARK    6  A    between atoms: C_11  and  C_12
REMARK    7  A    between atoms: C_18  and  C_19
REMARK                            x       y       z     vdW  Elec       q    Type
REMARK                         _______ _______ _______ _____ _____    ______ ____
ROOT
ATOM      1  N   UNL     1       3.623   6.155  17.536  0.00  0.00    +0.000 N 
ENDROOT
BRANCH   1   7
ATOM      2  C   UNL     1       6.318   4.689  15.676  0.00  0.00    +0.000 A 
ATOM      3  N   UNL     1       7.307   4.430  16.563  0.00  0.00    +0.000 NA
ATOM      4  C   UNL     1       7.019   4.775  17.834  0.00  0.00    +0.000 A 
ATOM      5  C   UNL     1       5.846   5.380  18.229  0.00  0.00    +0.000 A 
ATOM      6  F   UNL     1       5.663   5.672  19.521  0.00  0.00    +0.000 F 
ATOM      7  C   UNL     1       4.873   5.610  17.259  0.00  0.00    +0.000 A 
ATOM      8  N   UNL     1       5.128   5.245  15.977  0.00  0.00    +0.000 NA
BRANCH   2  10
ATOM      9  N   UNL     1       6.761   4.041  13.193  0.00  0.00    +0.000 NA
ATOM     10  C   UNL     1       6.566   4.335  14.303  0.00  0.00    +0.000 C 
ENDBRANCH   2  10
ENDBRANCH   1   7
BRANCH   1  11
ATOM     11  C   UNL     1       2.459   5.353  17.929  0.00  0.00    +0.000 C 
BRANCH  11  12
ATOM     12  C   UNL     1       2.710   3.851  17.757  0.00  0.00    +0.000 C 
BRANCH  12  13
ATOM     13  C   UNL     1       2.474   3.020  19.036  0.00  0.00    +0.000 C 
ATOM     14  C   UNL     1       1.372   3.681  19.882  0.00  0.00    +0.000 C 
ATOM     15  C   UNL     1       1.194   2.988  21.228  0.00  0.00    +0.000 C 
ATOM     16  O   UNL     1       2.432   2.934  21.932  0.00  0.00    +0.000 OA
ATOM     17  C   UNL     1       3.414   2.179  21.227  0.00  0.00    +0.000 C 
ATOM     18  C   UNL     1       3.739   2.834  19.887  0.00  0.00    +0.000 C 
ENDBRANCH  12  13
ENDBRANCH  11  12
ENDBRANCH   1  11
BRANCH   1  19
ATOM     19  C   UNL     1       3.478   7.611  17.637  0.00  0.00    +0.000 C 
BRANCH  19  20
ATOM     20  C   UNL     1       2.297   8.031  18.507  0.00  0.00    +0.000 A 
ATOM     21  C   UNL     1       2.189   7.509  19.824  0.00  0.00    +0.000 A 
ATOM     22  C   UNL     1       1.413   8.150  20.796  0.00  0.00    +0.000 A 
ATOM     23  C   UNL     1       0.809   9.329  20.425  0.00  0.00    +0.000 A 
ATOM     24  C   UNL     1       0.810   9.771  19.119  0.00  0.00    +0.000 A 
ATOM     25  C   UNL     1       1.502   9.123  18.127  0.00  0.00    +0.000 A 
ATOM     26  O   UNL     1       0.274  11.022  19.005  0.00  0.00    +0.000 OA
ATOM     27  C   UNL     1       0.416  11.421  20.381  0.00  0.00    +0.000 C 
ATOM     28  O   UNL     1       0.326  10.287  21.272  0.00  0.00    +0.000 OA
ENDBRANCH  19  20
ENDBRANCH   1  19
TORSDOF 7
ENDMDL
MODEL 3
REMARK VINA RESULT:      -8.4      3.487      6.537
REMARK  Name = 
REMARK  7 active torsions:
REMARK  status: ('A' for Active; 'I' for Inactive)
REMARK    1  A    between atoms: C_2  and  C_3
REMARK    2  A    between atoms: C_8  and  N_9
REMARK    3  A    between atoms: N_9  and  C_10
REMARK    4  A    between atoms: N_9  and  C_18
REMARK    5  A    between atoms: C_10  and  C_11
REMARK    6  A    between atoms: C_11  and  C_12
REMARK    7  A    between atoms: C_18  and  C_19
REMARK                            x       y       z     vdW  Elec       q    Type
REMARK                         _______ _______ _______ _____ _____    ______ ____
ROOT
ATOM      1  N   UNL     1       2.295   6.716  19.485  0.00  0.00    +0.000 N 
ENDROOT
BRANCH   1   7
ATOM      2  C   UNL     1       0.769   9.519  21.123  0.00  0.00    +0.000 A 
ATOM      3  N   UNL     1       0.654  10.496  20.193  0.00  0.00    +0.000 NA
ATOM      4  C   UNL     1       1.120  10.163  18.973  0.00  0.00    +0.000 A 
ATOM      5  C   UNL     1       1.707   8.954  18.668  0.00  0.00    +0.000 A 
ATOM      6  F   UNL     1       2.126   8.726  17.419  0.00  0.00    +0.000 F 
ATOM      7  C   UNL     1       1.784   7.995  19.677  0.00  0.00    +0.000 A 
ATOM      8  N   UNL     1       1.297   8.298  20.907  0.00  0.00    +0.000 NA
BRANCH   2  10
ATOM      9  N   UNL     1      -0.106  10.051  23.517  0.00  0.00    +0.000 NA
ATOM     10  C   UNL     1       0.281   9.817  22.444  0.00  0.00    +0.000 C 
ENDBRANCH   2  10
ENDBRANCH   1   7
BRANCH   1  11
ATOM     11  C   UNL     1       2.337   5.693  20.537  0.00  0.00    +0.000 C 
BRANCH  11  12
ATOM     12  C   UNL     1       1.264   4.618  20.337  0.00  0.00    +0.000 C 
BRANCH  12  13
ATOM     13  C   UNL     1       1.804   3.280  19.788  0.00  0.00    +0.000 C 
ATOM     14  C   UNL     1       3.273   3.107  20.213  0.00  0.00    +0.000 C 
ATOM     15  C   UNL     1       3.906   1.873  19.580  0.00  0.00    +0.000 C 
ATOM     16  O   UNL     1       3.773   1.912  18.161  0.00  0.00    +0.000 OA
ATOM     17  C   UNL     1       2.407   1.907  17.754  0.00  0.00    +0.000 C 
ATOM     18  C   UNL     1       1.687   3.152  18.262  0.00  0.00    +0.000 C 
ENDBRANCH  12  13
ENDBRANCH  11  12
ENDBRANCH   1  11
BRANCH   1  19
ATOM     19  C   UNL     1       2.637   6.272  18.129  0.00  0.00    +0.000 C 
BRANCH  19  20
ATOM     20  C   UNL     1       4.142   6.216  17.884  0.00  0.00    +0.000 A 
ATOM     21  C   UNL     1       4.974   5.577  18.842  0.00  0.00    +0.000 A 
ATOM     22  C   UNL     1       6.252   5.118  18.500  0.00  0.00    +0.000 A 
ATOM     23  C   UNL     1       6.632   5.273  17.187  0.00  0.00    +0.000 A 
ATOM     24  C   UNL     1       5.881   6.001  16.289  0.00  0.00    +0.000 A 
ATOM     25  C   UNL     1       4.656   6.526  16.615  0.00  0.00    +0.000 A 
ATOM     26  O   UNL     1       6.374   5.908  15.019  0.00  0.00    +0.000 OA
ATOM     27  C   UNL     1       7.155   4.711  15.201  0.00  0.00    +0.000 C 
ATOM     28  O   UNL     1       7.640   4.598  16.557  0.00  0.00    +0.000 OA
ENDBRANCH  19  20
ENDBRANCH   1  19
TORSDOF 7
ENDMDL
MODEL 4
REMARK VINA RESULT:      -8.2      1.336      2.060
REMARK  Name = 
REMARK  7 active torsions:
REMARK  status: ('A' for Active; 'I' for Inactive)
REMARK    1  A    between atoms: C_2  and  C_3
REMARK    2  A    between atoms: C_8  and  N_9
REMARK    3  A    between atoms: N_9  and  C_10
REMARK    4  A    between atoms: N_9  and  C_18
REMARK    5  A    between atoms: C_10  and  C_11
REMARK    6  A    between atoms: C_11  and  C_12
REMARK    7  A    between atoms: C_18  and  C_19
REMARK                            x       y       z     vdW  Elec       q    Type
REMARK                         _______ _______ _______ _____ _____    ______ ____
ROOT
ATOM      1  N   UNL     1       4.417   5.143  17.988  0.00  0.00    +0.000 N 
ENDROOT
BRANCH   1   7
ATOM      2  C   UNL     1       6.214   4.742  14.909  0.00  0.00    +0.000 A 
ATOM      3  N   UNL     1       7.312   5.530  14.995  0.00  0.00    +0.000 NA
ATOM      4  C   UNL     1       7.421   6.210  16.153  0.00  0.00    +0.000 A 
ATOM      5  C   UNL     1       6.493   6.166  17.171  0.00  0.00    +0.000 A 
ATOM      6  F   UNL     1       6.708   6.876  18.283  0.00  0.00    +0.000 F 
ATOM      7  C   UNL     1       5.392   5.327  17.012  0.00  0.00    +0.000 A 
ATOM      8  N   UNL     1       5.274   4.611  15.866  0.00  0.00    +0.000 NA
BRANCH   2  10
ATOM      9  N   UNL     1       5.924   3.375  12.712  0.00  0.00    +0.000 NA
ATOM     10  C   UNL     1       6.048   3.986  13.695  0.00  0.00    +0.000 C 
ENDBRANCH   2  10
ENDBRANCH   1   7
BRANCH   1  11
ATOM     11  C   UNL     1       4.708   4.657  19.342  0.00  0.00    +0.000 C 
BRANCH  11  12
ATOM     12  C   UNL     1       4.651   3.128  19.428  0.00  0.00    +0.000 C 
BRANCH  12  13
ATOM     13  C   UNL     1       3.270   2.568  19.830  0.00  0.00    +0.000 C 
ATOM     14  C   UNL     1       2.394   2.413  18.574  0.00  0.00    +0.000 C 
ATOM     15  C   UNL     1       0.969   2.001  18.922  0.00  0.00    +0.000 C 
ATOM     16  O   UNL     1       0.393   2.918  19.850  0.00  0.00    +0.000 OA
ATOM     17  C   UNL     1       1.107   2.946  21.083  0.00  0.00    +0.000 C 
ATOM     18  C   UNL     1       2.538   3.432  20.868  0.00  0.00    +0.000 C 
ENDBRANCH  12  13
ENDBRANCH  11  12
ENDBRANCH   1  11
BRANCH   1  19
ATOM     19  C   UNL     1       3.055   5.632  17.748  0.00  0.00    +0.000 C 
BRANCH  19  20
ATOM     20  C   UNL     1       2.779   6.975  18.417  0.00  0.00    +0.000 A 
ATOM     21  C   UNL     1       2.639   8.134  17.608  0.00  0.00    +0.000 A 
ATOM     22  C   UNL     1       1.983   9.275  18.084  0.00  0.00    +0.000 A 
ATOM     23  C   UNL     1       1.441   9.194  19.346  0.00  0.00    +0.000 A 
ATOM     24  C   UNL     1       1.681   8.120  20.176  0.00  0.00    +0.000 A 
ATOM     25  C   UNL     1       2.384   7.017  19.763  0.00  0.00    +0.000 A 
ATOM     26  O   UNL     1       0.938   8.186  21.320  0.00  0.00    +0.000 OA
ATOM     27  C   UNL     1      -0.064   9.106  20.849  0.00  0.00    +0.000 C 
ATOM     28  O   UNL     1       0.474  10.011  19.860  0.00  0.00    +0.000 OA
ENDBRANCH  19  20
ENDBRANCH   1  19
TORSDOF 7
ENDMDL
MODEL 5
REMARK VINA RESULT:      -8.2      3.180      6.234
REMARK  Name = 
REMARK  7 active torsions:
REMARK  status: ('A' for Active; 'I' for Inactive)
REMARK    1  A    between atoms: C_2  and  C_3
REMARK    2  A    between atoms: C_8  and  N_9
REMARK    3  A    between atoms: N_9  and  C_10
REMARK    4  A    between atoms: N_9  and  C_18
REMARK    5  A    between atoms: C_10  and  C_11
REMARK    6  A    between atoms: C_11  and  C_12
REMARK    7  A    between atoms: C_18  and  C_19
REMARK                            x       y       z     vdW  Elec       q    Type
REMARK                         _______ _______ _______ _____ _____    ______ ____
ROOT
ATOM      1  N   UNL     1       2.496   6.060  18.996  0.00  0.00    +0.000 N 
ENDROOT
BRANCH   1   7
ATOM      2  C   UNL     1       3.588   2.694  19.586  0.00  0.00    +0.000 A 
ATOM      3  N   UNL     1       2.897   1.905  18.730  0.00  0.00    +0.000 NA
ATOM      4  C   UNL     1       2.034   2.569  17.935  0.00  0.00    +0.000 A 
ATOM      5  C   UNL     1       1.818   3.929  17.986  0.00  0.00    +0.000 A 
ATOM      6  F   UNL     1       0.943   4.485  17.140  0.00  0.00    +0.000 F 
ATOM      7  C   UNL     1       2.572   4.675  18.889  0.00  0.00    +0.000 A 
ATOM      8  N   UNL     1       3.467   4.032  19.682  0.00  0.00    +0.000 NA
BRANCH   2  10
ATOM      9  N   UNL     1       5.286   1.514  21.170  0.00  0.00    +0.000 NA
ATOM     10  C   UNL     1       4.529   2.040  20.457  0.00  0.00    +0.000 C 
ENDBRANCH   2  10
ENDBRANCH   1   7
BRANCH   1  11
ATOM     11  C   UNL     1       2.154   6.759  20.240  0.00  0.00    +0.000 C 
BRANCH  11  12
ATOM     12  C   UNL     1       1.818   8.234  19.997  0.00  0.00    +0.000 C 
BRANCH  12  13
ATOM     13  C   UNL     1       0.722   8.796  20.929  0.00  0.00    +0.000 C 
ATOM     14  C   UNL     1       0.337  10.214  20.473  0.00  0.00    +0.000 C 
ATOM     15  C   UNL     1      -0.635  10.878  21.440  0.00  0.00    +0.000 C 
ATOM     16  O   UNL     1      -0.105  10.881  22.763  0.00  0.00    +0.000 OA
ATOM     17  C   UNL     1       0.102   9.560  23.257  0.00  0.00    +0.000 C 
ATOM     18  C   UNL     1       1.133   8.821  22.409  0.00  0.00    +0.000 C 
ENDBRANCH  12  13
ENDBRANCH  11  12
ENDBRANCH   1  11
BRANCH   1  19
ATOM     19  C   UNL     1       2.963   6.896  17.885  0.00  0.00    +0.000 C 
BRANCH  19  20
ATOM     20  C   UNL     1       4.435   6.672  17.551  0.00  0.00    +0.000 A 
ATOM     21  C   UNL     1       5.317   6.234  18.576  0.00  0.00    +0.000 A 
ATOM     22  C   UNL     1       6.533   5.613  18.268  0.00  0.00    +0.000 A 
ATOM     23  C   UNL     1       6.801   5.406  16.935  0.00  0.00    +0.000 A 
ATOM     24  C   UNL     1       6.009   5.939  15.940  0.00  0.00    +0.000 A 
ATOM     25  C   UNL     1       4.848   6.616  16.211  0.00  0.00    +0.000 A 
ATOM     26  O   UNL     1       6.381   5.495  14.702  0.00  0.00    +0.000 OA
ATOM     27  C   UNL     1       7.113   4.329  15.125  0.00  0.00    +0.000 C 
ATOM     28  O   UNL     1       7.712   4.525  16.425  0.00  0.00    +0.000 OA
ENDBRANCH  19  20
ENDBRANCH   1  19
TORSDOF 7
ENDMDL
MODEL 6
REMARK VINA RESULT:      -8.1      2.003      2.923
REMARK  Name = 
REMARK  7 active torsions:
REMARK  status: ('A' for Active; 'I' for Inactive)
REMARK    1  A    between atoms: C_2  and  C_3
REMARK    2  A    between atoms: C_8  and  N_9
REMARK    3  A    between atoms: N_9  and  C_10
REMARK    4  A    between atoms: N_9  and  C_18
REMARK    5  A    between atoms: C_10  and  C_11
REMARK    6  A    between atoms: C_11  and  C_12
REMARK    7  A    between atoms: C_18  and  C_19
REMARK                            x       y       z     vdW  Elec       q    Type
REMARK                         _______ _______ _______ _____ _____    ______ ____
ROOT
ATOM      1  N   UNL     1       4.645   4.778  18.298  0.00  0.00    +0.000 N 
ENDROOT
BRANCH   1   7
ATOM      2  C   UNL     1       7.264   6.960  17.178  0.00  0.00    +0.000 A 
ATOM      3  N   UNL     1       7.739   6.436  16.024  0.00  0.00    +0.000 NA
ATOM      4  C   UNL     1       7.128   5.299  15.636  0.00  0.00    +0.000 A 
ATOM      5  C   UNL     1       6.129   4.671  16.346  0.00  0.00    +0.000 A 
ATOM      6  F   UNL     1       5.586   3.550  15.861  0.00  0.00    +0.000 F 
ATOM      7  C   UNL     1       5.688   5.275  17.522  0.00  0.00    +0.000 A 
ATOM      8  N   UNL     1       6.269   6.434  17.920  0.00  0.00    +0.000 NA
BRANCH   2  10
ATOM      9  N   UNL     1       8.377   9.161  18.013  0.00  0.00    +0.000 NA
ATOM     10  C   UNL     1       7.874   8.179  17.640  0.00  0.00    +0.000 C 
ENDBRANCH   2  10
ENDBRANCH   1   7
BRANCH   1  11
ATOM     11  C   UNL     1       4.847   3.982  19.514  0.00  0.00    +0.000 C 
BRANCH  11  12
ATOM     12  C   UNL     1       4.439   2.519  19.317  0.00  0.00    +0.000 C 
BRANCH  12  13
ATOM     13  C   UNL     1       3.002   2.195  19.781  0.00  0.00    +0.000 C 
ATOM     14  C   UNL     1       2.048   2.255  18.575  0.00  0.00    +0.000 C 
ATOM     15  C   UNL     1       0.592   2.088  18.993  0.00  0.00    +0.000 C 
ATOM     16  O   UNL     1       0.240   3.049  19.985  0.00  0.00    +0.000 OA
ATOM     17  C   UNL     1       1.011   2.895  21.174  0.00  0.00    +0.000 C 
ATOM     18  C   UNL     1       2.493   3.127  20.891  0.00  0.00    +0.000 C 
ENDBRANCH  12  13
ENDBRANCH  11  12
ENDBRANCH   1  11
BRANCH   1  19
ATOM     19  C   UNL     1       3.272   5.216  18.025  0.00  0.00    +0.000 C 
BRANCH  19  20
ATOM     20  C   UNL     1       2.973   6.610  18.569  0.00  0.00    +0.000 A 
ATOM     21  C   UNL     1       2.848   7.695  17.660  0.00  0.00    +0.000 A 
ATOM     22  C   UNL     1       2.174   8.867  18.020  0.00  0.00    +0.000 A 
ATOM     23  C   UNL     1       1.603   8.892  19.270  0.00  0.00    +0.000 A 
ATOM     24  C   UNL     1       1.828   7.895  20.196  0.00  0.00    +0.000 A 
ATOM     25  C   UNL     1       2.546   6.766  19.897  0.00  0.00    +0.000 A 
ATOM     26  O   UNL     1       1.057   8.054  21.313  0.00  0.00    +0.000 OA
ATOM     27  C   UNL     1       0.062   8.924  20.740  0.00  0.00    +0.000 C 
ATOM     28  O   UNL     1       0.620   9.744  19.689  0.00  0.00    +0.000 OA
ENDBRANCH  19  20
ENDBRANCH   1  19
TORSDOF 7
ENDMDL
MODEL 7
REMARK VINA RESULT:      -8.0      0.752      1.382
REMARK  Name = 
REMARK  7 active torsions:
REMARK  status: ('A' for Active; 'I' for Inactive)
REMARK    1  A    between atoms: C_2  and  C_3
REMARK    2  A    between atoms: C_8  and  N_9
REMARK    3  A    between atoms: N_9  and  C_10
REMARK    4  A    between atoms: N_9  and  C_18
REMARK    5  A    between atoms: C_10  and  C_11
REMARK    6  A    between atoms: C_11  and  C_12
REMARK    7  A    between atoms: C_18  and  C_19
REMARK                            x       y       z     vdW  Elec       q    Type
REMARK                         _______ _______ _______ _____ _____    ______ ____
ROOT
ATOM      1  N   UNL     1       3.369   5.151  18.177  0.00  0.00    +0.000 N 
ENDROOT
BRANCH   1   7
ATOM      2  C   UNL     1       6.016   4.476  15.851  0.00  0.00    +0.000 A 
ATOM      3  N   UNL     1       7.177   4.613  16.534  0.00  0.00    +0.000 NA
ATOM      4  C   UNL     1       7.025   4.947  17.831  0.00  0.00    +0.000 A 
ATOM      5  C   UNL     1       5.809   5.178  18.437  0.00  0.00    +0.000 A 
ATOM      6  F   UNL     1       5.775   5.495  19.736  0.00  0.00    +0.000 F 
ATOM      7  C   UNL     1       4.657   5.011  17.671  0.00  0.00    +0.000 A 
ATOM      8  N   UNL     1       4.784   4.648  16.370  0.00  0.00    +0.000 NA
BRANCH   2  10
ATOM      9  N   UNL     1       6.193   3.812  13.340  0.00  0.00    +0.000 NA
ATOM     10  C   UNL     1       6.116   4.114  14.462  0.00  0.00    +0.000 C 
ENDBRANCH   2  10
ENDBRANCH   1   7
BRANCH   1  11
ATOM     11  C   UNL     1       2.202   4.449  17.631  0.00  0.00    +0.000 C 
BRANCH  11  12
ATOM     12  C   UNL     1       2.345   2.927  17.741  0.00  0.00    +0.000 C 
BRANCH  12  13
ATOM     13  C   UNL     1       2.238   2.384  19.182  0.00  0.00    +0.000 C 
ATOM     14  C   UNL     1       1.169   3.178  19.952  0.00  0.00    +0.000 C 
ATOM     15  C   UNL     1       1.119   2.786  21.424  0.00  0.00    +0.000 C 
ATOM     16  O   UNL     1       2.404   2.923  22.025  0.00  0.00    +0.000 OA
ATOM     17  C   UNL     1       3.368   2.065  21.421  0.00  0.00    +0.000 C 
ATOM     18  C   UNL     1       3.567   2.424  19.951  0.00  0.00    +0.000 C 
ENDBRANCH  12  13
ENDBRANCH  11  12
ENDBRANCH   1  11
BRANCH   1  19
ATOM     19  C   UNL     1       3.164   5.877  19.436  0.00  0.00    +0.000 C 
BRANCH  19  20
ATOM     20  C   UNL     1       2.707   7.317  19.224  0.00  0.00    +0.000 A 
ATOM     21  C   UNL     1       2.811   7.891  17.928  0.00  0.00    +0.000 A 
ATOM     22  C   UNL     1       2.046   9.006  17.567  0.00  0.00    +0.000 A 
ATOM     23  C   UNL     1       1.160   9.478  18.507  0.00  0.00    +0.000 A 
ATOM     24  C   UNL     1       1.147   9.003  19.802  0.00  0.00    +0.000 A 
ATOM     25  C   UNL     1       1.938   7.959  20.207  0.00  0.00    +0.000 A 
ATOM     26  O   UNL     1       0.103   9.513  20.520  0.00  0.00    +0.000 OA
ATOM     27  C   UNL     1      -0.717   9.920  19.409  0.00  0.00    +0.000 C 
ATOM     28  O   UNL     1       0.087  10.288  18.266  0.00  0.00    +0.000 OA
ENDBRANCH  19  20
ENDBRANCH   1  19
TORSDOF 7
ENDMDL
MODEL 8
REMARK VINA RESULT:      -7.8      2.834      6.544
REMARK  Name = 
REMARK  7 active torsions:
REMARK  status: ('A' for Active; 'I' for Inactive)
REMARK    1  A    between atoms: C_2  and  C_3
REMARK    2  A    between atoms: C_8  and  N_9
REMARK    3  A    between atoms: N_9  and  C_10
REMARK    4  A    between atoms: N_9  and  C_18
REMARK    5  A    between atoms: C_10  and  C_11
REMARK    6  A    between atoms: C_11  and  C_12
REMARK    7  A    between atoms: C_18  and  C_19
REMARK                            x       y       z     vdW  Elec       q    Type
REMARK                         _______ _______ _______ _____ _____    ______ ____
ROOT
ATOM      1  N   UNL     1       2.907   6.004  18.473  0.00  0.00    +0.000 N 
ENDROOT
BRANCH   1   7
ATOM      2  C   UNL     1       2.029   2.944  20.128  0.00  0.00    +0.000 A 
ATOM      3  N   UNL     1       2.248   1.946  19.240  0.00  0.00    +0.000 NA
ATOM      4  C   UNL     1       2.712   2.356  18.042  0.00  0.00    +0.000 A 
ATOM      5  C   UNL     1       2.920   3.675  17.700  0.00  0.00    +0.000 A 
ATOM      6  F   UNL     1       3.393   3.968  16.484  0.00  0.00    +0.000 F 
ATOM      7  C   UNL     1       2.678   4.646  18.670  0.00  0.00    +0.000 A 
ATOM      8  N   UNL     1       2.236   4.254  19.892  0.00  0.00    +0.000 NA
BRANCH   2  10
ATOM      9  N   UNL     1       1.148   2.248  22.477  0.00  0.00    +0.000 NA
ATOM     10  C   UNL     1       1.539   2.564  21.426  0.00  0.00    +0.000 C 
ENDBRANCH   2  10
ENDBRANCH   1   7
BRANCH   1  11
ATOM     11  C   UNL     1       1.906   6.924  17.921  0.00  0.00    +0.000 C 
BRANCH  11  12
ATOM     12  C   UNL     1       2.431   8.361  17.836  0.00  0.00    +0.000 C 
BRANCH  12  13
ATOM     13  C   UNL     1       1.597   9.387  18.634  0.00  0.00    +0.000 C 
ATOM     14  C   UNL     1       1.311   8.833  20.041  0.00  0.00    +0.000 C 
ATOM     15  C   UNL     1       0.369   9.736  20.827  0.00  0.00    +0.000 C 
ATOM     16  O   UNL     1      -0.836   9.960  20.099  0.00  0.00    +0.000 OA
ATOM     17  C   UNL     1      -0.596  10.624  18.861  0.00  0.00    +0.000 C 
ATOM     18  C   UNL     1       0.276   9.766  17.948  0.00  0.00    +0.000 C 
ENDBRANCH  12  13
ENDBRANCH  11  12
ENDBRANCH   1  11
BRANCH   1  19
ATOM     19  C   UNL     1       4.128   6.614  19.013  0.00  0.00    +0.000 C 
BRANCH  19  20
ATOM     20  C   UNL     1       5.369   6.288  18.189  0.00  0.00    +0.000 A 
ATOM     21  C   UNL     1       6.362   5.436  18.743  0.00  0.00    +0.000 A 
ATOM     22  C   UNL     1       7.280   4.766  17.927  0.00  0.00    +0.000 A 
ATOM     23  C   UNL     1       7.137   4.935  16.569  0.00  0.00    +0.000 A 
ATOM     24  C   UNL     1       6.257   5.853  16.036  0.00  0.00    +0.000 A 
ATOM     25  C   UNL     1       5.395   6.580  16.816  0.00  0.00    +0.000 A 
ATOM     26  O   UNL     1       6.182   5.756  14.676  0.00  0.00    +0.000 OA
ATOM     27  C   UNL     1       6.710   4.422  14.547  0.00  0.00    +0.000 C 
ATOM     28  O   UNL     1       7.656   4.125  15.598  0.00  0.00    +0.000 OA
ENDBRANCH  19  20
ENDBRANCH   1  19
TORSDOF 7
ENDMDL
MODEL 9
REMARK VINA RESULT:      -7.8      3.627      6.474
REMARK  Name = 
REMARK  7 active torsions:
REMARK  status: ('A' for Active; 'I' for Inactive)
REMARK    1  A    between atoms: C_2  and  C_3
REMARK    2  A    between atoms: C_8  and  N_9
REMARK    3  A    between atoms: N_9  and  C_10
REMARK    4  A    between atoms: N_9  and  C_18
REMARK    5  A    between atoms: C_10  and  C_11
REMARK    6  A    between atoms: C_11  and  C_12
REMARK    7  A    between atoms: C_18  and  C_19
REMARK                            x       y       z     vdW  Elec       q    Type
REMARK                         _______ _______ _______ _____ _____    ______ ____
ROOT
ATOM      1  N   UNL     1       2.261   6.682  19.446  0.00  0.00    +0.000 N 
ENDROOT
BRANCH   1   7
ATOM      2  C   UNL     1       0.800   9.423  21.242  0.00  0.00    +0.000 A 
ATOM      3  N   UNL     1       0.637  10.428  20.350  0.00  0.00    +0.000 NA
ATOM      4  C   UNL     1       1.047  10.136  19.100  0.00  0.00    +0.000 A 
ATOM      5  C   UNL     1       1.625   8.941  18.730  0.00  0.00    +0.000 A 
ATOM      6  F   UNL     1       1.986   8.755  17.456  0.00  0.00    +0.000 F 
ATOM      7  C   UNL     1       1.753   7.952  19.703  0.00  0.00    +0.000 A 
ATOM      8  N   UNL     1       1.323   8.213  20.963  0.00  0.00    +0.000 NA
BRANCH   2  10
ATOM      9  N   UNL     1       0.034   9.872  23.690  0.00  0.00    +0.000 NA
ATOM     10  C   UNL     1       0.374   9.676  22.593  0.00  0.00    +0.000 C 
ENDBRANCH   2  10
ENDBRANCH   1   7
BRANCH   1  11
ATOM     11  C   UNL     1       2.399   5.642  20.472  0.00  0.00    +0.000 C 
BRANCH  11  12
ATOM     12  C   UNL     1       1.296   4.582  20.368  0.00  0.00    +0.000 C 
BRANCH  12  13
ATOM     13  C   UNL     1       1.778   3.220  19.822  0.00  0.00    +0.000 C 
ATOM     14  C   UNL     1       3.239   2.985  20.245  0.00  0.00    +0.000 C 
ATOM     15  C   UNL     1       3.817   1.725  19.614  0.00  0.00    +0.000 C 
ATOM     16  O   UNL     1       3.684   1.765  18.196  0.00  0.00    +0.000 OA
ATOM     17  C   UNL     1       2.319   1.818  17.790  0.00  0.00    +0.000 C 
ATOM     18  C   UNL     1       1.653   3.094  18.297  0.00  0.00    +0.000 C 
ENDBRANCH  12  13
ENDBRANCH  11  12
ENDBRANCH   1  11
BRANCH   1  19
ATOM     19  C   UNL     1       2.496   6.267  18.059  0.00  0.00    +0.000 C 
BRANCH  19  20
ATOM     20  C   UNL     1       3.978   6.101  17.732  0.00  0.00    +0.000 A 
ATOM     21  C   UNL     1       4.625   7.091  16.944  0.00  0.00    +0.000 A 
ATOM     22  C   UNL     1       6.017   7.235  16.963  0.00  0.00    +0.000 A 
ATOM     23  C   UNL     1       6.712   6.409  17.816  0.00  0.00    +0.000 A 
ATOM     24  C   UNL     1       6.101   5.370  18.486  0.00  0.00    +0.000 A 
ATOM     25  C   UNL     1       4.747   5.157  18.429  0.00  0.00    +0.000 A 
ATOM     26  O   UNL     1       6.946   4.771  19.376  0.00  0.00    +0.000 OA
ATOM     27  C   UNL     1       7.899   5.844  19.491  0.00  0.00    +0.000 C 
ATOM     28  O   UNL     1       7.987   6.606  18.267  0.00  0.00    +0.000 OA
ENDBRANCH  19  20
ENDBRANCH   1  19
TORSDOF 7
ENDMDL
