MODEL 1
REMARK VINA RESULT:      -7.8      0.000      0.000
REMARK  Name = 
REMARK  6 active torsions:
REMARK  status: ('A' for Active; 'I' for Inactive)
REMARK    1  A    between atoms: C_1  and  C_2
REMARK    2  A    between atoms: C_6  and  N_7
REMARK    3  A    between atoms: C_8  and  C_10
REMARK    4  A    between atoms: C_10  and  N_11
REMARK    5  A    between atoms: C_14  and  C_15
REMARK    6  A    between atoms: C_18  and  O_19
REMARK                            x       y       z     vdW  Elec       q    Type
REMARK                         _______ _______ _______ _____ _____    ______ ____
ROOT
ATOM      1  N   UNL     1       6.946   6.975  17.967  0.00  0.00    +0.000 NA
ATOM      2  C   UNL     1       7.263   5.821  18.815  0.00  0.00    +0.000 C 
ATOM      3  C   UNL     1       5.954   5.138  19.190  0.00  0.00    +0.000 C 
ATOM      4  C   UNL     1       5.442   4.375  17.967  0.00  0.00    +0.000 C 
ATOM      5  C   UNL     1       5.634   5.174  16.663  0.00  0.00    +0.000 C 
ATOM      6  C   UNL     1       6.048   6.647  16.844  0.00  0.00    +0.000 C 
ENDROOT
BRANCH   4   7
ATOM      7  C   UNL     1       4.049   3.808  18.166  0.00  0.00    +0.000 A 
ATOM      8  C   UNL     1       3.824   2.571  18.786  0.00  0.00    +0.000 A 
ATOM      9  C   UNL     1       2.523   2.071  18.922  0.00  0.00    +0.000 A 
ATOM     10  C   UNL     1       1.445   2.808  18.447  0.00  0.00    +0.000 A 
ATOM     11  C   UNL     1       1.643   4.040  17.840  0.00  0.00    +0.000 A 
ATOM     12  C   UNL     1       2.939   4.535  17.698  0.00  0.00    +0.000 A 
BRANCH  10  13
ATOM     13  O   UNL     1       0.164   2.357  18.561  0.00  0.00    +0.000 OA
ATOM     14  H   UNL     1      -0.353   2.694  17.812  0.00  0.00    +0.000 HD
ENDBRANCH  10  13
ENDBRANCH   4   7
BRANCH   1  15
ATOM     15  C   UNL     1       8.165   7.695  17.530  0.00  0.00    +0.000 C 
BRANCH  15  17
ATOM     16  N   UNL     1       9.188   9.322  19.048  0.00  0.00    +0.000 N 
ATOM     17  C   UNL     1       8.219   9.138  18.072  0.00  0.00    +0.000 C 
ATOM     18  O   UNL     1       7.419   9.979  17.670  0.00  0.00    +0.000 OA
ATOM     19  H   UNL     1       9.746   8.493  19.233  0.00  0.00    +0.000 HD
BRANCH  16  25
ATOM     20  C   UNL     1      11.788  13.517  19.001  0.00  0.00    +0.000 C 
ATOM     21  C   UNL     1      10.827  12.594  19.689  0.00  0.00    +0.000 A 
ATOM     22  C   UNL     1      10.311  12.923  20.945  0.00  0.00    +0.000 A 
ATOM     23  C   UNL     1       9.418  12.064  21.580  0.00  0.00    +0.000 A 
ATOM     24  C   UNL     1       9.033  10.867  20.969  0.00  0.00    +0.000 A 
ATOM     25  C   UNL     1       9.537  10.513  19.716  0.00  0.00    +0.000 A 
ATOM     26  C   UNL     1      10.430  11.390  19.080  0.00  0.00    +0.000 A 
ENDBRANCH  16  25
ENDBRANCH  15  17
ENDBRANCH   1  15
TORSDOF 5
ENDMDL
MODEL 2
REMARK VINA RESULT:      -7.7      0.490      1.762
REMARK  Name = 
REMARK  6 active torsions:
REMARK  status: ('A' for Active; 'I' for Inactive)
REMARK    1  A    between atoms: C_1  and  C_2
REMARK    2  A    between atoms: C_6  and  N_7
REMARK    3  A    between atoms: C_8  and  C_10
REMARK    4  A    between atoms: C_10  and  N_11
REMARK    5  A    between atoms: C_14  and  C_15
REMARK    6  A    between atoms: C_18  and  O_19
REMARK                            x       y       z     vdW  Elec       q    Type
REMARK                         _______ _______ _______ _____ _____    ______ ____
ROOT
ATOM      1  N   UNL     1       6.920   7.024  18.088  0.00  0.00    +0.000 NA
ATOM      2  C   UNL     1       7.240   5.801  18.831  0.00  0.00    +0.000 C 
ATOM      3  C   UNL     1       5.932   5.172  19.291  0.00  0.00    +0.000 C 
ATOM      4  C   UNL     1       5.260   4.521  18.081  0.00  0.00    +0.000 C 
ATOM      5  C   UNL     1       5.378   5.390  16.814  0.00  0.00    +0.000 C 
ATOM      6  C   UNL     1       5.901   6.822  17.040  0.00  0.00    +0.000 C 
ENDROOT
BRANCH   4   7
ATOM      7  C   UNL     1       3.858   4.024  18.381  0.00  0.00    +0.000 A 
ATOM      8  C   UNL     1       2.731   4.495  17.693  0.00  0.00    +0.000 A 
ATOM      9  C   UNL     1       1.452   4.032  18.023  0.00  0.00    +0.000 A 
ATOM     10  C   UNL     1       1.296   3.092  19.035  0.00  0.00    +0.000 A 
ATOM     11  C   UNL     1       2.398   2.602  19.722  0.00  0.00    +0.000 A 
ATOM     12  C   UNL     1       3.672   3.069  19.397  0.00  0.00    +0.000 A 
BRANCH  10  13
ATOM     13  O   UNL     1       0.069   2.615  19.386  0.00  0.00    +0.000 OA
ATOM     14  H   UNL     1       0.172   1.716  19.738  0.00  0.00    +0.000 HD
ENDBRANCH  10  13
ENDBRANCH   4   7
BRANCH   1  15
ATOM     15  C   UNL     1       8.135   7.700  17.577  0.00  0.00    +0.000 C 
BRANCH  15  17
ATOM     16  N   UNL     1       9.207   9.343  19.044  0.00  0.00    +0.000 N 
ATOM     17  C   UNL     1       8.243   9.160  18.063  0.00  0.00    +0.000 C 
ATOM     18  O   UNL     1       7.482  10.016  17.619  0.00  0.00    +0.000 OA
ATOM     19  H   UNL     1       9.729   8.499  19.268  0.00  0.00    +0.000 HD
BRANCH  16  25
ATOM     20  C   UNL     1       8.718  12.381  22.902  0.00  0.00    +0.000 C 
ATOM     21  C   UNL     1       9.354  12.049  21.585  0.00  0.00    +0.000 A 
ATOM     22  C   UNL     1      10.294  12.913  21.018  0.00  0.00    +0.000 A 
ATOM     23  C   UNL     1      10.883  12.599  19.796  0.00  0.00    +0.000 A 
ATOM     24  C   UNL     1      10.537  11.423  19.126  0.00  0.00    +0.000 A 
ATOM     25  C   UNL     1       9.597  10.544  19.669  0.00  0.00    +0.000 A 
ATOM     26  C   UNL     1       9.016  10.864  20.907  0.00  0.00    +0.000 A 
ENDBRANCH  16  25
ENDBRANCH  15  17
ENDBRANCH   1  15
TORSDOF 5
ENDMDL
MODEL 3
REMARK VINA RESULT:      -7.7      6.399      9.123
REMARK  Name = 
REMARK  6 active torsions:
REMARK  status: ('A' for Active; 'I' for Inactive)
REMARK    1  A    between atoms: C_1  and  C_2
REMARK    2  A    between atoms: C_6  and  N_7
REMARK    3  A    between atoms: C_8  and  C_10
REMARK    4  A    between atoms: C_10  and  N_11
REMARK    5  A    between atoms: C_14  and  C_15
REMARK    6  A    between atoms: C_18  and  O_19
REMARK                            x       y       z     vdW  Elec       q    Type
REMARK                         _______ _______ _______ _____ _____    ______ ____
ROOT
ATOM      1  N   UNL     1       0.812   9.426  19.869  0.00  0.00    +0.000 NA
ATOM      2  C   UNL     1       1.386   8.831  21.080  0.00  0.00    +0.000 C 
ATOM      3  C   UNL     1       1.278   7.317  20.959  0.00  0.00    +0.000 C 
ATOM      4  C   UNL     1       2.333   6.838  19.961  0.00  0.00    +0.000 C 
ATOM      5  C   UNL     1       2.448   7.776  18.743  0.00  0.00    +0.000 C 
ATOM      6  C   UNL     1       1.342   8.842  18.623  0.00  0.00    +0.000 C 
ENDROOT
BRANCH   4   7
ATOM      7  C   UNL     1       2.196   5.366  19.618  0.00  0.00    +0.000 A 
ATOM      8  C   UNL     1       2.701   4.823  18.429  0.00  0.00    +0.000 A 
ATOM      9  C   UNL     1       2.526   3.464  18.138  0.00  0.00    +0.000 A 
ATOM     10  C   UNL     1       1.853   2.646  19.036  0.00  0.00    +0.000 A 
ATOM     11  C   UNL     1       1.354   3.159  20.225  0.00  0.00    +0.000 A 
ATOM     12  C   UNL     1       1.523   4.514  20.512  0.00  0.00    +0.000 A 
BRANCH  10  13
ATOM     13  O   UNL     1       1.663   1.318  18.791  0.00  0.00    +0.000 OA
ATOM     14  H   UNL     1       1.451   1.202  17.851  0.00  0.00    +0.000 HD
ENDBRANCH  10  13
ENDBRANCH   4   7
BRANCH   1  15
ATOM     15  C   UNL     1       0.892  10.906  19.883  0.00  0.00    +0.000 C 
BRANCH  15  17
ATOM     16  N   UNL     1      -1.207  10.667  18.643  0.00  0.00    +0.000 N 
ATOM     17  C   UNL     1      -0.228  11.562  19.049  0.00  0.00    +0.000 C 
ATOM     18  O   UNL     1      -0.167  12.756  18.767  0.00  0.00    +0.000 OA
ATOM     19  H   UNL     1      -1.066   9.721  18.989  0.00  0.00    +0.000 HD
BRANCH  16  25
ATOM     20  C   UNL     1      -3.658  10.239  14.381  0.00  0.00    +0.000 C 
ATOM     21  C   UNL     1      -3.599  10.719  15.800  0.00  0.00    +0.000 A 
ATOM     22  C   UNL     1      -4.680  11.404  16.359  0.00  0.00    +0.000 A 
ATOM     23  C   UNL     1      -4.621  11.846  17.678  0.00  0.00    +0.000 A 
ATOM     24  C   UNL     1      -3.481  11.612  18.451  0.00  0.00    +0.000 A 
ATOM     25  C   UNL     1      -2.384  10.934  17.916  0.00  0.00    +0.000 A 
ATOM     26  C   UNL     1      -2.457  10.483  16.588  0.00  0.00    +0.000 A 
ENDBRANCH  16  25
ENDBRANCH  15  17
ENDBRANCH   1  15
TORSDOF 5
ENDMDL
MODEL 4
REMARK VINA RESULT:      -7.6      6.109      9.328
REMARK  Name = 
REMARK  6 active torsions:
REMARK  status: ('A' for Active; 'I' for Inactive)
REMARK    1  A    between atoms: C_1  and  C_2
REMARK    2  A    between atoms: C_6  and  N_7
REMARK    3  A    between atoms: C_8  and  C_10
REMARK    4  A    between atoms: C_10  and  N_11
REMARK    5  A    between atoms: C_14  and  C_15
REMARK    6  A    between atoms: C_18  and  O_19
REMARK                            x       y       z     vdW  Elec       q    Type
REMARK                         _______ _______ _______ _____ _____    ______ ____
ROOT
ATOM      1  N   UNL     1       1.478   9.044  19.788  0.00  0.00    +0.000 NA
ATOM      2  C   UNL     1       1.400   8.917  18.329  0.00  0.00    +0.000 C 
ATOM      3  C   UNL     1       2.715   8.329  17.836  0.00  0.00    +0.000 C 
ATOM      4  C   UNL     1       2.736   6.839  18.183  0.00  0.00    +0.000 C 
ATOM      5  C   UNL     1       2.162   6.563  19.587  0.00  0.00    +0.000 C 
ATOM      6  C   UNL     1       1.922   7.809  20.460  0.00  0.00    +0.000 C 
ENDROOT
BRANCH   4   7
ATOM      7  C   UNL     1       4.079   6.188  17.906  0.00  0.00    +0.000 A 
ATOM      8  C   UNL     1       4.665   5.273  18.791  0.00  0.00    +0.000 A 
ATOM      9  C   UNL     1       5.920   4.718  18.511  0.00  0.00    +0.000 A 
ATOM     10  C   UNL     1       6.587   5.070  17.344  0.00  0.00    +0.000 A 
ATOM     11  C   UNL     1       6.020   5.965  16.447  0.00  0.00    +0.000 A 
ATOM     12  C   UNL     1       4.773   6.522  16.730  0.00  0.00    +0.000 A 
BRANCH  10  13
ATOM     13  O   UNL     1       7.809   4.552  17.034  0.00  0.00    +0.000 OA
ATOM     14  H   UNL     1       7.794   4.249  16.112  0.00  0.00    +0.000 HD
ENDBRANCH  10  13
ENDBRANCH   4   7
BRANCH   1  15
ATOM     15  C   UNL     1       0.229   9.591  20.368  0.00  0.00    +0.000 C 
BRANCH  15  17
ATOM     16  N   UNL     1      -1.569   9.805  18.718  0.00  0.00    +0.000 N 
ATOM     17  C   UNL     1      -0.543  10.476  19.368  0.00  0.00    +0.000 C 
ATOM     18  O   UNL     1      -0.197  11.640  19.179  0.00  0.00    +0.000 OA
ATOM     19  H   UNL     1      -1.688   8.843  19.025  0.00  0.00    +0.000 HD
BRANCH  16  25
ATOM     20  C   UNL     1      -3.072  10.016  14.022  0.00  0.00    +0.000 C 
ATOM     21  C   UNL     1      -3.239  10.421  15.456  0.00  0.00    +0.000 A 
ATOM     22  C   UNL     1      -4.278  11.276  15.833  0.00  0.00    +0.000 A 
ATOM     23  C   UNL     1      -4.429  11.647  17.166  0.00  0.00    +0.000 A 
ATOM     24  C   UNL     1      -3.543  11.171  18.137  0.00  0.00    +0.000 A 
ATOM     25  C   UNL     1      -2.494  10.319  17.787  0.00  0.00    +0.000 A 
ATOM     26  C   UNL     1      -2.355   9.942  16.441  0.00  0.00    +0.000 A 
ENDBRANCH  16  25
ENDBRANCH  15  17
ENDBRANCH   1  15
TORSDOF 5
ENDMDL
MODEL 5
REMARK VINA RESULT:      -7.6      6.383      9.101
REMARK  Name = 
REMARK  6 active torsions:
REMARK  status: ('A' for Active; 'I' for Inactive)
REMARK    1  A    between atoms: C_1  and  C_2
REMARK    2  A    between atoms: C_6  and  N_7
REMARK    3  A    between atoms: C_8  and  C_10
REMARK    4  A    between atoms: C_10  and  N_11
REMARK    5  A    between atoms: C_14  and  C_15
REMARK    6  A    between atoms: C_18  and  O_19
REMARK                            x       y       z     vdW  Elec       q    Type
REMARK                         _______ _______ _______ _____ _____    ______ ____
ROOT
ATOM      1  N   UNL     1       0.917   9.452  19.592  0.00  0.00    +0.000 NA
ATOM      2  C   UNL     1       1.390   8.911  20.870  0.00  0.00    +0.000 C 
ATOM      3  C   UNL     1       1.236   7.397  20.828  0.00  0.00    +0.000 C 
ATOM      4  C   UNL     1       2.334   6.826  19.929  0.00  0.00    +0.000 C 
ATOM      5  C   UNL     1       2.560   7.687  18.671  0.00  0.00    +0.000 C 
ATOM      6  C   UNL     1       1.503   8.780  18.418  0.00  0.00    +0.000 C 
ENDROOT
BRANCH   4   7
ATOM      7  C   UNL     1       2.166   5.342  19.662  0.00  0.00    +0.000 A 
ATOM      8  C   UNL     1       1.452   4.501  20.526  0.00  0.00    +0.000 A 
ATOM      9  C   UNL     1       1.347   3.130  20.258  0.00  0.00    +0.000 A 
ATOM     10  C   UNL     1       1.948   2.600  19.123  0.00  0.00    +0.000 A 
ATOM     11  C   UNL     1       2.650   3.416  18.247  0.00  0.00    +0.000 A 
ATOM     12  C   UNL     1       2.760   4.779  18.518  0.00  0.00    +0.000 A 
BRANCH  10  13
ATOM     13  O   UNL     1       1.868   1.272  18.825  0.00  0.00    +0.000 OA
ATOM     14  H   UNL     1       0.983   0.952  19.062  0.00  0.00    +0.000 HD
ENDBRANCH  10  13
ENDBRANCH   4   7
BRANCH   1  15
ATOM     15  C   UNL     1       1.048  10.927  19.529  0.00  0.00    +0.000 C 
BRANCH  15  17
ATOM     16  N   UNL     1      -1.096  10.684  18.369  0.00  0.00    +0.000 N 
ATOM     17  C   UNL     1      -0.144  11.592  18.810  0.00  0.00    +0.000 C 
ATOM     18  O   UNL     1      -0.159  12.808  18.637  0.00  0.00    +0.000 OA
ATOM     19  H   UNL     1      -0.890   9.720  18.619  0.00  0.00    +0.000 HD
BRANCH  16  25
ATOM     20  C   UNL     1      -3.855  10.200  14.306  0.00  0.00    +0.000 C 
ATOM     21  C   UNL     1      -3.688  10.707  15.707  0.00  0.00    +0.000 A 
ATOM     22  C   UNL     1      -4.720  11.414  16.330  0.00  0.00    +0.000 A 
ATOM     23  C   UNL     1      -4.560  11.881  17.632  0.00  0.00    +0.000 A 
ATOM     24  C   UNL     1      -3.369  11.650  18.324  0.00  0.00    +0.000 A 
ATOM     25  C   UNL     1      -2.320  10.949  17.724  0.00  0.00    +0.000 A 
ATOM     26  C   UNL     1      -2.494  10.474  16.414  0.00  0.00    +0.000 A 
ENDBRANCH  16  25
ENDBRANCH  15  17
ENDBRANCH   1  15
TORSDOF 5
ENDMDL
MODEL 6
REMARK VINA RESULT:      -7.6      6.809      9.368
REMARK  Name = 
REMARK  6 active torsions:
REMARK  status: ('A' for Active; 'I' for Inactive)
REMARK    1  A    between atoms: C_1  and  C_2
REMARK    2  A    between atoms: C_6  and  N_7
REMARK    3  A    between atoms: C_8  and  C_10
REMARK    4  A    between atoms: C_10  and  N_11
REMARK    5  A    between atoms: C_14  and  C_15
REMARK    6  A    between atoms: C_18  and  O_19
REMARK                            x       y       z     vdW  Elec       q    Type
REMARK                         _______ _______ _______ _____ _____    ______ ____
ROOT
ATOM      1  N   UNL     1       0.839   9.652  19.455  0.00  0.00    +0.000 NA
ATOM      2  C   UNL     1       1.351   9.076  20.702  0.00  0.00    +0.000 C 
ATOM      3  C   UNL     1       1.205   7.562  20.617  0.00  0.00    +0.000 C 
ATOM      4  C   UNL     1       2.282   7.027  19.673  0.00  0.00    +0.000 C 
ATOM      5  C   UNL     1       2.468   7.927  18.435  0.00  0.00    +0.000 C 
ATOM      6  C   UNL     1       1.398   9.019  18.245  0.00  0.00    +0.000 C 
ENDROOT
BRANCH   4   7
ATOM      7  C   UNL     1       2.117   5.550  19.365  0.00  0.00    +0.000 A 
ATOM      8  C   UNL     1       2.307   5.027  18.079  0.00  0.00    +0.000 A 
ATOM      9  C   UNL     1       2.114   3.662  17.832  0.00  0.00    +0.000 A 
ATOM     10  C   UNL     1       1.739   2.817  18.870  0.00  0.00    +0.000 A 
ATOM     11  C   UNL     1       1.556   3.312  20.154  0.00  0.00    +0.000 A 
ATOM     12  C   UNL     1       1.742   4.672  20.398  0.00  0.00    +0.000 A 
BRANCH  10  13
ATOM     13  O   UNL     1       1.542   1.483  18.671  0.00  0.00    +0.000 OA
ATOM     14  H   UNL     1       1.530   1.308  17.717  0.00  0.00    +0.000 HD
ENDBRANCH  10  13
ENDBRANCH   4   7
BRANCH   1  15
ATOM     15  C   UNL     1       0.959  11.128  19.432  0.00  0.00    +0.000 C 
BRANCH  15  17
ATOM     16  N   UNL     1      -1.373  10.972  18.698  0.00  0.00    +0.000 N 
ATOM     17  C   UNL     1      -0.268  11.807  18.790  0.00  0.00    +0.000 C 
ATOM     18  O   UNL     1      -0.189  12.962  18.378  0.00  0.00    +0.000 OA
ATOM     19  H   UNL     1      -1.225  10.051  19.102  0.00  0.00    +0.000 HD
BRANCH  16  25
ATOM     20  C   UNL     1      -5.843  12.842  19.638  0.00  0.00    +0.000 C 
ATOM     21  C   UNL     1      -4.876  12.209  18.681  0.00  0.00    +0.000 A 
ATOM     22  C   UNL     1      -5.259  11.943  17.364  0.00  0.00    +0.000 A 
ATOM     23  C   UNL     1      -4.357  11.358  16.479  0.00  0.00    +0.000 A 
ATOM     24  C   UNL     1      -3.066  11.029  16.901  0.00  0.00    +0.000 A 
ATOM     25  C   UNL     1      -2.659  11.280  18.212  0.00  0.00    +0.000 A 
ATOM     26  C   UNL     1      -3.573  11.879  19.095  0.00  0.00    +0.000 A 
ENDBRANCH  16  25
ENDBRANCH  15  17
ENDBRANCH   1  15
TORSDOF 5
ENDMDL
MODEL 7
REMARK VINA RESULT:      -7.4      6.246      9.488
REMARK  Name = 
REMARK  6 active torsions:
REMARK  status: ('A' for Active; 'I' for Inactive)
REMARK    1  A    between atoms: C_1  and  C_2
REMARK    2  A    between atoms: C_6  and  N_7
REMARK    3  A    between atoms: C_8  and  C_10
REMARK    4  A    between atoms: C_10  and  N_11
REMARK    5  A    between atoms: C_14  and  C_15
REMARK    6  A    between atoms: C_18  and  O_19
REMARK                            x       y       z     vdW  Elec       q    Type
REMARK                         _______ _______ _______ _____ _____    ______ ____
ROOT
ATOM      1  N   UNL     1       1.498   9.024  19.690  0.00  0.00    +0.000 NA
ATOM      2  C   UNL     1       1.503   8.857  18.233  0.00  0.00    +0.000 C 
ATOM      3  C   UNL     1       2.829   8.222  17.836  0.00  0.00    +0.000 C 
ATOM      4  C   UNL     1       2.790   6.743  18.224  0.00  0.00    +0.000 C 
ATOM      5  C   UNL     1       2.126   6.521  19.597  0.00  0.00    +0.000 C 
ATOM      6  C   UNL     1       1.868   7.797  20.421  0.00  0.00    +0.000 C 
ENDROOT
BRANCH   4   7
ATOM      7  C   UNL     1       4.128   6.051  18.046  0.00  0.00    +0.000 A 
ATOM      8  C   UNL     1       4.684   5.808  16.782  0.00  0.00    +0.000 A 
ATOM      9  C   UNL     1       5.908   5.138  16.661  0.00  0.00    +0.000 A 
ATOM     10  C   UNL     1       6.582   4.717  17.801  0.00  0.00    +0.000 A 
ATOM     11  C   UNL     1       6.056   4.957  19.063  0.00  0.00    +0.000 A 
ATOM     12  C   UNL     1       4.834   5.619  19.183  0.00  0.00    +0.000 A 
BRANCH  10  13
ATOM     13  O   UNL     1       7.775   4.064  17.727  0.00  0.00    +0.000 OA
ATOM     14  H   UNL     1       8.398   4.480  18.345  0.00  0.00    +0.000 HD
ENDBRANCH  10  13
ENDBRANCH   4   7
BRANCH   1  15
ATOM     15  C   UNL     1       0.231   9.618  20.178  0.00  0.00    +0.000 C 
BRANCH  15  17
ATOM     16  N   UNL     1      -1.555   9.766  18.509  0.00  0.00    +0.000 N 
ATOM     17  C   UNL     1      -0.490  10.439  19.090  0.00  0.00    +0.000 C 
ATOM     18  O   UNL     1      -0.076  11.554  18.783  0.00  0.00    +0.000 OA
ATOM     19  H   UNL     1      -1.730   8.849  18.913  0.00  0.00    +0.000 HD
BRANCH  16  25
ATOM     20  C   UNL     1      -5.703  12.240  17.490  0.00  0.00    +0.000 C 
ATOM     21  C   UNL     1      -4.508  11.463  17.023  0.00  0.00    +0.000 A 
ATOM     22  C   UNL     1      -4.309  11.225  15.661  0.00  0.00    +0.000 A 
ATOM     23  C   UNL     1      -3.197  10.505  15.233  0.00  0.00    +0.000 A 
ATOM     24  C   UNL     1      -2.274  10.014  16.159  0.00  0.00    +0.000 A 
ATOM     25  C   UNL     1      -2.450  10.234  17.526  0.00  0.00    +0.000 A 
ATOM     26  C   UNL     1      -3.570  10.969  17.949  0.00  0.00    +0.000 A 
ENDBRANCH  16  25
ENDBRANCH  15  17
ENDBRANCH   1  15
TORSDOF 5
ENDMDL
MODEL 8
REMARK VINA RESULT:      -7.4      7.715      8.733
REMARK  Name = 
REMARK  6 active torsions:
REMARK  status: ('A' for Active; 'I' for Inactive)
REMARK    1  A    between atoms: C_1  and  C_2
REMARK    2  A    between atoms: C_6  and  N_7
REMARK    3  A    between atoms: C_8  and  C_10
REMARK    4  A    between atoms: C_10  and  N_11
REMARK    5  A    between atoms: C_14  and  C_15
REMARK    6  A    between atoms: C_18  and  O_19
REMARK                            x       y       z     vdW  Elec       q    Type
REMARK                         _______ _______ _______ _____ _____    ______ ____
ROOT
ATOM      1  N   UNL     1       0.723   9.777  19.982  0.00  0.00    +0.000 NA
ATOM      2  C   UNL     1       1.320   9.108  21.141  0.00  0.00    +0.000 C 
ATOM      3  C   UNL     1       1.164   7.605  20.952  0.00  0.00    +0.000 C 
ATOM      4  C   UNL     1       2.171   7.147  19.895  0.00  0.00    +0.000 C 
ATOM      5  C   UNL     1       2.271   8.140  18.720  0.00  0.00    +0.000 C 
ATOM      6  C   UNL     1       1.193   9.240  18.691  0.00  0.00    +0.000 C 
ENDROOT
BRANCH   4   7
ATOM      7  C   UNL     1       1.979   5.698  19.487  0.00  0.00    +0.000 A 
ATOM      8  C   UNL     1       2.244   5.243  18.187  0.00  0.00    +0.000 A 
ATOM      9  C   UNL     1       2.025   3.904  17.845  0.00  0.00    +0.000 A 
ATOM     10  C   UNL     1       1.549   3.014  18.801  0.00  0.00    +0.000 A 
ATOM     11  C   UNL     1       1.291   3.439  20.097  0.00  0.00    +0.000 A 
ATOM     12  C   UNL     1       1.504   4.775  20.436  0.00  0.00    +0.000 A 
BRANCH  10  13
ATOM     13  O   UNL     1       1.323   1.702  18.509  0.00  0.00    +0.000 OA
ATOM     14  H   UNL     1       0.365   1.548  18.485  0.00  0.00    +0.000 HD
ENDBRANCH  10  13
ENDBRANCH   4   7
BRANCH   1  15
ATOM     15  C   UNL     1       0.846  11.251  20.064  0.00  0.00    +0.000 C 
BRANCH  15  17
ATOM     16  N   UNL     1      -0.423  12.053  22.000  0.00  0.00    +0.000 N 
ATOM     17  C   UNL     1      -0.431  11.916  20.619  0.00  0.00    +0.000 C 
ATOM     18  O   UNL     1      -1.347  12.222  19.860  0.00  0.00    +0.000 OA
ATOM     19  H   UNL     1       0.437  11.735  22.439  0.00  0.00    +0.000 HD
BRANCH  16  25
ATOM     20  C   UNL     1      -1.718  15.917  24.784  0.00  0.00    +0.000 C 
ATOM     21  C   UNL     1      -2.038  14.573  24.201  0.00  0.00    +0.000 A 
ATOM     22  C   UNL     1      -3.262  13.958  24.476  0.00  0.00    +0.000 A 
ATOM     23  C   UNL     1      -3.556  12.712  23.931  0.00  0.00    +0.000 A 
ATOM     24  C   UNL     1      -2.630  12.064  23.109  0.00  0.00    +0.000 A 
ATOM     25  C   UNL     1      -1.397  12.654  22.822  0.00  0.00    +0.000 A 
ATOM     26  C   UNL     1      -1.114  13.916  23.368  0.00  0.00    +0.000 A 
ENDBRANCH  16  25
ENDBRANCH  15  17
ENDBRANCH   1  15
TORSDOF 5
ENDMDL
MODEL 9
REMARK VINA RESULT:      -7.4      7.708      8.722
REMARK  Name = 
REMARK  6 active torsions:
REMARK  status: ('A' for Active; 'I' for Inactive)
REMARK    1  A    between atoms: C_1  and  C_2
REMARK    2  A    between atoms: C_6  and  N_7
REMARK    3  A    between atoms: C_8  and  C_10
REMARK    4  A    between atoms: C_10  and  N_11
REMARK    5  A    between atoms: C_14  and  C_15
REMARK    6  A    between atoms: C_18  and  O_19
REMARK                            x       y       z     vdW  Elec       q    Type
REMARK                         _______ _______ _______ _____ _____    ______ ____
ROOT
ATOM      1  N   UNL     1       0.758   9.703  20.131  0.00  0.00    +0.000 NA
ATOM      2  C   UNL     1       1.309   9.017  21.303  0.00  0.00    +0.000 C 
ATOM      3  C   UNL     1       1.094   7.521  21.120  0.00  0.00    +0.000 C 
ATOM      4  C   UNL     1       2.095   7.014  20.081  0.00  0.00    +0.000 C 
ATOM      5  C   UNL     1       2.254   7.995  18.902  0.00  0.00    +0.000 C 
ATOM      6  C   UNL     1       1.224   9.139  18.850  0.00  0.00    +0.000 C 
ENDROOT
BRANCH   4   7
ATOM      7  C   UNL     1       1.850   5.572  19.679  0.00  0.00    +0.000 A 
ATOM      8  C   UNL     1       1.276   4.637  20.552  0.00  0.00    +0.000 A 
ATOM      9  C   UNL     1       1.095   3.308  20.152  0.00  0.00    +0.000 A 
ATOM     10  C   UNL     1       1.480   2.912  18.876  0.00  0.00    +0.000 A 
ATOM     11  C   UNL     1       2.039   3.822  17.990  0.00  0.00    +0.000 A 
ATOM     12  C   UNL     1       2.225   5.145  18.393  0.00  0.00    +0.000 A 
BRANCH  10  13
ATOM     13  O   UNL     1       1.319   1.628  18.447  0.00  0.00    +0.000 OA
ATOM     14  H   UNL     1       1.445   1.029  19.200  0.00  0.00    +0.000 HD
ENDBRANCH  10  13
ENDBRANCH   4   7
BRANCH   1  15
ATOM     15  C   UNL     1       0.941  11.171  20.206  0.00  0.00    +0.000 C 
BRANCH  15  17
ATOM     16  N   UNL     1      -0.429  11.923  22.092  0.00  0.00    +0.000 N 
ATOM     17  C   UNL     1      -0.325  11.895  20.709  0.00  0.00    +0.000 C 
ATOM     18  O   UNL     1      -1.144  12.335  19.906  0.00  0.00    +0.000 OA
ATOM     19  H   UNL     1       0.361  11.501  22.572  0.00  0.00    +0.000 HD
BRANCH  16  25
ATOM     20  C   UNL     1      -1.878  15.917  24.605  0.00  0.00    +0.000 C 
ATOM     21  C   UNL     1      -2.142  14.521  24.124  0.00  0.00    +0.000 A 
ATOM     22  C   UNL     1      -3.334  13.873  24.455  0.00  0.00    +0.000 A 
ATOM     23  C   UNL     1      -3.574  12.578  24.005  0.00  0.00    +0.000 A 
ATOM     24  C   UNL     1      -2.626  11.915  23.222  0.00  0.00    +0.000 A 
ATOM     25  C   UNL     1      -1.424  12.538  22.879  0.00  0.00    +0.000 A 
ATOM     26  C   UNL     1      -1.195  13.848  23.330  0.00  0.00    +0.000 A 
ENDBRANCH  16  25
ENDBRANCH  15  17
ENDBRANCH   1  15
TORSDOF 5
ENDMDL
