MODEL 1
REMARK VINA RESULT:      -6.4      0.000      0.000
REMARK  Name = 
REMARK  10 active torsions:
REMARK  status: ('A' for Active; 'I' for Inactive)
REMARK    1  A    between atoms: C_1  and  C_2
REMARK    2  A    between atoms: C_2  and  C_3
REMARK    3  A    between atoms: C_3  and  N_4
REMARK    4  A    between atoms: C_8  and  C_9
REMARK    5  A    between atoms: C_9  and  N_10
REMARK    6  A    between atoms: N_10  and  C_11
REMARK    7  A    between atoms: N_10  and  S_12
REMARK    8  A    between atoms: S_12  and  C_15
REMARK    9  A    between atoms: C_15  and  C_16
REMARK   10  A    between atoms: C_16  and  C_17
REMARK                            x       y       z     vdW  Elec       q    Type
REMARK                         _______ _______ _______ _____ _____    ______ ____
ROOT
ATOM      1  C   UNL     1       4.349   5.256  17.213  0.00  0.00    +0.000 C 
ENDROOT
BRANCH   1   6
ATOM      2  N   UNL     1       6.754   4.834  16.383  0.00  0.00    +0.000 N 
ATOM      3  N   UNL     1       7.932   4.512  16.952  0.00  0.00    +0.000 NA
ATOM      4  N   UNL     1       7.684   4.405  18.246  0.00  0.00    +0.000 NA
ATOM      5  N   UNL     1       6.373   4.647  18.516  0.00  0.00    +0.000 NA
ATOM      6  C   UNL     1       5.788   4.895  17.351  0.00  0.00    +0.000 A 
BRANCH   2   7
ATOM      7  C   UNL     1       6.696   4.928  14.942  0.00  0.00    +0.000 C 
BRANCH   7   9
ATOM      8  C   UNL     1       6.340   3.691  12.781  0.00  0.00    +0.000 C 
ATOM      9  C   UNL     1       5.934   3.802  14.250  0.00  0.00    +0.000 C 
ENDBRANCH   7   9
ENDBRANCH   2   7
ENDBRANCH   1   6
BRANCH   1  10
ATOM     10  N   UNL     1       3.509   4.914  18.396  0.00  0.00    +0.000 NA
ATOM     11  C   UNL     1       2.569   6.013  18.776  0.00  0.00    +0.000 C 
BRANCH  10  12
ATOM     12  S   UNL     1       2.674   3.407  18.176  0.00  0.00    +0.000 S 
ATOM     13  O   UNL     1       2.187   3.372  16.818  0.00  0.00    +0.000 OA
ATOM     14  O   UNL     1       3.556   2.371  18.689  0.00  0.00    +0.000 OA
BRANCH  12  15
ATOM     15  C   UNL     1       1.284   3.585  19.299  0.00  0.00    +0.000 C 
BRANCH  15  16
ATOM     16  C   UNL     1       1.415   2.635  20.481  0.00  0.00    +0.000 C 
ATOM     17  C   UNL     1       2.046   3.319  21.683  0.00  0.00    +0.000 C 
ENDBRANCH  15  16
ENDBRANCH  12  15
ENDBRANCH  10  12
ENDBRANCH   1  10
TORSDOF 7
ENDMDL
MODEL 2
REMARK VINA RESULT:      -6.3      1.730      2.696
REMARK  Name = 
REMARK  10 active torsions:
REMARK  status: ('A' for Active; 'I' for Inactive)
REMARK    1  A    between atoms: C_1  and  C_2
REMARK    2  A    between atoms: C_2  and  C_3
REMARK    3  A    between atoms: C_3  and  N_4
REMARK    4  A    between atoms: C_8  and  C_9
REMARK    5  A    between atoms: C_9  and  N_10
REMARK    6  A    between atoms: N_10  and  C_11
REMARK    7  A    between atoms: N_10  and  S_12
REMARK    8  A    between atoms: S_12  and  C_15
REMARK    9  A    between atoms: C_15  and  C_16
REMARK   10  A    between atoms: C_16  and  C_17
REMARK                            x       y       z     vdW  Elec       q    Type
REMARK                         _______ _______ _______ _____ _____    ______ ____
ROOT
ATOM      1  C   UNL     1       4.161   5.055  17.092  0.00  0.00    +0.000 C 
ENDROOT
BRANCH   1   6
ATOM      2  N   UNL     1       6.510   5.916  16.469  0.00  0.00    +0.000 N 
ATOM      3  N   UNL     1       7.467   5.569  15.587  0.00  0.00    +0.000 NA
ATOM      4  N   UNL     1       6.981   4.531  14.927  0.00  0.00    +0.000 NA
ATOM      5  N   UNL     1       5.734   4.211  15.366  0.00  0.00    +0.000 NA
ATOM      6  C   UNL     1       5.433   5.088  16.316  0.00  0.00    +0.000 A 
BRANCH   2   7
ATOM      7  C   UNL     1       6.726   7.094  17.279  0.00  0.00    +0.000 C 
BRANCH   7   9
ATOM      8  C   UNL     1       7.780   5.823  19.177  0.00  0.00    +0.000 C 
ATOM      9  C   UNL     1       7.918   7.015  18.230  0.00  0.00    +0.000 C 
ENDBRANCH   7   9
ENDBRANCH   2   7
ENDBRANCH   1   6
BRANCH   1  10
ATOM     10  N   UNL     1       4.137   4.057  18.200  0.00  0.00    +0.000 NA
ATOM     11  C   UNL     1       4.306   4.682  19.547  0.00  0.00    +0.000 C 
BRANCH  10  12
ATOM     12  S   UNL     1       2.719   3.058  18.133  0.00  0.00    +0.000 S 
ATOM     13  O   UNL     1       2.149   3.197  16.814  0.00  0.00    +0.000 OA
ATOM     14  O   UNL     1       3.107   1.757  18.655  0.00  0.00    +0.000 OA
BRANCH  12  15
ATOM     15  C   UNL     1       1.644   3.858  19.329  0.00  0.00    +0.000 C 
BRANCH  15  16
ATOM     16  C   UNL     1       1.072   2.844  20.309  0.00  0.00    +0.000 C 
ATOM     17  C   UNL     1       1.757   2.924  21.663  0.00  0.00    +0.000 C 
ENDBRANCH  15  16
ENDBRANCH  12  15
ENDBRANCH  10  12
ENDBRANCH   1  10
TORSDOF 7
ENDMDL
MODEL 3
REMARK VINA RESULT:      -6.3      2.062      3.139
REMARK  Name = 
REMARK  10 active torsions:
REMARK  status: ('A' for Active; 'I' for Inactive)
REMARK    1  A    between atoms: C_1  and  C_2
REMARK    2  A    between atoms: C_2  and  C_3
REMARK    3  A    between atoms: C_3  and  N_4
REMARK    4  A    between atoms: C_8  and  C_9
REMARK    5  A    between atoms: C_9  and  N_10
REMARK    6  A    between atoms: N_10  and  C_11
REMARK    7  A    between atoms: N_10  and  S_12
REMARK    8  A    between atoms: S_12  and  C_15
REMARK    9  A    between atoms: C_15  and  C_16
REMARK   10  A    between atoms: C_16  and  C_17
REMARK                            x       y       z     vdW  Elec       q    Type
REMARK                         _______ _______ _______ _____ _____    ______ ____
ROOT
ATOM      1  C   UNL     1       5.166   4.010  17.709  0.00  0.00    +0.000 C 
ENDROOT
BRANCH   1   6
ATOM      2  N   UNL     1       6.492   5.675  16.253  0.00  0.00    +0.000 N 
ATOM      3  N   UNL     1       7.070   5.651  15.037  0.00  0.00    +0.000 NA
ATOM      4  N   UNL     1       6.837   4.441  14.557  0.00  0.00    +0.000 NA
ATOM      5  N   UNL     1       6.120   3.693  15.438  0.00  0.00    +0.000 NA
ATOM      6  C   UNL     1       5.888   4.470  16.489  0.00  0.00    +0.000 A 
BRANCH   2   7
ATOM      7  C   UNL     1       6.506   6.919  16.989  0.00  0.00    +0.000 C 
BRANCH   7   9
ATOM      8  C   UNL     1       8.163   8.563  17.928  0.00  0.00    +0.000 C 
ATOM      9  C   UNL     1       7.700   7.106  17.921  0.00  0.00    +0.000 C 
ENDBRANCH   7   9
ENDBRANCH   2   7
ENDBRANCH   1   6
BRANCH   1  10
ATOM     10  N   UNL     1       3.800   3.471  17.453  0.00  0.00    +0.000 NA
ATOM     11  C   UNL     1       3.606   2.097  18.009  0.00  0.00    +0.000 C 
BRANCH  10  12
ATOM     12  S   UNL     1       2.566   4.562  18.003  0.00  0.00    +0.000 S 
ATOM     13  O   UNL     1       3.016   5.905  17.726  0.00  0.00    +0.000 OA
ATOM     14  O   UNL     1       1.308   4.062  17.471  0.00  0.00    +0.000 OA
BRANCH  12  15
ATOM     15  C   UNL     1       2.589   4.285  19.777  0.00  0.00    +0.000 C 
BRANCH  15  16
ATOM     16  C   UNL     1       1.218   3.853  20.278  0.00  0.00    +0.000 C 
ATOM     17  C   UNL     1       1.325   2.846  21.410  0.00  0.00    +0.000 C 
ENDBRANCH  15  16
ENDBRANCH  12  15
ENDBRANCH  10  12
ENDBRANCH   1  10
TORSDOF 7
ENDMDL
MODEL 4
REMARK VINA RESULT:      -6.2      1.913      2.979
REMARK  Name = 
REMARK  10 active torsions:
REMARK  status: ('A' for Active; 'I' for Inactive)
REMARK    1  A    between atoms: C_1  and  C_2
REMARK    2  A    between atoms: C_2  and  C_3
REMARK    3  A    between atoms: C_3  and  N_4
REMARK    4  A    between atoms: C_8  and  C_9
REMARK    5  A    between atoms: C_9  and  N_10
REMARK    6  A    between atoms: N_10  and  C_11
REMARK    7  A    between atoms: N_10  and  S_12
REMARK    8  A    between atoms: S_12  and  C_15
REMARK    9  A    between atoms: C_15  and  C_16
REMARK   10  A    between atoms: C_16  and  C_17
REMARK                            x       y       z     vdW  Elec       q    Type
REMARK                         _______ _______ _______ _____ _____    ______ ____
ROOT
ATOM      1  C   UNL     1       4.383   5.380  17.382  0.00  0.00    +0.000 C 
ENDROOT
BRANCH   1   6
ATOM      2  N   UNL     1       6.826   5.009  16.645  0.00  0.00    +0.000 N 
ATOM      3  N   UNL     1       7.490   4.973  15.473  0.00  0.00    +0.000 NA
ATOM      4  N   UNL     1       6.578   5.200  14.542  0.00  0.00    +0.000 NA
ATOM      5  N   UNL     1       5.349   5.385  15.094  0.00  0.00    +0.000 NA
ATOM      6  C   UNL     1       5.507   5.285  16.408  0.00  0.00    +0.000 A 
BRANCH   2   7
ATOM      7  C   UNL     1       7.592   4.882  17.865  0.00  0.00    +0.000 C 
BRANCH   7   9
ATOM      8  C   UNL     1       7.748   7.393  17.818  0.00  0.00    +0.000 C 
ATOM      9  C   UNL     1       7.679   6.152  18.708  0.00  0.00    +0.000 C 
ENDBRANCH   7   9
ENDBRANCH   2   7
ENDBRANCH   1   6
BRANCH   1  10
ATOM     10  N   UNL     1       3.596   4.124  17.544  0.00  0.00    +0.000 NA
ATOM     11  C   UNL     1       4.343   3.063  18.287  0.00  0.00    +0.000 C 
BRANCH  10  12
ATOM     12  S   UNL     1       2.042   4.428  18.255  0.00  0.00    +0.000 S 
ATOM     13  O   UNL     1       2.177   5.568  19.129  0.00  0.00    +0.000 OA
ATOM     14  O   UNL     1       1.081   4.423  17.163  0.00  0.00    +0.000 OA
BRANCH  12  15
ATOM     15  C   UNL     1       1.791   2.951  19.246  0.00  0.00    +0.000 C 
BRANCH  15  16
ATOM     16  C   UNL     1       1.008   3.272  20.511  0.00  0.00    +0.000 C 
ATOM     17  C   UNL     1       1.757   2.836  21.760  0.00  0.00    +0.000 C 
ENDBRANCH  15  16
ENDBRANCH  12  15
ENDBRANCH  10  12
ENDBRANCH   1  10
TORSDOF 7
ENDMDL
MODEL 5
REMARK VINA RESULT:      -6.2      2.260      3.268
REMARK  Name = 
REMARK  10 active torsions:
REMARK  status: ('A' for Active; 'I' for Inactive)
REMARK    1  A    between atoms: C_1  and  C_2
REMARK    2  A    between atoms: C_2  and  C_3
REMARK    3  A    between atoms: C_3  and  N_4
REMARK    4  A    between atoms: C_8  and  C_9
REMARK    5  A    between atoms: C_9  and  N_10
REMARK    6  A    between atoms: N_10  and  C_11
REMARK    7  A    between atoms: N_10  and  S_12
REMARK    8  A    between atoms: S_12  and  C_15
REMARK    9  A    between atoms: C_15  and  C_16
REMARK   10  A    between atoms: C_16  and  C_17
REMARK                            x       y       z     vdW  Elec       q    Type
REMARK                         _______ _______ _______ _____ _____    ______ ____
ROOT
ATOM      1  C   UNL     1       4.624   5.737  17.834  0.00  0.00    +0.000 C 
ENDROOT
BRANCH   1   6
ATOM      2  N   UNL     1       6.964   6.199  16.857  0.00  0.00    +0.000 N 
ATOM      3  N   UNL     1       7.593   5.954  15.690  0.00  0.00    +0.000 NA
ATOM      4  N   UNL     1       6.706   5.330  14.933  0.00  0.00    +0.000 NA
ATOM      5  N   UNL     1       5.524   5.175  15.589  0.00  0.00    +0.000 NA
ATOM      6  C   UNL     1       5.680   5.734  16.783  0.00  0.00    +0.000 A 
BRANCH   2   7
ATOM      7  C   UNL     1       7.668   6.963  17.862  0.00  0.00    +0.000 C 
BRANCH   7   9
ATOM      8  C   UNL     1       8.682   9.142  18.605  0.00  0.00    +0.000 C 
ATOM      9  C   UNL     1       7.781   8.458  17.576  0.00  0.00    +0.000 C 
ENDBRANCH   7   9
ENDBRANCH   2   7
ENDBRANCH   1   6
BRANCH   1  10
ATOM     10  N   UNL     1       3.852   4.465  17.940  0.00  0.00    +0.000 NA
ATOM     11  C   UNL     1       4.453   3.502  18.912  0.00  0.00    +0.000 C 
BRANCH  10  12
ATOM     12  S   UNL     1       2.175   4.759  18.284  0.00  0.00    +0.000 S 
ATOM     13  O   UNL     1       1.885   6.121  17.908  0.00  0.00    +0.000 OA
ATOM     14  O   UNL     1       1.437   3.644  17.713  0.00  0.00    +0.000 OA
BRANCH  12  15
ATOM     15  C   UNL     1       2.134   4.618  20.074  0.00  0.00    +0.000 C 
BRANCH  15  16
ATOM     16  C   UNL     1       1.041   3.656  20.518  0.00  0.00    +0.000 C 
ATOM     17  C   UNL     1       1.553   2.659  21.545  0.00  0.00    +0.000 C 
ENDBRANCH  15  16
ENDBRANCH  12  15
ENDBRANCH  10  12
ENDBRANCH   1  10
TORSDOF 7
ENDMDL
MODEL 6
REMARK VINA RESULT:      -6.1      1.435      1.595
REMARK  Name = 
REMARK  10 active torsions:
REMARK  status: ('A' for Active; 'I' for Inactive)
REMARK    1  A    between atoms: C_1  and  C_2
REMARK    2  A    between atoms: C_2  and  C_3
REMARK    3  A    between atoms: C_3  and  N_4
REMARK    4  A    between atoms: C_8  and  C_9
REMARK    5  A    between atoms: C_9  and  N_10
REMARK    6  A    between atoms: N_10  and  C_11
REMARK    7  A    between atoms: N_10  and  S_12
REMARK    8  A    between atoms: S_12  and  C_15
REMARK    9  A    between atoms: C_15  and  C_16
REMARK   10  A    between atoms: C_16  and  C_17
REMARK                            x       y       z     vdW  Elec       q    Type
REMARK                         _______ _______ _______ _____ _____    ______ ____
ROOT
ATOM      1  C   UNL     1       4.180   5.377  16.949  0.00  0.00    +0.000 C 
ENDROOT
BRANCH   1   6
ATOM      2  N   UNL     1       6.329   5.022  15.569  0.00  0.00    +0.000 N 
ATOM      3  N   UNL     1       7.549   5.590  15.514  0.00  0.00    +0.000 NA
ATOM      4  N   UNL     1       7.540   6.541  16.433  0.00  0.00    +0.000 NA
ATOM      5  N   UNL     1       6.343   6.590  17.076  0.00  0.00    +0.000 NA
ATOM      6  C   UNL     1       5.593   5.629  16.550  0.00  0.00    +0.000 A 
BRANCH   2   7
ATOM      7  C   UNL     1       6.073   3.874  14.728  0.00  0.00    +0.000 C 
BRANCH   7   9
ATOM      8  C   UNL     1       5.580   3.239  12.345  0.00  0.00    +0.000 C 
ATOM      9  C   UNL     1       6.501   4.032  13.272  0.00  0.00    +0.000 C 
ENDBRANCH   7   9
ENDBRANCH   2   7
ENDBRANCH   1   6
BRANCH   1  10
ATOM     10  N   UNL     1       4.020   4.484  18.133  0.00  0.00    +0.000 NA
ATOM     11  C   UNL     1       4.336   5.171  19.423  0.00  0.00    +0.000 C 
BRANCH  10  12
ATOM     12  S   UNL     1       2.451   3.743  18.171  0.00  0.00    +0.000 S 
ATOM     13  O   UNL     1       1.527   4.705  18.723  0.00  0.00    +0.000 OA
ATOM     14  O   UNL     1       2.239   3.161  16.856  0.00  0.00    +0.000 OA
BRANCH  12  15
ATOM     15  C   UNL     1       2.697   2.414  19.354  0.00  0.00    +0.000 C 
BRANCH  15  16
ATOM     16  C   UNL     1       1.625   2.443  20.435  0.00  0.00    +0.000 C 
ATOM     17  C   UNL     1       2.174   2.959  21.755  0.00  0.00    +0.000 C 
ENDBRANCH  15  16
ENDBRANCH  12  15
ENDBRANCH  10  12
ENDBRANCH   1  10
TORSDOF 7
ENDMDL
MODEL 7
REMARK VINA RESULT:      -6.1      1.468      1.948
REMARK  Name = 
REMARK  10 active torsions:
REMARK  status: ('A' for Active; 'I' for Inactive)
REMARK    1  A    between atoms: C_1  and  C_2
REMARK    2  A    between atoms: C_2  and  C_3
REMARK    3  A    between atoms: C_3  and  N_4
REMARK    4  A    between atoms: C_8  and  C_9
REMARK    5  A    between atoms: C_9  and  N_10
REMARK    6  A    between atoms: N_10  and  C_11
REMARK    7  A    between atoms: N_10  and  S_12
REMARK    8  A    between atoms: S_12  and  C_15
REMARK    9  A    between atoms: C_15  and  C_16
REMARK   10  A    between atoms: C_16  and  C_17
REMARK                            x       y       z     vdW  Elec       q    Type
REMARK                         _______ _______ _______ _____ _____    ______ ____
ROOT
ATOM      1  C   UNL     1       4.566   4.689  18.737  0.00  0.00    +0.000 C 
ENDROOT
BRANCH   1   6
ATOM      2  N   UNL     1       6.465   4.294  17.038  0.00  0.00    +0.000 N 
ATOM      3  N   UNL     1       7.812   4.310  17.069  0.00  0.00    +0.000 NA
ATOM      4  N   UNL     1       8.134   4.600  18.318  0.00  0.00    +0.000 NA
ATOM      5  N   UNL     1       7.024   4.767  19.086  0.00  0.00    +0.000 NA
ATOM      6  C   UNL     1       5.982   4.557  18.291  0.00  0.00    +0.000 A 
BRANCH   2   7
ATOM      7  C   UNL     1       5.816   3.910  15.804  0.00  0.00    +0.000 C 
BRANCH   7   9
ATOM      8  C   UNL     1       5.217   6.326  15.441  0.00  0.00    +0.000 C 
ATOM      9  C   UNL     1       5.672   5.028  14.775  0.00  0.00    +0.000 C 
ENDBRANCH   7   9
ENDBRANCH   2   7
ENDBRANCH   1   6
BRANCH   1  10
ATOM     10  N   UNL     1       3.631   3.698  18.132  0.00  0.00    +0.000 NA
ATOM     11  C   UNL     1       3.817   2.318  18.676  0.00  0.00    +0.000 C 
BRANCH  10  12
ATOM     12  S   UNL     1       1.978   4.216  18.258  0.00  0.00    +0.000 S 
ATOM     13  O   UNL     1       1.975   5.516  18.885  0.00  0.00    +0.000 OA
ATOM     14  O   UNL     1       1.381   4.007  16.948  0.00  0.00    +0.000 OA
BRANCH  12  15
ATOM     15  C   UNL     1       1.296   3.008  19.398  0.00  0.00    +0.000 C 
BRANCH  15  16
ATOM     16  C   UNL     1       1.214   3.576  20.807  0.00  0.00    +0.000 C 
ATOM     17  C   UNL     1       1.803   2.621  21.833  0.00  0.00    +0.000 C 
ENDBRANCH  15  16
ENDBRANCH  12  15
ENDBRANCH  10  12
ENDBRANCH   1  10
TORSDOF 7
ENDMDL
MODEL 8
REMARK VINA RESULT:      -6.1      1.685      2.079
REMARK  Name = 
REMARK  10 active torsions:
REMARK  status: ('A' for Active; 'I' for Inactive)
REMARK    1  A    between atoms: C_1  and  C_2
REMARK    2  A    between atoms: C_2  and  C_3
REMARK    3  A    between atoms: C_3  and  N_4
REMARK    4  A    between atoms: C_8  and  C_9
REMARK    5  A    between atoms: C_9  and  N_10
REMARK    6  A    between atoms: N_10  and  C_11
REMARK    7  A    between atoms: N_10  and  S_12
REMARK    8  A    between atoms: S_12  and  C_15
REMARK    9  A    between atoms: C_15  and  C_16
REMARK   10  A    between atoms: C_16  and  C_17
REMARK                            x       y       z     vdW  Elec       q    Type
REMARK                         _______ _______ _______ _____ _____    ______ ____
ROOT
ATOM      1  C   UNL     1       4.704   4.419  19.253  0.00  0.00    +0.000 C 
ENDROOT
BRANCH   1   6
ATOM      2  N   UNL     1       6.313   5.763  17.752  0.00  0.00    +0.000 N 
ATOM      3  N   UNL     1       7.533   6.317  17.890  0.00  0.00    +0.000 NA
ATOM      4  N   UNL     1       7.909   6.041  19.128  0.00  0.00    +0.000 NA
ATOM      5  N   UNL     1       6.958   5.320  19.781  0.00  0.00    +0.000 NA
ATOM      6  C   UNL     1       5.969   5.131  18.915  0.00  0.00    +0.000 A 
BRANCH   2   7
ATOM      7  C   UNL     1       5.681   5.825  16.453  0.00  0.00    +0.000 C 
BRANCH   7   9
ATOM      8  C   UNL     1       5.924   3.817  14.958  0.00  0.00    +0.000 C 
ATOM      9  C   UNL     1       6.480   5.196  15.315  0.00  0.00    +0.000 C 
ENDBRANCH   7   9
ENDBRANCH   2   7
ENDBRANCH   1   6
BRANCH   1  10
ATOM     10  N   UNL     1       3.822   4.136  18.085  0.00  0.00    +0.000 NA
ATOM     11  C   UNL     1       3.660   2.673  17.823  0.00  0.00    +0.000 C 
BRANCH  10  12
ATOM     12  S   UNL     1       2.286   4.933  18.233  0.00  0.00    +0.000 S 
ATOM     13  O   UNL     1       2.481   6.322  17.897  0.00  0.00    +0.000 OA
ATOM     14  O   UNL     1       1.325   4.110  17.516  0.00  0.00    +0.000 OA
BRANCH  12  15
ATOM     15  C   UNL     1       1.962   4.790  19.994  0.00  0.00    +0.000 C 
BRANCH  15  16
ATOM     16  C   UNL     1       0.959   3.680  20.273  0.00  0.00    +0.000 C 
ATOM     17  C   UNL     1       1.444   2.748  21.372  0.00  0.00    +0.000 C 
ENDBRANCH  15  16
ENDBRANCH  12  15
ENDBRANCH  10  12
ENDBRANCH   1  10
TORSDOF 7
ENDMDL
MODEL 9
REMARK VINA RESULT:      -6.1      1.254      1.273
REMARK  Name = 
REMARK  10 active torsions:
REMARK  status: ('A' for Active; 'I' for Inactive)
REMARK    1  A    between atoms: C_1  and  C_2
REMARK    2  A    between atoms: C_2  and  C_3
REMARK    3  A    between atoms: C_3  and  N_4
REMARK    4  A    between atoms: C_8  and  C_9
REMARK    5  A    between atoms: C_9  and  N_10
REMARK    6  A    between atoms: N_10  and  C_11
REMARK    7  A    between atoms: N_10  and  S_12
REMARK    8  A    between atoms: S_12  and  C_15
REMARK    9  A    between atoms: C_15  and  C_16
REMARK   10  A    between atoms: C_16  and  C_17
REMARK                            x       y       z     vdW  Elec       q    Type
REMARK                         _______ _______ _______ _____ _____    ______ ____
ROOT
ATOM      1  C   UNL     1       4.123   5.893  17.207  0.00  0.00    +0.000 C 
ENDROOT
BRANCH   1   6
ATOM      2  N   UNL     1       6.235   5.256  15.872  0.00  0.00    +0.000 N 
ATOM      3  N   UNL     1       7.495   5.724  15.770  0.00  0.00    +0.000 NA
ATOM      4  N   UNL     1       7.560   6.752  16.600  0.00  0.00    +0.000 NA
ATOM      5  N   UNL     1       6.371   6.948  17.232  0.00  0.00    +0.000 NA
ATOM      6  C   UNL     1       5.550   6.002  16.792  0.00  0.00    +0.000 A 
BRANCH   2   7
ATOM      7  C   UNL     1       5.892   4.060  15.137  0.00  0.00    +0.000 C 
BRANCH   7   9
ATOM      8  C   UNL     1       5.421   3.717  12.690  0.00  0.00    +0.000 C 
ATOM      9  C   UNL     1       6.503   3.961  13.742  0.00  0.00    +0.000 C 
ENDBRANCH   7   9
ENDBRANCH   2   7
ENDBRANCH   1   6
BRANCH   1  10
ATOM     10  N   UNL     1       3.913   5.254  18.538  0.00  0.00    +0.000 NA
ATOM     11  C   UNL     1       3.084   6.092  19.458  0.00  0.00    +0.000 C 
BRANCH  10  12
ATOM     12  S   UNL     1       3.271   3.648  18.385  0.00  0.00    +0.000 S 
ATOM     13  O   UNL     1       2.970   3.429  16.991  0.00  0.00    +0.000 OA
ATOM     14  O   UNL     1       4.179   2.772  19.109  0.00  0.00    +0.000 OA
BRANCH  12  15
ATOM     15  C   UNL     1       1.736   3.772  19.310  0.00  0.00    +0.000 C 
BRANCH  15  16
ATOM     16  C   UNL     1       1.504   2.522  20.147  0.00  0.00    +0.000 C 
ATOM     17  C   UNL     1       1.632   2.810  21.634  0.00  0.00    +0.000 C 
ENDBRANCH  15  16
ENDBRANCH  12  15
ENDBRANCH  10  12
ENDBRANCH   1  10
TORSDOF 7
ENDMDL
