MODEL 1
REMARK VINA RESULT:      -5.7      0.000      0.000
REMARK  Name = 
REMARK  21 active torsions:
REMARK  status: ('A' for Active; 'I' for Inactive)
REMARK    1  A    between atoms: C_1  and  C_2
REMARK    2  A    between atoms: C_2  and  C_3
REMARK    3  A    between atoms: C_3  and  C_4
REMARK    4  A    between atoms: C_4  and  C_5
REMARK    5  A    between atoms: C_5  and  C_6
REMARK    6  A    between atoms: C_6  and  C_7
REMARK    7  A    between atoms: C_7  and  C_8
REMARK    8  A    between atoms: C_8  and  C_9
REMARK    9  A    between atoms: C_9  and  C_10
REMARK   10  A    between atoms: C_10  and  C_11
REMARK   11  A    between atoms: C_11  and  C_12
REMARK   12  A    between atoms: C_12  and  C_13
REMARK   13  A    between atoms: C_13  and  C_14
REMARK   14  A    between atoms: C_19  and  O_20
REMARK   15  A    between atoms: C_21  and  N_22
REMARK   16  A    between atoms: N_22  and  C_23
REMARK   17  A    between atoms: C_23  and  C_24
REMARK   18  A    between atoms: C_24  and  C_25
REMARK   19  A    between atoms: C_25  and  C_26
REMARK   20  A    between atoms: C_26  and  C_27
REMARK   21  A    between atoms: C_27  and  C_28
REMARK                            x       y       z     vdW  Elec       q    Type
REMARK                         _______ _______ _______ _____ _____    ______ ____
ROOT
ATOM      1  C   UNL     1       2.519   5.970  17.711  0.00  0.00    +0.000 C 
ATOM      2  C   UNL     1       2.022   4.999  18.505  0.00  0.00    +0.000 C 
ATOM      3  C   UNL     1       1.622   3.704  17.801  0.00  0.00    +0.000 C 
ATOM      4  C   UNL     1       2.396   2.511  18.354  0.00  0.00    +0.000 C 
ATOM      5  C   UNL     1       2.132   2.346  19.838  0.00  0.00    +0.000 C 
ATOM      6  C   UNL     1       2.482   3.624  20.604  0.00  0.00    +0.000 C 
ATOM      7  C   UNL     1       1.768   4.899  20.014  0.00  0.00    +0.000 C 
ENDROOT
BRANCH   7   8
ATOM      8  N   UNL     1       2.125   6.004  20.908  0.00  0.00    +0.000 NA
ATOM      9  H   UNL     1       2.435   5.596  21.792  0.00  0.00    +0.000 HD
BRANCH   8  10
ATOM     10  C   UNL     1       1.143   7.040  21.180  0.00  0.00    +0.000 C 
BRANCH  10  11
ATOM     11  C   UNL     1       1.501   8.513  20.977  0.00  0.00    +0.000 C 
BRANCH  11  12
ATOM     12  C   UNL     1       0.251   9.323  20.680  0.00  0.00    +0.000 C 
BRANCH  12  13
ATOM     13  C   UNL     1       0.445  10.347  19.564  0.00  0.00    +0.000 C 
BRANCH  13  14
ATOM     14  C   UNL     1      -0.772  10.295  18.641  0.00  0.00    +0.000 C 
ATOM     15  C   UNL     1      -1.488  11.626  18.533  0.00  0.00    +0.000 C 
ENDBRANCH  13  14
ENDBRANCH  12  13
ENDBRANCH  11  12
ENDBRANCH  10  11
ENDBRANCH   8  10
ENDBRANCH   7   8
BRANCH   6  16
ATOM     16  O   UNL     1       2.119   3.429  21.983  0.00  0.00    +0.000 OA
ATOM     17  H   UNL     1       1.649   4.227  22.276  0.00  0.00    +0.000 HD
ENDBRANCH   6  16
BRANCH   1  18
ATOM     18  C   UNL     1       3.160   7.300  17.977  0.00  0.00    +0.000 C 
BRANCH  18  19
ATOM     19  C   UNL     1       4.512   7.495  17.277  0.00  0.00    +0.000 C 
BRANCH  19  20
ATOM     20  C   UNL     1       4.487   6.990  15.821  0.00  0.00    +0.000 C 
BRANCH  20  21
ATOM     21  C   UNL     1       5.596   5.984  15.494  0.00  0.00    +0.000 C 
BRANCH  21  22
ATOM     22  C   UNL     1       5.013   4.612  15.166  0.00  0.00    +0.000 C 
BRANCH  22  23
ATOM     23  C   UNL     1       5.162   3.616  16.305  0.00  0.00    +0.000 C 
BRANCH  23  24
ATOM     24  C   UNL     1       6.247   4.112  17.263  0.00  0.00    +0.000 C 
BRANCH  24  25
ATOM     25  C   UNL     1       5.658   4.449  18.624  0.00  0.00    +0.000 C 
BRANCH  25  26
ATOM     26  C   UNL     1       6.557   5.396  19.419  0.00  0.00    +0.000 C 
BRANCH  26  27
ATOM     27  C   UNL     1       7.766   5.769  18.571  0.00  0.00    +0.000 C 
BRANCH  27  28
ATOM     28  C   UNL     1       8.278   7.176  18.850  0.00  0.00    +0.000 C 
BRANCH  28  30
ATOM     29  C   UNL     1       8.312   9.539  17.946  0.00  0.00    +0.000 C 
ATOM     30  C   UNL     1       7.890   8.104  17.695  0.00  0.00    +0.000 C 
ENDBRANCH  28  30
ENDBRANCH  27  28
ENDBRANCH  26  27
ENDBRANCH  25  26
ENDBRANCH  24  25
ENDBRANCH  23  24
ENDBRANCH  22  23
ENDBRANCH  21  22
ENDBRANCH  20  21
ENDBRANCH  19  20
ENDBRANCH  18  19
ENDBRANCH   1  18
TORSDOF 19
ENDMDL
MODEL 2
REMARK VINA RESULT:      -5.5      2.002      7.629
REMARK  Name = 
REMARK  21 active torsions:
REMARK  status: ('A' for Active; 'I' for Inactive)
REMARK    1  A    between atoms: C_1  and  C_2
REMARK    2  A    between atoms: C_2  and  C_3
REMARK    3  A    between atoms: C_3  and  C_4
REMARK    4  A    between atoms: C_4  and  C_5
REMARK    5  A    between atoms: C_5  and  C_6
REMARK    6  A    between atoms: C_6  and  C_7
REMARK    7  A    between atoms: C_7  and  C_8
REMARK    8  A    between atoms: C_8  and  C_9
REMARK    9  A    between atoms: C_9  and  C_10
REMARK   10  A    between atoms: C_10  and  C_11
REMARK   11  A    between atoms: C_11  and  C_12
REMARK   12  A    between atoms: C_12  and  C_13
REMARK   13  A    between atoms: C_13  and  C_14
REMARK   14  A    between atoms: C_19  and  O_20
REMARK   15  A    between atoms: C_21  and  N_22
REMARK   16  A    between atoms: N_22  and  C_23
REMARK   17  A    between atoms: C_23  and  C_24
REMARK   18  A    between atoms: C_24  and  C_25
REMARK   19  A    between atoms: C_25  and  C_26
REMARK   20  A    between atoms: C_26  and  C_27
REMARK   21  A    between atoms: C_27  and  C_28
REMARK                            x       y       z     vdW  Elec       q    Type
REMARK                         _______ _______ _______ _____ _____    ______ ____
ROOT
ATOM      1  C   UNL     1       4.055   7.103  17.077  0.00  0.00    +0.000 C 
ATOM      2  C   UNL     1       5.240   6.528  17.374  0.00  0.00    +0.000 C 
ATOM      3  C   UNL     1       6.461   7.125  16.677  0.00  0.00    +0.000 C 
ATOM      4  C   UNL     1       7.481   7.639  17.689  0.00  0.00    +0.000 C 
ATOM      5  C   UNL     1       7.950   6.514  18.591  0.00  0.00    +0.000 C 
ATOM      6  C   UNL     1       6.769   5.847  19.299  0.00  0.00    +0.000 C 
ATOM      7  C   UNL     1       5.649   5.373  18.295  0.00  0.00    +0.000 C 
ENDROOT
BRANCH   7   8
ATOM      8  N   UNL     1       4.651   4.679  19.114  0.00  0.00    +0.000 NA
ATOM      9  H   UNL     1       5.006   4.647  20.071  0.00  0.00    +0.000 HD
BRANCH   8  10
ATOM     10  C   UNL     1       4.218   3.348  18.722  0.00  0.00    +0.000 C 
BRANCH  10  11
ATOM     11  C   UNL     1       3.147   3.172  17.645  0.00  0.00    +0.000 C 
BRANCH  11  12
ATOM     12  C   UNL     1       1.808   3.688  18.143  0.00  0.00    +0.000 C 
BRANCH  12  13
ATOM     13  C   UNL     1       1.150   2.768  19.170  0.00  0.00    +0.000 C 
BRANCH  13  14
ATOM     14  C   UNL     1       0.974   3.546  20.474  0.00  0.00    +0.000 C 
ATOM     15  C   UNL     1       1.839   3.013  21.599  0.00  0.00    +0.000 C 
ENDBRANCH  13  14
ENDBRANCH  12  13
ENDBRANCH  11  12
ENDBRANCH  10  11
ENDBRANCH   8  10
ENDBRANCH   7   8
BRANCH   6  16
ATOM     16  O   UNL     1       7.276   4.735  20.058  0.00  0.00    +0.000 OA
ATOM     17  H   UNL     1       8.245   4.744  19.976  0.00  0.00    +0.000 HD
ENDBRANCH   6  16
BRANCH   1  18
ATOM     18  C   UNL     1       2.665   6.953  17.621  0.00  0.00    +0.000 C 
BRANCH  18  19
ATOM     19  C   UNL     1       2.341   7.902  18.783  0.00  0.00    +0.000 C 
BRANCH  19  20
ATOM     20  C   UNL     1       1.969   7.136  20.067  0.00  0.00    +0.000 C 
BRANCH  20  21
ATOM     21  C   UNL     1       1.624   8.043  21.254  0.00  0.00    +0.000 C 
BRANCH  21  22
ATOM     22  C   UNL     1       0.438   8.945  20.928  0.00  0.00    +0.000 C 
BRANCH  22  23
ATOM     23  C   UNL     1       0.756  10.425  21.079  0.00  0.00    +0.000 C 
BRANCH  23  24
ATOM     24  C   UNL     1       0.046  11.203  19.968  0.00  0.00    +0.000 C 
BRANCH  24  25
ATOM     25  C   UNL     1      -1.118  10.404  19.404  0.00  0.00    +0.000 C 
BRANCH  25  26
ATOM     26  C   UNL     1      -1.141  10.426  17.876  0.00  0.00    +0.000 C 
BRANCH  26  27
ATOM     27  C   UNL     1      -2.108  11.504  17.404  0.00  0.00    +0.000 C 
BRANCH  27  28
ATOM     28  C   UNL     1      -3.430  10.940  16.901  0.00  0.00    +0.000 C 
BRANCH  28  30
ATOM     29  C   UNL     1      -3.018  10.139  14.537  0.00  0.00    +0.000 C 
ATOM     30  C   UNL     1      -3.165   9.737  15.992  0.00  0.00    +0.000 C 
ENDBRANCH  28  30
ENDBRANCH  27  28
ENDBRANCH  26  27
ENDBRANCH  25  26
ENDBRANCH  24  25
ENDBRANCH  23  24
ENDBRANCH  22  23
ENDBRANCH  21  22
ENDBRANCH  20  21
ENDBRANCH  19  20
ENDBRANCH  18  19
ENDBRANCH   1  18
TORSDOF 19
ENDMDL
MODEL 3
REMARK VINA RESULT:      -5.4      3.298      6.081
REMARK  Name = 
REMARK  21 active torsions:
REMARK  status: ('A' for Active; 'I' for Inactive)
REMARK    1  A    between atoms: C_1  and  C_2
REMARK    2  A    between atoms: C_2  and  C_3
REMARK    3  A    between atoms: C_3  and  C_4
REMARK    4  A    between atoms: C_4  and  C_5
REMARK    5  A    between atoms: C_5  and  C_6
REMARK    6  A    between atoms: C_6  and  C_7
REMARK    7  A    between atoms: C_7  and  C_8
REMARK    8  A    between atoms: C_8  and  C_9
REMARK    9  A    between atoms: C_9  and  C_10
REMARK   10  A    between atoms: C_10  and  C_11
REMARK   11  A    between atoms: C_11  and  C_12
REMARK   12  A    between atoms: C_12  and  C_13
REMARK   13  A    between atoms: C_13  and  C_14
REMARK   14  A    between atoms: C_19  and  O_20
REMARK   15  A    between atoms: C_21  and  N_22
REMARK   16  A    between atoms: N_22  and  C_23
REMARK   17  A    between atoms: C_23  and  C_24
REMARK   18  A    between atoms: C_24  and  C_25
REMARK   19  A    between atoms: C_25  and  C_26
REMARK   20  A    between atoms: C_26  and  C_27
REMARK   21  A    between atoms: C_27  and  C_28
REMARK                            x       y       z     vdW  Elec       q    Type
REMARK                         _______ _______ _______ _____ _____    ______ ____
ROOT
ATOM      1  C   UNL     1       1.028   9.053  19.771  0.00  0.00    +0.000 C 
ATOM      2  C   UNL     1       0.029   9.525  20.547  0.00  0.00    +0.000 C 
ATOM      3  C   UNL     1      -0.254   8.732  21.821  0.00  0.00    +0.000 C 
ATOM      4  C   UNL     1      -0.091   9.602  23.063  0.00  0.00    +0.000 C 
ATOM      5  C   UNL     1      -1.043  10.782  23.016  0.00  0.00    +0.000 C 
ATOM      6  C   UNL     1      -0.834  11.605  21.743  0.00  0.00    +0.000 C 
ATOM      7  C   UNL     1      -0.912  10.730  20.435  0.00  0.00    +0.000 C 
ENDROOT
BRANCH   7   8
ATOM      8  N   UNL     1      -0.792  11.672  19.319  0.00  0.00    +0.000 NA
ATOM      9  H   UNL     1      -0.824  12.616  19.709  0.00  0.00    +0.000 HD
BRANCH   8  10
ATOM     10  C   UNL     1      -1.731  11.582  18.213  0.00  0.00    +0.000 C 
BRANCH  10  11
ATOM     11  C   UNL     1      -1.883  10.273  17.437  0.00  0.00    +0.000 C 
BRANCH  11  12
ATOM     12  C   UNL     1      -3.346  10.017  17.119  0.00  0.00    +0.000 C 
BRANCH  12  13
ATOM     13  C   UNL     1      -4.236  11.238  17.343  0.00  0.00    +0.000 C 
BRANCH  13  14
ATOM     14  C   UNL     1      -5.359  10.848  18.304  0.00  0.00    +0.000 C 
ATOM     15  C   UNL     1      -6.647  11.601  18.041  0.00  0.00    +0.000 C 
ENDBRANCH  13  14
ENDBRANCH  12  13
ENDBRANCH  11  12
ENDBRANCH  10  11
ENDBRANCH   8  10
ENDBRANCH   7   8
BRANCH   6  16
ATOM     16  O   UNL     1      -1.829  12.646  21.720  0.00  0.00    +0.000 OA
ATOM     17  H   UNL     1      -2.051  12.857  22.642  0.00  0.00    +0.000 HD
ENDBRANCH   6  16
BRANCH   1  18
ATOM     18  C   UNL     1       1.729   9.576  18.553  0.00  0.00    +0.000 C 
BRANCH  18  19
ATOM     19  C   UNL     1       2.494   8.504  17.762  0.00  0.00    +0.000 C 
BRANCH  19  20
ATOM     20  C   UNL     1       2.233   7.087  18.309  0.00  0.00    +0.000 C 
BRANCH  20  21
ATOM     21  C   UNL     1       3.449   6.453  18.993  0.00  0.00    +0.000 C 
BRANCH  21  22
ATOM     22  C   UNL     1       3.024   5.593  20.180  0.00  0.00    +0.000 C 
BRANCH  22  23
ATOM     23  C   UNL     1       1.519   5.582  20.398  0.00  0.00    +0.000 C 
BRANCH  23  24
ATOM     24  C   UNL     1       1.000   4.154  20.221  0.00  0.00    +0.000 C 
BRANCH  24  25
ATOM     25  C   UNL     1       2.151   3.168  20.104  0.00  0.00    +0.000 C 
BRANCH  25  26
ATOM     26  C   UNL     1       1.814   2.002  19.175  0.00  0.00    +0.000 C 
BRANCH  26  27
ATOM     27  C   UNL     1       3.010   1.717  18.275  0.00  0.00    +0.000 C 
BRANCH  27  28
ATOM     28  C   UNL     1       4.002   2.872  18.219  0.00  0.00    +0.000 C 
BRANCH  28  30
ATOM     29  C   UNL     1       5.215   4.022  16.319  0.00  0.00    +0.000 C 
ATOM     30  C   UNL     1       3.869   3.599  16.878  0.00  0.00    +0.000 C 
ENDBRANCH  28  30
ENDBRANCH  27  28
ENDBRANCH  26  27
ENDBRANCH  25  26
ENDBRANCH  24  25
ENDBRANCH  23  24
ENDBRANCH  22  23
ENDBRANCH  21  22
ENDBRANCH  20  21
ENDBRANCH  19  20
ENDBRANCH  18  19
ENDBRANCH   1  18
TORSDOF 19
ENDMDL
MODEL 4
REMARK VINA RESULT:      -5.4      3.136      6.977
REMARK  Name = 
REMARK  21 active torsions:
REMARK  status: ('A' for Active; 'I' for Inactive)
REMARK    1  A    between atoms: C_1  and  C_2
REMARK    2  A    between atoms: C_2  and  C_3
REMARK    3  A    between atoms: C_3  and  C_4
REMARK    4  A    between atoms: C_4  and  C_5
REMARK    5  A    between atoms: C_5  and  C_6
REMARK    6  A    between atoms: C_6  and  C_7
REMARK    7  A    between atoms: C_7  and  C_8
REMARK    8  A    between atoms: C_8  and  C_9
REMARK    9  A    between atoms: C_9  and  C_10
REMARK   10  A    between atoms: C_10  and  C_11
REMARK   11  A    between atoms: C_11  and  C_12
REMARK   12  A    between atoms: C_12  and  C_13
REMARK   13  A    between atoms: C_13  and  C_14
REMARK   14  A    between atoms: C_19  and  O_20
REMARK   15  A    between atoms: C_21  and  N_22
REMARK   16  A    between atoms: N_22  and  C_23
REMARK   17  A    between atoms: C_23  and  C_24
REMARK   18  A    between atoms: C_24  and  C_25
REMARK   19  A    between atoms: C_25  and  C_26
REMARK   20  A    between atoms: C_26  and  C_27
REMARK   21  A    between atoms: C_27  and  C_28
REMARK                            x       y       z     vdW  Elec       q    Type
REMARK                         _______ _______ _______ _____ _____    ______ ____
ROOT
ATOM      1  C   UNL     1       4.837   4.342  16.064  0.00  0.00    +0.000 C 
ATOM      2  C   UNL     1       5.887   4.184  15.231  0.00  0.00    +0.000 C 
ATOM      3  C   UNL     1       5.743   3.083  14.182  0.00  0.00    +0.000 C 
ATOM      4  C   UNL     1       5.861   3.644  12.769  0.00  0.00    +0.000 C 
ATOM      5  C   UNL     1       7.207   4.315  12.572  0.00  0.00    +0.000 C 
ATOM      6  C   UNL     1       7.431   5.412  13.615  0.00  0.00    +0.000 C 
ATOM      7  C   UNL     1       7.238   4.895  15.092  0.00  0.00    +0.000 C 
ENDROOT
BRANCH   7   8
ATOM      8  N   UNL     1       7.580   6.028  15.957  0.00  0.00    +0.000 NA
ATOM      9  H   UNL     1       8.480   6.395  15.641  0.00  0.00    +0.000 HD
BRANCH   8  10
ATOM     10  C   UNL     1       7.625   5.829  17.396  0.00  0.00    +0.000 C 
BRANCH  10  11
ATOM     11  C   UNL     1       7.901   7.010  18.328  0.00  0.00    +0.000 C 
BRANCH  11  12
ATOM     12  C   UNL     1       7.433   8.306  17.689  0.00  0.00    +0.000 C 
BRANCH  12  13
ATOM     13  C   UNL     1       8.460   9.433  17.788  0.00  0.00    +0.000 C 
BRANCH  13  14
ATOM     14  C   UNL     1       9.023   9.452  19.208  0.00  0.00    +0.000 C 
ATOM     15  C   UNL     1       9.429  10.839  19.663  0.00  0.00    +0.000 C 
ENDBRANCH  13  14
ENDBRANCH  12  13
ENDBRANCH  11  12
ENDBRANCH  10  11
ENDBRANCH   8  10
ENDBRANCH   7   8
BRANCH   6  16
ATOM     16  O   UNL     1       8.759   5.937  13.429  0.00  0.00    +0.000 OA
ATOM     17  H   UNL     1       9.250   5.787  14.254  0.00  0.00    +0.000 HD
ENDBRANCH   6  16
BRANCH   1  18
ATOM     18  C   UNL     1       4.486   5.361  17.107  0.00  0.00    +0.000 C 
BRANCH  18  19
ATOM     19  C   UNL     1       4.237   6.769  16.549  0.00  0.00    +0.000 C 
BRANCH  19  20
ATOM     20  C   UNL     1       3.600   7.701  17.598  0.00  0.00    +0.000 C 
BRANCH  20  21
ATOM     21  C   UNL     1       2.283   7.175  18.178  0.00  0.00    +0.000 C 
BRANCH  21  22
ATOM     22  C   UNL     1       2.054   7.705  19.591  0.00  0.00    +0.000 C 
BRANCH  22  23
ATOM     23  C   UNL     1       1.865   6.600  20.618  0.00  0.00    +0.000 C 
BRANCH  23  24
ATOM     24  C   UNL     1       1.730   5.261  19.889  0.00  0.00    +0.000 C 
BRANCH  24  25
ATOM     25  C   UNL     1       1.355   4.151  20.857  0.00  0.00    +0.000 C 
BRANCH  25  26
ATOM     26  C   UNL     1       2.510   3.175  21.086  0.00  0.00    +0.000 C 
BRANCH  26  27
ATOM     27  C   UNL     1       3.500   3.292  19.934  0.00  0.00    +0.000 C 
BRANCH  27  28
ATOM     28  C   UNL     1       4.128   1.958  19.550  0.00  0.00    +0.000 C 
BRANCH  28  30
ATOM     29  C   UNL     1       2.399   2.331  17.741  0.00  0.00    +0.000 C 
ATOM     30  C   UNL     1       3.596   1.513  18.185  0.00  0.00    +0.000 C 
ENDBRANCH  28  30
ENDBRANCH  27  28
ENDBRANCH  26  27
ENDBRANCH  25  26
ENDBRANCH  24  25
ENDBRANCH  23  24
ENDBRANCH  22  23
ENDBRANCH  21  22
ENDBRANCH  20  21
ENDBRANCH  19  20
ENDBRANCH  18  19
ENDBRANCH   1  18
TORSDOF 19
ENDMDL
MODEL 5
REMARK VINA RESULT:      -5.3      2.191      6.903
REMARK  Name = 
REMARK  21 active torsions:
REMARK  status: ('A' for Active; 'I' for Inactive)
REMARK    1  A    between atoms: C_1  and  C_2
REMARK    2  A    between atoms: C_2  and  C_3
REMARK    3  A    between atoms: C_3  and  C_4
REMARK    4  A    between atoms: C_4  and  C_5
REMARK    5  A    between atoms: C_5  and  C_6
REMARK    6  A    between atoms: C_6  and  C_7
REMARK    7  A    between atoms: C_7  and  C_8
REMARK    8  A    between atoms: C_8  and  C_9
REMARK    9  A    between atoms: C_9  and  C_10
REMARK   10  A    between atoms: C_10  and  C_11
REMARK   11  A    between atoms: C_11  and  C_12
REMARK   12  A    between atoms: C_12  and  C_13
REMARK   13  A    between atoms: C_13  and  C_14
REMARK   14  A    between atoms: C_19  and  O_20
REMARK   15  A    between atoms: C_21  and  N_22
REMARK   16  A    between atoms: N_22  and  C_23
REMARK   17  A    between atoms: C_23  and  C_24
REMARK   18  A    between atoms: C_24  and  C_25
REMARK   19  A    between atoms: C_25  and  C_26
REMARK   20  A    between atoms: C_26  and  C_27
REMARK   21  A    between atoms: C_27  and  C_28
REMARK                            x       y       z     vdW  Elec       q    Type
REMARK                         _______ _______ _______ _____ _____    ______ ____
ROOT
ATOM      1  C   UNL     1       2.316   6.375  19.205  0.00  0.00    +0.000 C 
ATOM      2  C   UNL     1       2.551   5.072  19.467  0.00  0.00    +0.000 C 
ATOM      3  C   UNL     1       2.229   4.611  20.888  0.00  0.00    +0.000 C 
ATOM      4  C   UNL     1       1.191   3.494  20.887  0.00  0.00    +0.000 C 
ATOM      5  C   UNL     1       1.696   2.298  20.102  0.00  0.00    +0.000 C 
ATOM      6  C   UNL     1       2.068   2.697  18.672  0.00  0.00    +0.000 C 
ATOM      7  C   UNL     1       3.078   3.907  18.623  0.00  0.00    +0.000 C 
ENDROOT
BRANCH   7   8
ATOM      8  N   UNL     1       3.403   4.095  17.206  0.00  0.00    +0.000 NA
ATOM      9  H   UNL     1       2.896   3.383  16.677  0.00  0.00    +0.000 HD
BRANCH   8  10
ATOM     10  C   UNL     1       4.797   4.091  16.794  0.00  0.00    +0.000 C 
BRANCH  10  11
ATOM     11  C   UNL     1       5.253   4.947  15.612  0.00  0.00    +0.000 C 
BRANCH  11  12
ATOM     12  C   UNL     1       5.275   6.415  16.002  0.00  0.00    +0.000 C 
BRANCH  12  13
ATOM     13  C   UNL     1       5.849   6.663  17.395  0.00  0.00    +0.000 C 
BRANCH  13  14
ATOM     14  C   UNL     1       7.365   6.813  17.275  0.00  0.00    +0.000 C 
ATOM     15  C   UNL     1       7.854   8.189  17.676  0.00  0.00    +0.000 C 
ENDBRANCH  13  14
ENDBRANCH  12  13
ENDBRANCH  11  12
ENDBRANCH  10  11
ENDBRANCH   8  10
ENDBRANCH   7   8
BRANCH   6  16
ATOM     16  O   UNL     1       2.626   1.541  18.020  0.00  0.00    +0.000 OA
ATOM     17  H   UNL     1       2.717   1.755  17.076  0.00  0.00    +0.000 HD
ENDBRANCH   6  16
BRANCH   1  18
ATOM     18  C   UNL     1       2.337   7.201  17.953  0.00  0.00    +0.000 C 
BRANCH  18  19
ATOM     19  C   UNL     1       2.718   8.672  18.179  0.00  0.00    +0.000 C 
BRANCH  19  20
ATOM     20  C   UNL     1       1.613   9.633  17.699  0.00  0.00    +0.000 C 
BRANCH  20  21
ATOM     21  C   UNL     1       0.423   9.740  18.660  0.00  0.00    +0.000 C 
BRANCH  21  22
ATOM     22  C   UNL     1      -0.881   9.949  17.897  0.00  0.00    +0.000 C 
BRANCH  22  23
ATOM     23  C   UNL     1      -1.778  11.003  18.528  0.00  0.00    +0.000 C 
BRANCH  23  24
ATOM     24  C   UNL     1      -0.902  12.073  19.184  0.00  0.00    +0.000 C 
BRANCH  24  25
ATOM     25  C   UNL     1      -1.332  12.319  20.621  0.00  0.00    +0.000 C 
BRANCH  25  26
ATOM     26  C   UNL     1      -0.138  12.588  21.538  0.00  0.00    +0.000 C 
BRANCH  26  27
ATOM     27  C   UNL     1       1.142  12.566  20.714  0.00  0.00    +0.000 C 
BRANCH  27  28
ATOM     28  C   UNL     1       1.807  13.932  20.609  0.00  0.00    +0.000 C 
BRANCH  28  30
ATOM     29  C   UNL     1       2.460  13.215  18.272  0.00  0.00    +0.000 C 
ATOM     30  C   UNL     1       2.916  13.886  19.554  0.00  0.00    +0.000 C 
ENDBRANCH  28  30
ENDBRANCH  27  28
ENDBRANCH  26  27
ENDBRANCH  25  26
ENDBRANCH  24  25
ENDBRANCH  23  24
ENDBRANCH  22  23
ENDBRANCH  21  22
ENDBRANCH  20  21
ENDBRANCH  19  20
ENDBRANCH  18  19
ENDBRANCH   1  18
TORSDOF 19
ENDMDL
MODEL 6
REMARK VINA RESULT:      -5.3      3.151      7.823
REMARK  Name = 
REMARK  21 active torsions:
REMARK  status: ('A' for Active; 'I' for Inactive)
REMARK    1  A    between atoms: C_1  and  C_2
REMARK    2  A    between atoms: C_2  and  C_3
REMARK    3  A    between atoms: C_3  and  C_4
REMARK    4  A    between atoms: C_4  and  C_5
REMARK    5  A    between atoms: C_5  and  C_6
REMARK    6  A    between atoms: C_6  and  C_7
REMARK    7  A    between atoms: C_7  and  C_8
REMARK    8  A    between atoms: C_8  and  C_9
REMARK    9  A    between atoms: C_9  and  C_10
REMARK   10  A    between atoms: C_10  and  C_11
REMARK   11  A    between atoms: C_11  and  C_12
REMARK   12  A    between atoms: C_12  and  C_13
REMARK   13  A    between atoms: C_13  and  C_14
REMARK   14  A    between atoms: C_19  and  O_20
REMARK   15  A    between atoms: C_21  and  N_22
REMARK   16  A    between atoms: N_22  and  C_23
REMARK   17  A    between atoms: C_23  and  C_24
REMARK   18  A    between atoms: C_24  and  C_25
REMARK   19  A    between atoms: C_25  and  C_26
REMARK   20  A    between atoms: C_26  and  C_27
REMARK   21  A    between atoms: C_27  and  C_28
REMARK                            x       y       z     vdW  Elec       q    Type
REMARK                         _______ _______ _______ _____ _____    ______ ____
ROOT
ATOM      1  C   UNL     1       3.407   4.517  17.625  0.00  0.00    +0.000 C 
ATOM      2  C   UNL     1       4.629   5.062  17.441  0.00  0.00    +0.000 C 
ATOM      3  C   UNL     1       5.017   6.168  18.420  0.00  0.00    +0.000 C 
ATOM      4  C   UNL     1       6.286   5.810  19.187  0.00  0.00    +0.000 C 
ATOM      5  C   UNL     1       7.443   5.592  18.231  0.00  0.00    +0.000 C 
ATOM      6  C   UNL     1       7.108   4.514  17.199  0.00  0.00    +0.000 C 
ATOM      7  C   UNL     1       5.758   4.801  16.437  0.00  0.00    +0.000 C 
ENDROOT
BRANCH   7   8
ATOM      8  N   UNL     1       5.636   3.743  15.431  0.00  0.00    +0.000 NA
ATOM      9  H   UNL     1       5.998   2.882  15.846  0.00  0.00    +0.000 HD
BRANCH   8  10
ATOM     10  C   UNL     1       6.243   3.935  14.125  0.00  0.00    +0.000 C 
BRANCH  10  11
ATOM     11  C   UNL     1       5.521   3.464  12.863  0.00  0.00    +0.000 C 
BRANCH  11  12
ATOM     12  C   UNL     1       6.504   3.330  11.712  0.00  0.00    +0.000 C 
BRANCH  12  13
ATOM     13  C   UNL     1       7.078   1.922  11.569  0.00  0.00    +0.000 C 
BRANCH  13  14
ATOM     14  C   UNL     1       6.004   1.020  10.962  0.00  0.00    +0.000 C 
ATOM     15  C   UNL     1       6.163  -0.434  11.358  0.00  0.00    +0.000 C 
ENDBRANCH  13  14
ENDBRANCH  12  13
ENDBRANCH  11  12
ENDBRANCH  10  11
ENDBRANCH   8  10
ENDBRANCH   7   8
BRANCH   6  16
ATOM     16  O   UNL     1       8.207   4.429  16.273  0.00  0.00    +0.000 OA
ATOM     17  H   UNL     1       8.365   3.487  16.094  0.00  0.00    +0.000 HD
ENDBRANCH   6  16
BRANCH   1  18
ATOM     18  C   UNL     1       2.695   3.342  17.023  0.00  0.00    +0.000 C 
BRANCH  18  19
ATOM     19  C   UNL     1       2.921   2.021  17.772  0.00  0.00    +0.000 C 
BRANCH  19  20
ATOM     20  C   UNL     1       4.050   2.135  18.815  0.00  0.00    +0.000 C 
BRANCH  20  21
ATOM     21  C   UNL     1       3.615   1.781  20.242  0.00  0.00    +0.000 C 
BRANCH  21  22
ATOM     22  C   UNL     1       2.917   2.961  20.912  0.00  0.00    +0.000 C 
BRANCH  22  23
ATOM     23  C   UNL     1       1.404   2.920  20.762  0.00  0.00    +0.000 C 
BRANCH  23  24
ATOM     24  C   UNL     1       0.905   4.311  20.365  0.00  0.00    +0.000 C 
BRANCH  24  25
ATOM     25  C   UNL     1       1.967   5.366  20.633  0.00  0.00    +0.000 C 
BRANCH  25  26
ATOM     26  C   UNL     1       1.412   6.784  20.496  0.00  0.00    +0.000 C 
BRANCH  26  27
ATOM     27  C   UNL     1       2.348   7.604  19.618  0.00  0.00    +0.000 C 
BRANCH  27  28
ATOM     28  C   UNL     1       1.810   7.817  18.209  0.00  0.00    +0.000 C 
BRANCH  28  30
ATOM     29  C   UNL     1       0.710  10.000  18.862  0.00  0.00    +0.000 C 
ATOM     30  C   UNL     1       1.688   9.317  17.926  0.00  0.00    +0.000 C 
ENDBRANCH  28  30
ENDBRANCH  27  28
ENDBRANCH  26  27
ENDBRANCH  25  26
ENDBRANCH  24  25
ENDBRANCH  23  24
ENDBRANCH  22  23
ENDBRANCH  21  22
ENDBRANCH  20  21
ENDBRANCH  19  20
ENDBRANCH  18  19
ENDBRANCH   1  18
TORSDOF 19
ENDMDL
MODEL 7
REMARK VINA RESULT:      -5.3      2.589      4.208
REMARK  Name = 
REMARK  21 active torsions:
REMARK  status: ('A' for Active; 'I' for Inactive)
REMARK    1  A    between atoms: C_1  and  C_2
REMARK    2  A    between atoms: C_2  and  C_3
REMARK    3  A    between atoms: C_3  and  C_4
REMARK    4  A    between atoms: C_4  and  C_5
REMARK    5  A    between atoms: C_5  and  C_6
REMARK    6  A    between atoms: C_6  and  C_7
REMARK    7  A    between atoms: C_7  and  C_8
REMARK    8  A    between atoms: C_8  and  C_9
REMARK    9  A    between atoms: C_9  and  C_10
REMARK   10  A    between atoms: C_10  and  C_11
REMARK   11  A    between atoms: C_11  and  C_12
REMARK   12  A    between atoms: C_12  and  C_13
REMARK   13  A    between atoms: C_13  and  C_14
REMARK   14  A    between atoms: C_19  and  O_20
REMARK   15  A    between atoms: C_21  and  N_22
REMARK   16  A    between atoms: N_22  and  C_23
REMARK   17  A    between atoms: C_23  and  C_24
REMARK   18  A    between atoms: C_24  and  C_25
REMARK   19  A    between atoms: C_25  and  C_26
REMARK   20  A    between atoms: C_26  and  C_27
REMARK   21  A    between atoms: C_27  and  C_28
REMARK                            x       y       z     vdW  Elec       q    Type
REMARK                         _______ _______ _______ _____ _____    ______ ____
ROOT
ATOM      1  C   UNL     1       2.199   5.910  19.817  0.00  0.00    +0.000 C 
ATOM      2  C   UNL     1       2.267   7.235  19.569  0.00  0.00    +0.000 C 
ATOM      3  C   UNL     1       3.177   7.650  18.415  0.00  0.00    +0.000 C 
ATOM      4  C   UNL     1       2.402   8.403  17.339  0.00  0.00    +0.000 C 
ATOM      5  C   UNL     1       1.766   9.653  17.916  0.00  0.00    +0.000 C 
ATOM      6  C   UNL     1       0.862   9.313  19.102  0.00  0.00    +0.000 C 
ATOM      7  C   UNL     1       1.600   8.461  20.204  0.00  0.00    +0.000 C 
ENDROOT
BRANCH   7   8
ATOM      8  N   UNL     1       0.638   8.307  21.298  0.00  0.00    +0.000 NA
ATOM      9  H   UNL     1      -0.299   8.376  20.896  0.00  0.00    +0.000 HD
BRANCH   8  10
ATOM     10  C   UNL     1       0.728   9.191  22.449  0.00  0.00    +0.000 C 
BRANCH  10  11
ATOM     11  C   UNL     1      -0.523   9.891  22.982  0.00  0.00    +0.000 C 
BRANCH  11  12
ATOM     12  C   UNL     1      -0.529  11.351  22.563  0.00  0.00    +0.000 C 
BRANCH  12  13
ATOM     13  C   UNL     1      -1.921  11.873  22.213  0.00  0.00    +0.000 C 
BRANCH  13  14
ATOM     14  C   UNL     1      -2.742  11.961  23.499  0.00  0.00    +0.000 C 
ATOM     15  C   UNL     1      -3.394  13.315  23.690  0.00  0.00    +0.000 C 
ENDBRANCH  13  14
ENDBRANCH  12  13
ENDBRANCH  11  12
ENDBRANCH  10  11
ENDBRANCH   8  10
ENDBRANCH   7   8
BRANCH   6  16
ATOM     16  O   UNL     1       0.372  10.548  19.656  0.00  0.00    +0.000 OA
ATOM     17  H   UNL     1       1.136  11.030  20.014  0.00  0.00    +0.000 HD
ENDBRANCH   6  16
BRANCH   1  18
ATOM     18  C   UNL     1       1.347   5.067  20.718  0.00  0.00    +0.000 C 
BRANCH  18  19
ATOM     19  C   UNL     1       1.157   3.623  20.230  0.00  0.00    +0.000 C 
BRANCH  19  20
ATOM     20  C   UNL     1       1.255   3.516  18.696  0.00  0.00    +0.000 C 
BRANCH  20  21
ATOM     21  C   UNL     1       2.132   2.357  18.210  0.00  0.00    +0.000 C 
BRANCH  21  22
ATOM     22  C   UNL     1       3.531   2.844  17.842  0.00  0.00    +0.000 C 
BRANCH  22  23
ATOM     23  C   UNL     1       4.433   3.031  19.052  0.00  0.00    +0.000 C 
BRANCH  23  24
ATOM     24  C   UNL     1       5.364   4.219  18.801  0.00  0.00    +0.000 C 
BRANCH  24  25
ATOM     25  C   UNL     1       5.177   4.767  17.396  0.00  0.00    +0.000 C 
BRANCH  25  26
ATOM     26  C   UNL     1       6.449   5.430  16.866  0.00  0.00    +0.000 C 
BRANCH  26  27
ATOM     27  C   UNL     1       6.447   6.902  17.257  0.00  0.00    +0.000 C 
BRANCH  27  28
ATOM     28  C   UNL     1       7.769   7.361  17.859  0.00  0.00    +0.000 C 
BRANCH  28  30
ATOM     29  C   UNL     1       8.811   9.492  18.739  0.00  0.00    +0.000 C 
ATOM     30  C   UNL     1       7.919   8.874  17.679  0.00  0.00    +0.000 C 
ENDBRANCH  28  30
ENDBRANCH  27  28
ENDBRANCH  26  27
ENDBRANCH  25  26
ENDBRANCH  24  25
ENDBRANCH  23  24
ENDBRANCH  22  23
ENDBRANCH  21  22
ENDBRANCH  20  21
ENDBRANCH  19  20
ENDBRANCH  18  19
ENDBRANCH   1  18
TORSDOF 19
ENDMDL
MODEL 8
REMARK VINA RESULT:      -5.2      1.920      5.519
REMARK  Name = 
REMARK  21 active torsions:
REMARK  status: ('A' for Active; 'I' for Inactive)
REMARK    1  A    between atoms: C_1  and  C_2
REMARK    2  A    between atoms: C_2  and  C_3
REMARK    3  A    between atoms: C_3  and  C_4
REMARK    4  A    between atoms: C_4  and  C_5
REMARK    5  A    between atoms: C_5  and  C_6
REMARK    6  A    between atoms: C_6  and  C_7
REMARK    7  A    between atoms: C_7  and  C_8
REMARK    8  A    between atoms: C_8  and  C_9
REMARK    9  A    between atoms: C_9  and  C_10
REMARK   10  A    between atoms: C_10  and  C_11
REMARK   11  A    between atoms: C_11  and  C_12
REMARK   12  A    between atoms: C_12  and  C_13
REMARK   13  A    between atoms: C_13  and  C_14
REMARK   14  A    between atoms: C_19  and  O_20
REMARK   15  A    between atoms: C_21  and  N_22
REMARK   16  A    between atoms: N_22  and  C_23
REMARK   17  A    between atoms: C_23  and  C_24
REMARK   18  A    between atoms: C_24  and  C_25
REMARK   19  A    between atoms: C_25  and  C_26
REMARK   20  A    between atoms: C_26  and  C_27
REMARK   21  A    between atoms: C_27  and  C_28
REMARK                            x       y       z     vdW  Elec       q    Type
REMARK                         _______ _______ _______ _____ _____    ______ ____
ROOT
ATOM      1  C   UNL     1       2.125   7.460  17.755  0.00  0.00    +0.000 C 
ATOM      2  C   UNL     1       1.787   8.496  18.551  0.00  0.00    +0.000 C 
ATOM      3  C   UNL     1       1.363   9.775  17.833  0.00  0.00    +0.000 C 
ATOM      4  C   UNL     1      -0.055  10.185  18.219  0.00  0.00    +0.000 C 
ATOM      5  C   UNL     1      -0.152  10.424  19.714  0.00  0.00    +0.000 C 
ATOM      6  C   UNL     1       0.291   9.187  20.498  0.00  0.00    +0.000 C 
ATOM      7  C   UNL     1       1.720   8.677  20.072  0.00  0.00    +0.000 C 
ENDROOT
BRANCH   7   8
ATOM      8  N   UNL     1       2.030   7.564  20.973  0.00  0.00    +0.000 NA
ATOM      9  H   UNL     1       2.926   7.170  20.679  0.00  0.00    +0.000 HD
BRANCH   8  10
ATOM     10  C   UNL     1       1.064   6.489  21.126  0.00  0.00    +0.000 C 
BRANCH  10  11
ATOM     11  C   UNL     1       1.342   5.112  20.521  0.00  0.00    +0.000 C 
BRANCH  11  12
ATOM     12  C   UNL     1       2.311   4.337  21.398  0.00  0.00    +0.000 C 
BRANCH  12  13
ATOM     13  C   UNL     1       2.088   2.826  21.358  0.00  0.00    +0.000 C 
BRANCH  13  14
ATOM     14  C   UNL     1       1.139   2.508  20.203  0.00  0.00    +0.000 C 
ATOM     15  C   UNL     1       1.809   1.729  19.088  0.00  0.00    +0.000 C 
ENDBRANCH  13  14
ENDBRANCH  12  13
ENDBRANCH  11  12
ENDBRANCH  10  11
ENDBRANCH   8  10
ENDBRANCH   7   8
BRANCH   6  16
ATOM     16  O   UNL     1       0.264   9.517  21.899  0.00  0.00    +0.000 OA
ATOM     17  H   UNL     1       0.155  10.480  21.970  0.00  0.00    +0.000 HD
ENDBRANCH   6  16
BRANCH   1  18
ATOM     18  C   UNL     1       2.444   6.017  18.011  0.00  0.00    +0.000 C 
BRANCH  18  19
ATOM     19  C   UNL     1       3.705   5.516  17.292  0.00  0.00    +0.000 C 
BRANCH  19  20
ATOM     20  C   UNL     1       4.053   4.066  17.680  0.00  0.00    +0.000 C 
BRANCH  20  21
ATOM     21  C   UNL     1       5.003   3.954  18.878  0.00  0.00    +0.000 C 
BRANCH  21  22
ATOM     22  C   UNL     1       5.494   5.330  19.318  0.00  0.00    +0.000 C 
BRANCH  22  23
ATOM     23  C   UNL     1       7.007   5.409  19.448  0.00  0.00    +0.000 C 
BRANCH  23  24
ATOM     24  C   UNL     1       7.592   5.940  18.138  0.00  0.00    +0.000 C 
BRANCH  24  25
ATOM     25  C   UNL     1       7.458   4.913  17.026  0.00  0.00    +0.000 C 
BRANCH  25  26
ATOM     26  C   UNL     1       6.829   5.509  15.766  0.00  0.00    +0.000 C 
BRANCH  26  27
ATOM     27  C   UNL     1       7.029   4.548  14.603  0.00  0.00    +0.000 C 
BRANCH  27  28
ATOM     28  C   UNL     1       5.718   4.058  14.002  0.00  0.00    +0.000 C 
BRANCH  28  30
ATOM     29  C   UNL     1       4.690   3.281  11.824  0.00  0.00    +0.000 C 
ATOM     30  C   UNL     1       5.974   3.484  12.605  0.00  0.00    +0.000 C 
ENDBRANCH  28  30
ENDBRANCH  27  28
ENDBRANCH  26  27
ENDBRANCH  25  26
ENDBRANCH  24  25
ENDBRANCH  23  24
ENDBRANCH  22  23
ENDBRANCH  21  22
ENDBRANCH  20  21
ENDBRANCH  19  20
ENDBRANCH  18  19
ENDBRANCH   1  18
TORSDOF 19
ENDMDL
MODEL 9
REMARK VINA RESULT:      -5.2      2.067      7.808
REMARK  Name = 
REMARK  21 active torsions:
REMARK  status: ('A' for Active; 'I' for Inactive)
REMARK    1  A    between atoms: C_1  and  C_2
REMARK    2  A    between atoms: C_2  and  C_3
REMARK    3  A    between atoms: C_3  and  C_4
REMARK    4  A    between atoms: C_4  and  C_5
REMARK    5  A    between atoms: C_5  and  C_6
REMARK    6  A    between atoms: C_6  and  C_7
REMARK    7  A    between atoms: C_7  and  C_8
REMARK    8  A    between atoms: C_8  and  C_9
REMARK    9  A    between atoms: C_9  and  C_10
REMARK   10  A    between atoms: C_10  and  C_11
REMARK   11  A    between atoms: C_11  and  C_12
REMARK   12  A    between atoms: C_12  and  C_13
REMARK   13  A    between atoms: C_13  and  C_14
REMARK   14  A    between atoms: C_19  and  O_20
REMARK   15  A    between atoms: C_21  and  N_22
REMARK   16  A    between atoms: N_22  and  C_23
REMARK   17  A    between atoms: C_23  and  C_24
REMARK   18  A    between atoms: C_24  and  C_25
REMARK   19  A    between atoms: C_25  and  C_26
REMARK   20  A    between atoms: C_26  and  C_27
REMARK   21  A    between atoms: C_27  and  C_28
REMARK                            x       y       z     vdW  Elec       q    Type
REMARK                         _______ _______ _______ _____ _____    ______ ____
ROOT
ATOM      1  C   UNL     1       3.786   7.701  17.326  0.00  0.00    +0.000 C 
ATOM      2  C   UNL     1       4.584   6.614  17.287  0.00  0.00    +0.000 C 
ATOM      3  C   UNL     1       5.891   6.774  16.513  0.00  0.00    +0.000 C 
ATOM      4  C   UNL     1       7.100   6.517  17.405  0.00  0.00    +0.000 C 
ATOM      5  C   UNL     1       7.054   5.111  17.972  0.00  0.00    +0.000 C 
ATOM      6  C   UNL     1       5.751   4.870  18.737  0.00  0.00    +0.000 C 
ATOM      7  C   UNL     1       4.472   5.204  17.879  0.00  0.00    +0.000 C 
ENDROOT
BRANCH   7   8
ATOM      8  N   UNL     1       3.326   4.830  18.712  0.00  0.00    +0.000 NA
ATOM      9  H   UNL     1       2.480   4.988  18.160  0.00  0.00    +0.000 HD
BRANCH   8  10
ATOM     10  C   UNL     1       3.166   5.452  20.016  0.00  0.00    +0.000 C 
BRANCH  10  11
ATOM     11  C   UNL     1       2.030   5.019  20.943  0.00  0.00    +0.000 C 
BRANCH  11  12
ATOM     12  C   UNL     1       2.318   3.645  21.522  0.00  0.00    +0.000 C 
BRANCH  12  13
ATOM     13  C   UNL     1       1.223   2.622  21.224  0.00  0.00    +0.000 C 
BRANCH  13  14
ATOM     14  C   UNL     1       0.536   3.015  19.917  0.00  0.00    +0.000 C 
ATOM     15  C   UNL     1       0.971   2.161  18.743  0.00  0.00    +0.000 C 
ENDBRANCH  13  14
ENDBRANCH  12  13
ENDBRANCH  11  12
ENDBRANCH  10  11
ENDBRANCH   8  10
ENDBRANCH   7   8
BRANCH   6  16
ATOM     16  O   UNL     1       5.734   3.494  19.163  0.00  0.00    +0.000 OA
ATOM     17  H   UNL     1       5.411   3.477  20.079  0.00  0.00    +0.000 HD
ENDBRANCH   6  16
BRANCH   1  18
ATOM     18  C   UNL     1       2.528   8.038  18.070  0.00  0.00    +0.000 C 
BRANCH  18  19
ATOM     19  C   UNL     1       1.968   9.433  17.754  0.00  0.00    +0.000 C 
BRANCH  19  20
ATOM     20  C   UNL     1       0.793   9.805  18.680  0.00  0.00    +0.000 C 
BRANCH  20  21
ATOM     21  C   UNL     1       0.892   9.197  20.083  0.00  0.00    +0.000 C 
BRANCH  21  22
ATOM     22  C   UNL     1       0.192  10.079  21.113  0.00  0.00    +0.000 C 
BRANCH  22  23
ATOM     23  C   UNL     1      -0.122  11.471  20.589  0.00  0.00    +0.000 C 
BRANCH  23  24
ATOM     24  C   UNL     1      -1.478  11.917  21.141  0.00  0.00    +0.000 C 
BRANCH  24  25
ATOM     25  C   UNL     1      -2.401  12.362  20.018  0.00  0.00    +0.000 C 
BRANCH  25  26
ATOM     26  C   UNL     1      -2.226  11.512  18.760  0.00  0.00    +0.000 C 
BRANCH  26  27
ATOM     27  C   UNL     1      -3.512  11.551  17.945  0.00  0.00    +0.000 C 
BRANCH  27  28
ATOM     28  C   UNL     1      -3.580  10.458  16.886  0.00  0.00    +0.000 C 
BRANCH  28  30
ATOM     29  C   UNL     1      -3.140  10.023  14.433  0.00  0.00    +0.000 C 
ATOM     30  C   UNL     1      -2.850  10.919  15.622  0.00  0.00    +0.000 C 
ENDBRANCH  28  30
ENDBRANCH  27  28
ENDBRANCH  26  27
ENDBRANCH  25  26
ENDBRANCH  24  25
ENDBRANCH  23  24
ENDBRANCH  22  23
ENDBRANCH  21  22
ENDBRANCH  20  21
ENDBRANCH  19  20
ENDBRANCH  18  19
ENDBRANCH   1  18
TORSDOF 19
ENDMDL
