MODEL 1
REMARK VINA RESULT:      -7.1      0.000      0.000
REMARK  Name = 
REMARK  11 active torsions:
REMARK  status: ('A' for Active; 'I' for Inactive)
REMARK    1  A    between atoms: C_2  and  C_3
REMARK    2  A    between atoms: C_3  and  N_4
REMARK    3  A    between atoms: C_5  and  S_7
REMARK    4  A    between atoms: S_7  and  C_8
REMARK    5  A    between atoms: C_8  and  C_9
REMARK    6  A    between atoms: C_9  and  C_19
REMARK    7  A    between atoms: C_10  and  C_11
REMARK    8  A    between atoms: C_14  and  O_15
REMARK    9  A    between atoms: O_15  and  C_16
REMARK   10  A    between atoms: C_19  and  O_21
REMARK   11  A    between atoms: O_21  and  C_22
REMARK                            x       y       z     vdW  Elec       q    Type
REMARK                         _______ _______ _______ _____ _____    ______ ____
ROOT
ATOM      1  C   UNL     1       4.285   5.856  17.311  0.00  0.00    +0.000 C 
ATOM      2  C   UNL     1       3.893   7.158  17.342  0.00  0.00    +0.000 C 
ENDROOT
BRANCH   2   3
ATOM      3  C   UNL     1       2.843   7.737  18.205  0.00  0.00    +0.000 A 
ATOM      4  C   UNL     1       2.628   7.209  19.482  0.00  0.00    +0.000 A 
ATOM      5  C   UNL     1       1.694   7.798  20.342  0.00  0.00    +0.000 A 
ATOM      6  C   UNL     1       0.961   8.927  19.929  0.00  0.00    +0.000 A 
ATOM      7  C   UNL     1       1.172   9.444  18.647  0.00  0.00    +0.000 A 
ATOM      8  C   UNL     1       2.115   8.862  17.789  0.00  0.00    +0.000 A 
BRANCH   6   9
ATOM      9  O   UNL     1       0.054   9.540  20.731  0.00  0.00    +0.000 OA
ATOM     10  C   UNL     1      -0.347  10.859  20.626  0.00  0.00    +0.000 C 
ENDBRANCH   6   9
ENDBRANCH   2   3
BRANCH   1  11
ATOM     11  C   UNL     1       5.423   5.478  16.421  0.00  0.00    +0.000 C 
ATOM     12  O   UNL     1       5.665   6.136  15.417  0.00  0.00    +0.000 OA
BRANCH  11  13
ATOM     13  O   UNL     1       6.237   4.449  16.766  0.00  0.00    +0.000 OA
ATOM     14  C   UNL     1       7.455   4.616  17.392  0.00  0.00    +0.000 C 
ENDBRANCH  11  13
ENDBRANCH   1  11
BRANCH   1  15
ATOM     15  C   UNL     1       3.631   4.783  18.173  0.00  0.00    +0.000 C 
BRANCH  15  16
ATOM     16  S   UNL     1       2.819   3.544  17.098  0.00  0.00    +0.000 S 
BRANCH  16  18
ATOM     17  N   UNL     1       1.795   1.688  18.987  0.00  0.00    +0.000 N 
ATOM     18  C   UNL     1       2.912   2.108  18.190  0.00  0.00    +0.000 C 
ATOM     19  N   UNL     1       3.969   1.381  18.140  0.00  0.00    +0.000 NA
ATOM     20  H   UNL     1       1.793   0.730  19.369  0.00  0.00    +0.000 HD
ATOM     21  H   UNL     1       4.066   0.525  18.705  0.00  0.00    +0.000 HD
BRANCH  17  22
ATOM     22  C   UNL     1       0.712   2.575  19.377  0.00  0.00    +0.000 C 
BRANCH  22  24
ATOM     23  C   UNL     1       1.754   3.042  21.599  0.00  0.00    +0.000 C 
ATOM     24  C   UNL     1       1.087   3.466  20.526  0.00  0.00    +0.000 C 
ENDBRANCH  22  24
ENDBRANCH  17  22
ENDBRANCH  16  18
ENDBRANCH  15  16
ENDBRANCH   1  15
TORSDOF 9
ENDMDL
MODEL 2
REMARK VINA RESULT:      -6.9      3.868      6.314
REMARK  Name = 
REMARK  11 active torsions:
REMARK  status: ('A' for Active; 'I' for Inactive)
REMARK    1  A    between atoms: C_2  and  C_3
REMARK    2  A    between atoms: C_3  and  N_4
REMARK    3  A    between atoms: C_5  and  S_7
REMARK    4  A    between atoms: S_7  and  C_8
REMARK    5  A    between atoms: C_8  and  C_9
REMARK    6  A    between atoms: C_9  and  C_19
REMARK    7  A    between atoms: C_10  and  C_11
REMARK    8  A    between atoms: C_14  and  O_15
REMARK    9  A    between atoms: O_15  and  C_16
REMARK   10  A    between atoms: C_19  and  O_21
REMARK   11  A    between atoms: O_21  and  C_22
REMARK                            x       y       z     vdW  Elec       q    Type
REMARK                         _______ _______ _______ _____ _____    ______ ____
ROOT
ATOM      1  C   UNL     1       5.927   4.332  15.931  0.00  0.00    +0.000 C 
ATOM      2  C   UNL     1       4.615   4.002  16.071  0.00  0.00    +0.000 C 
ENDROOT
BRANCH   2   3
ATOM      3  C   UNL     1       3.849   3.977  17.333  0.00  0.00    +0.000 A 
ATOM      4  C   UNL     1       3.149   5.118  17.740  0.00  0.00    +0.000 A 
ATOM      5  C   UNL     1       2.351   5.085  18.890  0.00  0.00    +0.000 A 
ATOM      6  C   UNL     1       2.248   3.903  19.649  0.00  0.00    +0.000 A 
ATOM      7  C   UNL     1       2.958   2.769  19.244  0.00  0.00    +0.000 A 
ATOM      8  C   UNL     1       3.747   2.797  18.086  0.00  0.00    +0.000 A 
BRANCH   6   9
ATOM      9  O   UNL     1       1.477   3.818  20.764  0.00  0.00    +0.000 OA
ATOM     10  C   UNL     1       1.470   2.762  21.654  0.00  0.00    +0.000 C 
ENDBRANCH   6   9
ENDBRANCH   2   3
BRANCH   1  11
ATOM     11  C   UNL     1       6.506   4.372  14.554  0.00  0.00    +0.000 C 
ATOM     12  O   UNL     1       5.898   3.873  13.616  0.00  0.00    +0.000 OA
BRANCH  11  13
ATOM     13  O   UNL     1       7.672   5.030  14.330  0.00  0.00    +0.000 OA
ATOM     14  C   UNL     1       8.048   5.516  13.096  0.00  0.00    +0.000 C 
ENDBRANCH  11  13
ENDBRANCH   1  11
BRANCH   1  15
ATOM     15  C   UNL     1       6.813   4.693  17.116  0.00  0.00    +0.000 C 
BRANCH  15  16
ATOM     16  S   UNL     1       6.744   6.498  17.407  0.00  0.00    +0.000 S 
BRANCH  16  18
ATOM     17  N   UNL     1       8.590   7.904  19.043  0.00  0.00    +0.000 N 
ATOM     18  C   UNL     1       8.030   6.638  18.668  0.00  0.00    +0.000 C 
ATOM     19  N   UNL     1       8.343   5.582  19.328  0.00  0.00    +0.000 NA
ATOM     20  H   UNL     1       9.100   7.974  19.937  0.00  0.00    +0.000 HD
ATOM     21  H   UNL     1       9.037   5.603  20.088  0.00  0.00    +0.000 HD
BRANCH  17  22
ATOM     22  C   UNL     1       8.572   9.073  18.181  0.00  0.00    +0.000 C 
BRANCH  22  24
ATOM     23  C   UNL     1      10.129  10.936  18.768  0.00  0.00    +0.000 C 
ATOM     24  C   UNL     1       8.952  10.329  18.911  0.00  0.00    +0.000 C 
ENDBRANCH  22  24
ENDBRANCH  17  22
ENDBRANCH  16  18
ENDBRANCH  15  16
ENDBRANCH   1  15
TORSDOF 9
ENDMDL
MODEL 3
REMARK VINA RESULT:      -6.9      2.577      4.679
REMARK  Name = 
REMARK  11 active torsions:
REMARK  status: ('A' for Active; 'I' for Inactive)
REMARK    1  A    between atoms: C_2  and  C_3
REMARK    2  A    between atoms: C_3  and  N_4
REMARK    3  A    between atoms: C_5  and  S_7
REMARK    4  A    between atoms: S_7  and  C_8
REMARK    5  A    between atoms: C_8  and  C_9
REMARK    6  A    between atoms: C_9  and  C_19
REMARK    7  A    between atoms: C_10  and  C_11
REMARK    8  A    between atoms: C_14  and  O_15
REMARK    9  A    between atoms: O_15  and  C_16
REMARK   10  A    between atoms: C_19  and  O_21
REMARK   11  A    between atoms: O_21  and  C_22
REMARK                            x       y       z     vdW  Elec       q    Type
REMARK                         _______ _______ _______ _____ _____    ______ ____
ROOT
ATOM      1  C   UNL     1       3.831   5.007  19.122  0.00  0.00    +0.000 C 
ATOM      2  C   UNL     1       2.662   5.555  19.552  0.00  0.00    +0.000 C 
ENDROOT
BRANCH   2   3
ATOM      3  C   UNL     1       2.235   6.957  19.375  0.00  0.00    +0.000 A 
ATOM      4  C   UNL     1       2.278   7.539  18.103  0.00  0.00    +0.000 A 
ATOM      5  C   UNL     1       1.799   8.839  17.904  0.00  0.00    +0.000 A 
ATOM      6  C   UNL     1       1.273   9.575  18.983  0.00  0.00    +0.000 A 
ATOM      7  C   UNL     1       1.244   8.994  20.254  0.00  0.00    +0.000 A 
ATOM      8  C   UNL     1       1.711   7.687  20.453  0.00  0.00    +0.000 A 
BRANCH   6   9
ATOM      9  O   UNL     1       0.786  10.834  18.837  0.00  0.00    +0.000 OA
ATOM     10  C   UNL     1      -0.343  11.333  19.459  0.00  0.00    +0.000 C 
ENDBRANCH   6   9
ENDBRANCH   2   3
BRANCH   1  11
ATOM     11  C   UNL     1       4.048   3.544  19.330  0.00  0.00    +0.000 C 
ATOM     12  O   UNL     1       5.121   3.135  19.755  0.00  0.00    +0.000 OA
BRANCH  11  13
ATOM     13  O   UNL     1       3.029   2.673  19.121  0.00  0.00    +0.000 OA
ATOM     14  C   UNL     1       2.629   2.253  17.869  0.00  0.00    +0.000 C 
ENDBRANCH  11  13
ENDBRANCH   1  11
BRANCH   1  15
ATOM     15  C   UNL     1       4.905   5.820  18.411  0.00  0.00    +0.000 C 
BRANCH  15  16
ATOM     16  S   UNL     1       4.987   5.322  16.651  0.00  0.00    +0.000 S 
BRANCH  16  18
ATOM     17  N   UNL     1       7.508   4.807  15.450  0.00  0.00    +0.000 N 
ATOM     18  C   UNL     1       6.676   4.681  16.612  0.00  0.00    +0.000 C 
ATOM     19  N   UNL     1       7.171   4.221  17.704  0.00  0.00    +0.000 NA
ATOM     20  H   UNL     1       8.527   4.688  15.556  0.00  0.00    +0.000 HD
ATOM     21  H   UNL     1       8.142   3.881  17.758  0.00  0.00    +0.000 HD
BRANCH  17  22
ATOM     22  C   UNL     1       6.984   4.988  14.107  0.00  0.00    +0.000 C 
BRANCH  22  24
ATOM     23  C   UNL     1       5.255   3.671  12.876  0.00  0.00    +0.000 C 
ATOM     24  C   UNL     1       6.409   3.722  13.540  0.00  0.00    +0.000 C 
ENDBRANCH  22  24
ENDBRANCH  17  22
ENDBRANCH  16  18
ENDBRANCH  15  16
ENDBRANCH   1  15
TORSDOF 9
ENDMDL
MODEL 4
REMARK VINA RESULT:      -6.9      1.030      1.399
REMARK  Name = 
REMARK  11 active torsions:
REMARK  status: ('A' for Active; 'I' for Inactive)
REMARK    1  A    between atoms: C_2  and  C_3
REMARK    2  A    between atoms: C_3  and  N_4
REMARK    3  A    between atoms: C_5  and  S_7
REMARK    4  A    between atoms: S_7  and  C_8
REMARK    5  A    between atoms: C_8  and  C_9
REMARK    6  A    between atoms: C_9  and  C_19
REMARK    7  A    between atoms: C_10  and  C_11
REMARK    8  A    between atoms: C_14  and  O_15
REMARK    9  A    between atoms: O_15  and  C_16
REMARK   10  A    between atoms: C_19  and  O_21
REMARK   11  A    between atoms: O_21  and  C_22
REMARK                            x       y       z     vdW  Elec       q    Type
REMARK                         _______ _______ _______ _____ _____    ______ ____
ROOT
ATOM      1  C   UNL     1       5.304   5.241  17.163  0.00  0.00    +0.000 C 
ATOM      2  C   UNL     1       4.801   6.504  17.144  0.00  0.00    +0.000 C 
ENDROOT
BRANCH   2   3
ATOM      3  C   UNL     1       3.686   7.015  17.967  0.00  0.00    +0.000 A 
ATOM      4  C   UNL     1       3.333   6.349  19.145  0.00  0.00    +0.000 A 
ATOM      5  C   UNL     1       2.333   6.866  19.977  0.00  0.00    +0.000 A 
ATOM      6  C   UNL     1       1.672   8.062  19.635  0.00  0.00    +0.000 A 
ATOM      7  C   UNL     1       2.021   8.717  18.450  0.00  0.00    +0.000 A 
ATOM      8  C   UNL     1       3.030   8.207  17.622  0.00  0.00    +0.000 A 
BRANCH   6   9
ATOM      9  O   UNL     1       0.707   8.609  20.416  0.00  0.00    +0.000 OA
ATOM     10  C   UNL     1       0.058   9.804  20.169  0.00  0.00    +0.000 C 
ENDBRANCH   6   9
ENDBRANCH   2   3
BRANCH   1  11
ATOM     11  C   UNL     1       6.490   4.936  16.308  0.00  0.00    +0.000 C 
ATOM     12  O   UNL     1       7.530   4.535  16.817  0.00  0.00    +0.000 OA
BRANCH  11  13
ATOM     13  O   UNL     1       6.392   5.030  14.958  0.00  0.00    +0.000 OA
ATOM     14  C   UNL     1       5.796   4.070  14.168  0.00  0.00    +0.000 C 
ENDBRANCH  11  13
ENDBRANCH   1  11
BRANCH   1  15
ATOM     15  C   UNL     1       4.726   4.141  18.045  0.00  0.00    +0.000 C 
BRANCH  15  16
ATOM     16  S   UNL     1       3.410   3.252  17.135  0.00  0.00    +0.000 S 
BRANCH  16  18
ATOM     17  N   UNL     1       1.939   1.519  18.835  0.00  0.00    +0.000 N 
ATOM     18  C   UNL     1       3.203   1.835  18.235  0.00  0.00    +0.000 C 
ATOM     19  N   UNL     1       4.192   1.027  18.368  0.00  0.00    +0.000 NA
ATOM     20  H   UNL     1       1.796   0.571  19.217  0.00  0.00    +0.000 HD
ATOM     21  H   UNL     1       4.125   0.177  18.946  0.00  0.00    +0.000 HD
BRANCH  17  22
ATOM     22  C   UNL     1       0.881   2.494  19.032  0.00  0.00    +0.000 C 
BRANCH  22  24
ATOM     23  C   UNL     1       1.437   2.820  21.445  0.00  0.00    +0.000 C 
ATOM     24  C   UNL     1       1.091   3.328  20.263  0.00  0.00    +0.000 C 
ENDBRANCH  22  24
ENDBRANCH  17  22
ENDBRANCH  16  18
ENDBRANCH  15  16
ENDBRANCH   1  15
TORSDOF 9
ENDMDL
MODEL 5
REMARK VINA RESULT:      -6.8      2.696      4.650
REMARK  Name = 
REMARK  11 active torsions:
REMARK  status: ('A' for Active; 'I' for Inactive)
REMARK    1  A    between atoms: C_2  and  C_3
REMARK    2  A    between atoms: C_3  and  N_4
REMARK    3  A    between atoms: C_5  and  S_7
REMARK    4  A    between atoms: S_7  and  C_8
REMARK    5  A    between atoms: C_8  and  C_9
REMARK    6  A    between atoms: C_9  and  C_19
REMARK    7  A    between atoms: C_10  and  C_11
REMARK    8  A    between atoms: C_14  and  O_15
REMARK    9  A    between atoms: O_15  and  C_16
REMARK   10  A    between atoms: C_19  and  O_21
REMARK   11  A    between atoms: O_21  and  C_22
REMARK                            x       y       z     vdW  Elec       q    Type
REMARK                         _______ _______ _______ _____ _____    ______ ____
ROOT
ATOM      1  C   UNL     1       4.099   4.647  18.841  0.00  0.00    +0.000 C 
ATOM      2  C   UNL     1       2.830   5.134  18.792  0.00  0.00    +0.000 C 
ENDROOT
BRANCH   2   3
ATOM      3  C   UNL     1       2.428   6.547  18.939  0.00  0.00    +0.000 A 
ATOM      4  C   UNL     1       2.400   7.379  17.815  0.00  0.00    +0.000 A 
ATOM      5  C   UNL     1       1.943   8.698  17.923  0.00  0.00    +0.000 A 
ATOM      6  C   UNL     1       1.509   9.200  19.166  0.00  0.00    +0.000 A 
ATOM      7  C   UNL     1       1.551   8.367  20.288  0.00  0.00    +0.000 A 
ATOM      8  C   UNL     1       1.997   7.043  20.179  0.00  0.00    +0.000 A 
BRANCH   6   9
ATOM      9  O   UNL     1       1.045  10.466  19.318  0.00  0.00    +0.000 OA
ATOM     10  C   UNL     1       0.780  11.083  20.526  0.00  0.00    +0.000 C 
ENDBRANCH   6   9
ENDBRANCH   2   3
BRANCH   1  11
ATOM     11  C   UNL     1       4.310   3.189  18.592  0.00  0.00    +0.000 C 
ATOM     12  O   UNL     1       4.056   2.708  17.495  0.00  0.00    +0.000 OA
BRANCH  11  13
ATOM     13  O   UNL     1       4.858   2.411  19.560  0.00  0.00    +0.000 OA
ATOM     14  C   UNL     1       4.205   2.071  20.726  0.00  0.00    +0.000 C 
ENDBRANCH  11  13
ENDBRANCH   1  11
BRANCH   1  15
ATOM     15  C   UNL     1       5.309   5.535  19.104  0.00  0.00    +0.000 C 
BRANCH  15  16
ATOM     16  S   UNL     1       5.928   6.214  17.521  0.00  0.00    +0.000 S 
BRANCH  16  18
ATOM     17  N   UNL     1       7.348   4.569  15.694  0.00  0.00    +0.000 N 
ATOM     18  C   UNL     1       7.066   4.888  17.063  0.00  0.00    +0.000 C 
ATOM     19  N   UNL     1       7.732   4.315  18.001  0.00  0.00    +0.000 NA
ATOM     20  H   UNL     1       8.191   4.016  15.478  0.00  0.00    +0.000 HD
ATOM     21  H   UNL     1       8.428   3.583  17.803  0.00  0.00    +0.000 HD
BRANCH  17  22
ATOM     22  C   UNL     1       6.452   4.893  14.597  0.00  0.00    +0.000 C 
BRANCH  22  24
ATOM     23  C   UNL     1       5.803   3.467  12.651  0.00  0.00    +0.000 C 
ATOM     24  C   UNL     1       6.743   4.088  13.363  0.00  0.00    +0.000 C 
ENDBRANCH  22  24
ENDBRANCH  17  22
ENDBRANCH  16  18
ENDBRANCH  15  16
ENDBRANCH   1  15
TORSDOF 9
ENDMDL
MODEL 6
REMARK VINA RESULT:      -6.7      2.575      4.476
REMARK  Name = 
REMARK  11 active torsions:
REMARK  status: ('A' for Active; 'I' for Inactive)
REMARK    1  A    between atoms: C_2  and  C_3
REMARK    2  A    between atoms: C_3  and  N_4
REMARK    3  A    between atoms: C_5  and  S_7
REMARK    4  A    between atoms: S_7  and  C_8
REMARK    5  A    between atoms: C_8  and  C_9
REMARK    6  A    between atoms: C_9  and  C_19
REMARK    7  A    between atoms: C_10  and  C_11
REMARK    8  A    between atoms: C_14  and  O_15
REMARK    9  A    between atoms: O_15  and  C_16
REMARK   10  A    between atoms: C_19  and  O_21
REMARK   11  A    between atoms: O_21  and  C_22
REMARK                            x       y       z     vdW  Elec       q    Type
REMARK                         _______ _______ _______ _____ _____    ______ ____
ROOT
ATOM      1  C   UNL     1       3.827   4.674  18.542  0.00  0.00    +0.000 C 
ATOM      2  C   UNL     1       2.556   5.156  18.586  0.00  0.00    +0.000 C 
ENDROOT
BRANCH   2   3
ATOM      3  C   UNL     1       2.157   6.548  18.874  0.00  0.00    +0.000 A 
ATOM      4  C   UNL     1       1.819   6.915  20.181  0.00  0.00    +0.000 A 
ATOM      5  C   UNL     1       1.519   8.247  20.486  0.00  0.00    +0.000 A 
ATOM      6  C   UNL     1       1.552   9.232  19.479  0.00  0.00    +0.000 A 
ATOM      7  C   UNL     1       1.879   8.857  18.172  0.00  0.00    +0.000 A 
ATOM      8  C   UNL     1       2.192   7.525  17.868  0.00  0.00    +0.000 A 
BRANCH   6   9
ATOM      9  O   UNL     1       1.282  10.538  19.728  0.00  0.00    +0.000 OA
ATOM     10  C   UNL     1       0.028  11.065  19.972  0.00  0.00    +0.000 C 
ENDBRANCH   6   9
ENDBRANCH   2   3
BRANCH   1  11
ATOM     11  C   UNL     1       4.031   3.245  18.156  0.00  0.00    +0.000 C 
ATOM     12  O   UNL     1       4.229   2.945  16.986  0.00  0.00    +0.000 OA
BRANCH  11  13
ATOM     13  O   UNL     1       4.075   2.286  19.116  0.00  0.00    +0.000 OA
ATOM     14  C   UNL     1       3.910   2.544  20.461  0.00  0.00    +0.000 C 
ENDBRANCH  11  13
ENDBRANCH   1  11
BRANCH   1  15
ATOM     15  C   UNL     1       5.044   5.542  18.836  0.00  0.00    +0.000 C 
BRANCH  15  16
ATOM     16  S   UNL     1       5.750   6.161  17.265  0.00  0.00    +0.000 S 
BRANCH  16  18
ATOM     17  N   UNL     1       7.682   4.717  15.768  0.00  0.00    +0.000 N 
ATOM     18  C   UNL     1       7.072   4.950  17.045  0.00  0.00    +0.000 C 
ATOM     19  N   UNL     1       7.555   4.389  18.094  0.00  0.00    +0.000 NA
ATOM     20  H   UNL     1       8.596   4.241  15.736  0.00  0.00    +0.000 HD
ATOM     21  H   UNL     1       8.339   3.723  18.041  0.00  0.00    +0.000 HD
BRANCH  17  22
ATOM     22  C   UNL     1       7.032   5.019  14.504  0.00  0.00    +0.000 C 
BRANCH  22  24
ATOM     23  C   UNL     1       6.000   3.486  12.824  0.00  0.00    +0.000 C 
ATOM     24  C   UNL     1       6.084   3.937  14.074  0.00  0.00    +0.000 C 
ENDBRANCH  22  24
ENDBRANCH  17  22
ENDBRANCH  16  18
ENDBRANCH  15  16
ENDBRANCH   1  15
TORSDOF 9
ENDMDL
MODEL 7
REMARK VINA RESULT:      -6.7      3.982      6.031
REMARK  Name = 
REMARK  11 active torsions:
REMARK  status: ('A' for Active; 'I' for Inactive)
REMARK    1  A    between atoms: C_2  and  C_3
REMARK    2  A    between atoms: C_3  and  N_4
REMARK    3  A    between atoms: C_5  and  S_7
REMARK    4  A    between atoms: S_7  and  C_8
REMARK    5  A    between atoms: C_8  and  C_9
REMARK    6  A    between atoms: C_9  and  C_19
REMARK    7  A    between atoms: C_10  and  C_11
REMARK    8  A    between atoms: C_14  and  O_15
REMARK    9  A    between atoms: O_15  and  C_16
REMARK   10  A    between atoms: C_19  and  O_21
REMARK   11  A    between atoms: O_21  and  C_22
REMARK                            x       y       z     vdW  Elec       q    Type
REMARK                         _______ _______ _______ _____ _____    ______ ____
ROOT
ATOM      1  C   UNL     1       5.418   4.512  16.238  0.00  0.00    +0.000 C 
ATOM      2  C   UNL     1       4.267   3.787  16.204  0.00  0.00    +0.000 C 
ENDROOT
BRANCH   2   3
ATOM      3  C   UNL     1       3.340   3.563  17.332  0.00  0.00    +0.000 A 
ATOM      4  C   UNL     1       2.693   2.330  17.461  0.00  0.00    +0.000 A 
ATOM      5  C   UNL     1       1.876   2.072  18.568  0.00  0.00    +0.000 A 
ATOM      6  C   UNL     1       1.696   3.055  19.561  0.00  0.00    +0.000 A 
ATOM      7  C   UNL     1       2.336   4.290  19.421  0.00  0.00    +0.000 A 
ATOM      8  C   UNL     1       3.164   4.544  18.320  0.00  0.00    +0.000 A 
BRANCH   6   9
ATOM      9  O   UNL     1       0.925   2.847  20.659  0.00  0.00    +0.000 OA
ATOM     10  C   UNL     1       1.390   2.731  21.955  0.00  0.00    +0.000 C 
ENDBRANCH   6   9
ENDBRANCH   2   3
BRANCH   1  11
ATOM     11  C   UNL     1       6.184   4.687  14.968  0.00  0.00    +0.000 C 
ATOM     12  O   UNL     1       6.679   5.772  14.691  0.00  0.00    +0.000 OA
BRANCH  11  13
ATOM     13  O   UNL     1       6.399   3.620  14.156  0.00  0.00    +0.000 OA
ATOM     14  C   UNL     1       6.018   3.582  12.830  0.00  0.00    +0.000 C 
ENDBRANCH  11  13
ENDBRANCH   1  11
BRANCH   1  15
ATOM     15  C   UNL     1       5.931   5.177  17.509  0.00  0.00    +0.000 C 
BRANCH  15  16
ATOM     16  S   UNL     1       7.649   4.637  17.834  0.00  0.00    +0.000 S 
BRANCH  16  18
ATOM     17  N   UNL     1       7.991   7.191  19.025  0.00  0.00    +0.000 N 
ATOM     18  C   UNL     1       8.058   5.767  19.182  0.00  0.00    +0.000 C 
ATOM     19  N   UNL     1       8.285   5.264  20.342  0.00  0.00    +0.000 NA
ATOM     20  H   UNL     1       7.956   7.781  19.870  0.00  0.00    +0.000 HD
ATOM     21  H   UNL     1       8.481   5.855  21.161  0.00  0.00    +0.000 HD
BRANCH  17  22
ATOM     22  C   UNL     1       8.078   7.858  17.737  0.00  0.00    +0.000 C 
BRANCH  22  24
ATOM     23  C   UNL     1       8.985   9.963  18.729  0.00  0.00    +0.000 C 
ATOM     24  C   UNL     1       8.171   9.351  17.870  0.00  0.00    +0.000 C 
ENDBRANCH  22  24
ENDBRANCH  17  22
ENDBRANCH  16  18
ENDBRANCH  15  16
ENDBRANCH   1  15
TORSDOF 9
ENDMDL
MODEL 8
REMARK VINA RESULT:      -6.7      3.330      6.137
REMARK  Name = 
REMARK  11 active torsions:
REMARK  status: ('A' for Active; 'I' for Inactive)
REMARK    1  A    between atoms: C_2  and  C_3
REMARK    2  A    between atoms: C_3  and  N_4
REMARK    3  A    between atoms: C_5  and  S_7
REMARK    4  A    between atoms: S_7  and  C_8
REMARK    5  A    between atoms: C_8  and  C_9
REMARK    6  A    between atoms: C_9  and  C_19
REMARK    7  A    between atoms: C_10  and  C_11
REMARK    8  A    between atoms: C_14  and  O_15
REMARK    9  A    between atoms: O_15  and  C_16
REMARK   10  A    between atoms: C_19  and  O_21
REMARK   11  A    between atoms: O_21  and  C_22
REMARK                            x       y       z     vdW  Elec       q    Type
REMARK                         _______ _______ _______ _____ _____    ______ ____
ROOT
ATOM      1  C   UNL     1       2.454   3.653  18.562  0.00  0.00    +0.000 C 
ATOM      2  C   UNL     1       3.752   3.324  18.326  0.00  0.00    +0.000 C 
ENDROOT
BRANCH   2   3
ATOM      3  C   UNL     1       4.831   4.249  17.926  0.00  0.00    +0.000 A 
ATOM      4  C   UNL     1       4.961   4.621  16.584  0.00  0.00    +0.000 A 
ATOM      5  C   UNL     1       5.925   5.561  16.201  0.00  0.00    +0.000 A 
ATOM      6  C   UNL     1       6.776   6.138  17.164  0.00  0.00    +0.000 A 
ATOM      7  C   UNL     1       6.650   5.754  18.502  0.00  0.00    +0.000 A 
ATOM      8  C   UNL     1       5.676   4.823  18.888  0.00  0.00    +0.000 A 
BRANCH   6   9
ATOM      9  O   UNL     1       7.717   7.063  16.843  0.00  0.00    +0.000 OA
ATOM     10  C   UNL     1       7.944   8.244  17.523  0.00  0.00    +0.000 C 
ENDBRANCH   6   9
ENDBRANCH   2   3
BRANCH   1  11
ATOM     11  C   UNL     1       1.524   2.583  19.034  0.00  0.00    +0.000 C 
ATOM     12  O   UNL     1       0.605   2.205  18.319  0.00  0.00    +0.000 OA
BRANCH  11  13
ATOM     13  O   UNL     1       1.745   1.974  20.227  0.00  0.00    +0.000 OA
ATOM     14  C   UNL     1       1.901   2.658  21.415  0.00  0.00    +0.000 C 
ENDBRANCH  11  13
ENDBRANCH   1  11
BRANCH   1  15
ATOM     15  C   UNL     1       1.924   5.072  18.396  0.00  0.00    +0.000 C 
BRANCH  15  16
ATOM     16  S   UNL     1       2.207   6.017  19.939  0.00  0.00    +0.000 S 
BRANCH  16  18
ATOM     17  N   UNL     1       1.531   8.774  19.981  0.00  0.00    +0.000 N 
ATOM     18  C   UNL     1       2.145   7.692  19.267  0.00  0.00    +0.000 C 
ATOM     19  N   UNL     1       2.788   7.929  18.180  0.00  0.00    +0.000 NA
ATOM     20  H   UNL     1       1.759   9.741  19.705  0.00  0.00    +0.000 HD
ATOM     21  H   UNL     1       2.829   8.872  17.769  0.00  0.00    +0.000 HD
BRANCH  17  22
ATOM     22  C   UNL     1       0.521   8.583  21.008  0.00  0.00    +0.000 C 
BRANCH  22  24
ATOM     23  C   UNL     1       0.004   9.469  23.285  0.00  0.00    +0.000 C 
ATOM     24  C   UNL     1       0.873   9.273  22.294  0.00  0.00    +0.000 C 
ENDBRANCH  22  24
ENDBRANCH  17  22
ENDBRANCH  16  18
ENDBRANCH  15  16
ENDBRANCH   1  15
TORSDOF 9
ENDMDL
MODEL 9
REMARK VINA RESULT:      -6.7      3.987      6.486
REMARK  Name = 
REMARK  11 active torsions:
REMARK  status: ('A' for Active; 'I' for Inactive)
REMARK    1  A    between atoms: C_2  and  C_3
REMARK    2  A    between atoms: C_3  and  N_4
REMARK    3  A    between atoms: C_5  and  S_7
REMARK    4  A    between atoms: S_7  and  C_8
REMARK    5  A    between atoms: C_8  and  C_9
REMARK    6  A    between atoms: C_9  and  C_19
REMARK    7  A    between atoms: C_10  and  C_11
REMARK    8  A    between atoms: C_14  and  O_15
REMARK    9  A    between atoms: O_15  and  C_16
REMARK   10  A    between atoms: C_19  and  O_21
REMARK   11  A    between atoms: O_21  and  C_22
REMARK                            x       y       z     vdW  Elec       q    Type
REMARK                         _______ _______ _______ _____ _____    ______ ____
ROOT
ATOM      1  C   UNL     1       6.306   4.581  15.616  0.00  0.00    +0.000 C 
ATOM      2  C   UNL     1       5.047   4.083  15.739  0.00  0.00    +0.000 C 
ENDROOT
BRANCH   2   3
ATOM      3  C   UNL     1       4.305   3.878  16.999  0.00  0.00    +0.000 A 
ATOM      4  C   UNL     1       3.490   4.900  17.497  0.00  0.00    +0.000 A 
ATOM      5  C   UNL     1       2.717   4.692  18.645  0.00  0.00    +0.000 A 
ATOM      6  C   UNL     1       2.755   3.452  19.312  0.00  0.00    +0.000 A 
ATOM      7  C   UNL     1       3.580   2.438  18.817  0.00  0.00    +0.000 A 
ATOM      8  C   UNL     1       4.345   2.641  17.660  0.00  0.00    +0.000 A 
BRANCH   6   9
ATOM      9  O   UNL     1       2.014   3.198  20.421  0.00  0.00    +0.000 OA
ATOM     10  C   UNL     1       0.659   3.441  20.552  0.00  0.00    +0.000 C 
ENDBRANCH   6   9
ENDBRANCH   2   3
BRANCH   1  11
ATOM     11  C   UNL     1       6.858   4.785  14.243  0.00  0.00    +0.000 C 
ATOM     12  O   UNL     1       7.837   5.501  14.073  0.00  0.00    +0.000 OA
BRANCH  11  13
ATOM     13  O   UNL     1       6.320   4.116  13.192  0.00  0.00    +0.000 OA
ATOM     14  C   UNL     1       7.021   3.808  12.045  0.00  0.00    +0.000 C 
ENDBRANCH  11  13
ENDBRANCH   1  11
BRANCH   1  15
ATOM     15  C   UNL     1       7.156   4.968  16.820  0.00  0.00    +0.000 C 
BRANCH  15  16
ATOM     16  S   UNL     1       6.727   6.665  17.355  0.00  0.00    +0.000 S 
BRANCH  16  18
ATOM     17  N   UNL     1       8.550   8.187  18.910  0.00  0.00    +0.000 N 
ATOM     18  C   UNL     1       7.991   6.897  18.623  0.00  0.00    +0.000 C 
ATOM     19  N   UNL     1       8.290   5.893  19.367  0.00  0.00    +0.000 NA
ATOM     20  H   UNL     1       9.045   8.324  19.804  0.00  0.00    +0.000 HD
ATOM     21  H   UNL     1       8.971   5.971  20.135  0.00  0.00    +0.000 HD
BRANCH  17  22
ATOM     22  C   UNL     1       8.551   9.287  17.961  0.00  0.00    +0.000 C 
BRANCH  22  24
ATOM     23  C   UNL     1       9.952  10.770  19.402  0.00  0.00    +0.000 C 
ATOM     24  C   UNL     1       8.899  10.598  18.604  0.00  0.00    +0.000 C 
ENDBRANCH  22  24
ENDBRANCH  17  22
ENDBRANCH  16  18
ENDBRANCH  15  16
ENDBRANCH   1  15
TORSDOF 9
ENDMDL
