MODEL 1
REMARK VINA RESULT:      -8.7      0.000      0.000
REMARK  Name = 
REMARK  5 active torsions:
REMARK  status: ('A' for Active; 'I' for Inactive)
REMARK    1  A    between atoms: C_1  and  C_2
REMARK    2  A    between atoms: C_5  and  N_6
REMARK    3  A    between atoms: C_7  and  C_9
REMARK    4  A    between atoms: N_15  and  C_16
REMARK    5  A    between atoms: C_16  and  C_17
REMARK                            x       y       z     vdW  Elec       q    Type
REMARK                         _______ _______ _______ _____ _____    ______ ____
ROOT
ATOM      1  C   UNL     1      -0.024   9.984  21.358  0.00  0.00    +0.000 A 
ATOM      2  C   UNL     1      -0.395  10.568  22.572  0.00  0.00    +0.000 A 
ATOM      3  C   UNL     1      -1.324  11.617  22.592  0.00  0.00    +0.000 A 
ATOM      4  C   UNL     1      -1.865  12.110  21.397  0.00  0.00    +0.000 A 
ATOM      5  C   UNL     1      -1.499  11.526  20.185  0.00  0.00    +0.000 A 
ATOM      6  C   UNL     1      -0.608  10.445  20.175  0.00  0.00    +0.000 A 
ATOM      7  N   UNL     1      -1.986  12.045  18.960  0.00  0.00    +0.000 N 
ATOM      8  C   UNL     1      -3.315  11.874  18.586  0.00  0.00    +0.000 C 
ATOM      9  O   UNL     1      -3.636  11.634  17.422  0.00  0.00    +0.000 OA
ATOM     10  C   UNL     1      -4.430  12.076  19.557  0.00  0.00    +0.000 A 
ATOM     11  C   UNL     1      -5.694  11.629  19.109  0.00  0.00    +0.000 A 
ATOM     12  C   UNL     1      -6.865  11.959  19.788  0.00  0.00    +0.000 A 
ATOM     13  C   UNL     1      -6.791  12.721  20.942  0.00  0.00    +0.000 A 
ATOM     14  C   UNL     1      -5.549  13.144  21.415  0.00  0.00    +0.000 A 
ATOM     15  C   UNL     1      -4.354  12.837  20.736  0.00  0.00    +0.000 A 
ATOM     16  S   UNL     1      -2.846  13.616  21.367  0.00  0.00    +0.000 S 
ATOM     17  O   UNL     1      -3.117  14.021  22.862  0.00  0.00    +0.000 OA
ENDROOT
BRANCH   1  19
ATOM     18  N   UNL     1       1.137   8.151  20.229  0.00  0.00    +0.000 N 
ATOM     19  C   UNL     1       1.060   8.961  21.343  0.00  0.00    +0.000 C 
ATOM     20  O   UNL     1       1.827   8.880  22.296  0.00  0.00    +0.000 OA
ATOM     21  H   UNL     1       0.468   8.260  19.480  0.00  0.00    +0.000 HD
BRANCH  18  26
ATOM     22  C   UNL     1       4.334   3.629  18.610  0.00  0.00    +0.000 C 
ATOM     23  C   UNL     1       3.241   4.678  18.812  0.00  0.00    +0.000 C 
ATOM     24  C   UNL     1       2.800   4.725  20.281  0.00  0.00    +0.000 C 
ATOM     25  C   UNL     1       1.744   5.800  20.518  0.00  0.00    +0.000 C 
ATOM     26  C   UNL     1       2.208   7.180  20.042  0.00  0.00    +0.000 C 
ATOM     27  C   UNL     1       2.651   7.129  18.573  0.00  0.00    +0.000 C 
ATOM     28  C   UNL     1       3.718   6.059  18.344  0.00  0.00    +0.000 C 
ENDBRANCH  18  26
ENDBRANCH   1  19
BRANCH   7  29
ATOM     29  C   UNL     1      -1.032  12.627  17.998  0.00  0.00    +0.000 C 
BRANCH  29  30
ATOM     30  C   UNL     1      -0.034  13.586  18.575  0.00  0.00    +0.000 A 
ATOM     31  C   UNL     1      -0.415  14.879  18.957  0.00  0.00    +0.000 A 
ATOM     32  C   UNL     1       0.539  15.832  19.263  0.00  0.00    +0.000 A 
ATOM     33  C   UNL     1       1.899  15.505  19.237  0.00  0.00    +0.000 A 
ATOM     34  C   UNL     1       2.279  14.196  18.969  0.00  0.00    +0.000 A 
ATOM     35  C   UNL     1       1.313  13.245  18.671  0.00  0.00    +0.000 A 
ATOM     36  F   UNL     1       1.707  11.992  18.394  0.00  0.00    +0.000 F 
ENDBRANCH  29  30
ENDBRANCH   7  29
TORSDOF 4
ENDMDL
MODEL 2
REMARK VINA RESULT:      -8.6      1.682      2.357
REMARK  Name = 
REMARK  5 active torsions:
REMARK  status: ('A' for Active; 'I' for Inactive)
REMARK    1  A    between atoms: C_1  and  C_2
REMARK    2  A    between atoms: C_5  and  N_6
REMARK    3  A    between atoms: C_7  and  C_9
REMARK    4  A    between atoms: N_15  and  C_16
REMARK    5  A    between atoms: C_16  and  C_17
REMARK                            x       y       z     vdW  Elec       q    Type
REMARK                         _______ _______ _______ _____ _____    ______ ____
ROOT
ATOM      1  C   UNL     1       1.107   8.527  20.566  0.00  0.00    +0.000 A 
ATOM      2  C   UNL     1       0.776   8.690  21.913  0.00  0.00    +0.000 A 
ATOM      3  C   UNL     1       0.104   9.844  22.337  0.00  0.00    +0.000 A 
ATOM      4  C   UNL     1      -0.213  10.858  21.423  0.00  0.00    +0.000 A 
ATOM      5  C   UNL     1       0.113  10.696  20.077  0.00  0.00    +0.000 A 
ATOM      6  C   UNL     1       0.740   9.517  19.651  0.00  0.00    +0.000 A 
ATOM      7  N   UNL     1      -0.143  11.731  19.144  0.00  0.00    +0.000 N 
ATOM      8  C   UNL     1      -1.441  12.031  18.744  0.00  0.00    +0.000 C 
ATOM      9  O   UNL     1      -1.710  12.322  17.578  0.00  0.00    +0.000 OA
ATOM     10  C   UNL     1      -2.560  12.116  19.728  0.00  0.00    +0.000 A 
ATOM     11  C   UNL     1      -3.850  12.180  19.154  0.00  0.00    +0.000 A 
ATOM     12  C   UNL     1      -4.971  12.502  19.916  0.00  0.00    +0.000 A 
ATOM     13  C   UNL     1      -4.826  12.742  21.272  0.00  0.00    +0.000 A 
ATOM     14  C   UNL     1      -3.564  12.652  21.860  0.00  0.00    +0.000 A 
ATOM     15  C   UNL     1      -2.415  12.345  21.106  0.00  0.00    +0.000 A 
ATOM     16  S   UNL     1      -0.830  12.454  21.974  0.00  0.00    +0.000 S 
ATOM     17  O   UNL     1      -1.127  12.328  23.512  0.00  0.00    +0.000 OA
ENDROOT
BRANCH   1  19
ATOM     18  N   UNL     1       2.618   7.466  18.962  0.00  0.00    +0.000 N 
ATOM     19  C   UNL     1       1.935   7.357  20.156  0.00  0.00    +0.000 C 
ATOM     20  O   UNL     1       1.980   6.366  20.876  0.00  0.00    +0.000 OA
ATOM     21  H   UNL     1       2.533   8.306  18.407  0.00  0.00    +0.000 HD
BRANCH  18  26
ATOM     22  C   UNL     1       5.609   3.702  15.772  0.00  0.00    +0.000 C 
ATOM     23  C   UNL     1       4.671   4.789  16.294  0.00  0.00    +0.000 C 
ATOM     24  C   UNL     1       3.671   4.204  17.300  0.00  0.00    +0.000 C 
ATOM     25  C   UNL     1       2.754   5.281  17.873  0.00  0.00    +0.000 C 
ATOM     26  C   UNL     1       3.542   6.439  18.494  0.00  0.00    +0.000 C 
ATOM     27  C   UNL     1       4.543   7.020  17.486  0.00  0.00    +0.000 C 
ATOM     28  C   UNL     1       5.467   5.938  16.925  0.00  0.00    +0.000 C 
ENDBRANCH  18  26
ENDBRANCH   1  19
BRANCH   7  29
ATOM     29  C   UNL     1       0.993  12.384  18.468  0.00  0.00    +0.000 C 
BRANCH  29  30
ATOM     30  C   UNL     1       1.557  13.587  19.163  0.00  0.00    +0.000 A 
ATOM     31  C   UNL     1       2.709  13.487  19.954  0.00  0.00    +0.000 A 
ATOM     32  C   UNL     1       3.089  14.530  20.778  0.00  0.00    +0.000 A 
ATOM     33  C   UNL     1       2.350  15.719  20.801  0.00  0.00    +0.000 A 
ATOM     34  C   UNL     1       1.273  15.867  19.937  0.00  0.00    +0.000 A 
ATOM     35  C   UNL     1       0.905  14.816  19.108  0.00  0.00    +0.000 A 
ATOM     36  F   UNL     1      -0.153  14.976  18.298  0.00  0.00    +0.000 F 
ENDBRANCH  29  30
ENDBRANCH   7  29
TORSDOF 4
ENDMDL
MODEL 3
REMARK VINA RESULT:      -8.5      1.654      2.256
REMARK  Name = 
REMARK  5 active torsions:
REMARK  status: ('A' for Active; 'I' for Inactive)
REMARK    1  A    between atoms: C_1  and  C_2
REMARK    2  A    between atoms: C_5  and  N_6
REMARK    3  A    between atoms: C_7  and  C_9
REMARK    4  A    between atoms: N_15  and  C_16
REMARK    5  A    between atoms: C_16  and  C_17
REMARK                            x       y       z     vdW  Elec       q    Type
REMARK                         _______ _______ _______ _____ _____    ______ ____
ROOT
ATOM      1  C   UNL     1       1.126   8.486  20.585  0.00  0.00    +0.000 A 
ATOM      2  C   UNL     1       0.749   8.608  21.924  0.00  0.00    +0.000 A 
ATOM      3  C   UNL     1       0.077   9.755  22.364  0.00  0.00    +0.000 A 
ATOM      4  C   UNL     1      -0.196  10.804  21.474  0.00  0.00    +0.000 A 
ATOM      5  C   UNL     1       0.176  10.682  20.135  0.00  0.00    +0.000 A 
ATOM      6  C   UNL     1       0.803   9.511  19.691  0.00  0.00    +0.000 A 
ATOM      7  N   UNL     1      -0.035  11.752  19.230  0.00  0.00    +0.000 N 
ATOM      8  C   UNL     1      -1.314  12.081  18.795  0.00  0.00    +0.000 C 
ATOM      9  O   UNL     1      -1.537  12.415  17.631  0.00  0.00    +0.000 OA
ATOM     10  C   UNL     1      -2.466  12.148  19.741  0.00  0.00    +0.000 A 
ATOM     11  C   UNL     1      -3.734  12.248  19.124  0.00  0.00    +0.000 A 
ATOM     12  C   UNL     1      -4.878  12.559  19.857  0.00  0.00    +0.000 A 
ATOM     13  C   UNL     1      -4.777  12.751  21.225  0.00  0.00    +0.000 A 
ATOM     14  C   UNL     1      -3.538  12.625  21.854  0.00  0.00    +0.000 A 
ATOM     15  C   UNL     1      -2.367  12.328  21.131  0.00  0.00    +0.000 A 
ATOM     16  S   UNL     1      -0.813  12.388  22.057  0.00  0.00    +0.000 S 
ATOM     17  O   UNL     1      -1.166  12.214  23.579  0.00  0.00    +0.000 OA
ENDROOT
BRANCH   1  19
ATOM     18  N   UNL     1       2.633   7.437  18.969  0.00  0.00    +0.000 N 
ATOM     19  C   UNL     1       1.954   7.319  20.165  0.00  0.00    +0.000 C 
ATOM     20  O   UNL     1       2.003   6.324  20.878  0.00  0.00    +0.000 OA
ATOM     21  H   UNL     1       2.544   8.279  18.419  0.00  0.00    +0.000 HD
BRANCH  18  26
ATOM     22  C   UNL     1       5.626   3.705  15.743  0.00  0.00    +0.000 C 
ATOM     23  C   UNL     1       4.688   4.787  16.275  0.00  0.00    +0.000 C 
ATOM     24  C   UNL     1       3.685   4.192  17.273  0.00  0.00    +0.000 C 
ATOM     25  C   UNL     1       2.768   5.263  17.856  0.00  0.00    +0.000 C 
ATOM     26  C   UNL     1       3.556   6.413  18.491  0.00  0.00    +0.000 C 
ATOM     27  C   UNL     1       4.560   7.004  17.492  0.00  0.00    +0.000 C 
ATOM     28  C   UNL     1       5.483   5.928  16.920  0.00  0.00    +0.000 C 
ENDBRANCH  18  26
ENDBRANCH   1  19
BRANCH   7  29
ATOM     29  C   UNL     1       1.132  12.412  18.616  0.00  0.00    +0.000 C 
BRANCH  29  30
ATOM     30  C   UNL     1       1.507  13.740  19.202  0.00  0.00    +0.000 A 
ATOM     31  C   UNL     1       1.135  14.936  18.572  0.00  0.00    +0.000 A 
ATOM     32  C   UNL     1       1.677  16.142  18.977  0.00  0.00    +0.000 A 
ATOM     33  C   UNL     1       2.573  16.190  20.051  0.00  0.00    +0.000 A 
ATOM     34  C   UNL     1       2.859  15.024  20.752  0.00  0.00    +0.000 A 
ATOM     35  C   UNL     1       2.304  13.820  20.341  0.00  0.00    +0.000 A 
ATOM     36  F   UNL     1       2.613  12.705  21.021  0.00  0.00    +0.000 F 
ENDBRANCH  29  30
ENDBRANCH   7  29
TORSDOF 4
ENDMDL
MODEL 4
REMARK VINA RESULT:      -8.3      0.840      1.167
REMARK  Name = 
REMARK  5 active torsions:
REMARK  status: ('A' for Active; 'I' for Inactive)
REMARK    1  A    between atoms: C_1  and  C_2
REMARK    2  A    between atoms: C_5  and  N_6
REMARK    3  A    between atoms: C_7  and  C_9
REMARK    4  A    between atoms: N_15  and  C_16
REMARK    5  A    between atoms: C_16  and  C_17
REMARK                            x       y       z     vdW  Elec       q    Type
REMARK                         _______ _______ _______ _____ _____    ______ ____
ROOT
ATOM      1  C   UNL     1      -0.004   9.949  21.382  0.00  0.00    +0.000 A 
ATOM      2  C   UNL     1      -0.381  10.509  22.605  0.00  0.00    +0.000 A 
ATOM      3  C   UNL     1      -1.295  11.569  22.641  0.00  0.00    +0.000 A 
ATOM      4  C   UNL     1      -1.816  12.099  21.452  0.00  0.00    +0.000 A 
ATOM      5  C   UNL     1      -1.445  11.539  20.230  0.00  0.00    +0.000 A 
ATOM      6  C   UNL     1      -0.568  10.446  20.204  0.00  0.00    +0.000 A 
ATOM      7  N   UNL     1      -1.911  12.094  19.013  0.00  0.00    +0.000 N 
ATOM      8  C   UNL     1      -3.237  11.950  18.621  0.00  0.00    +0.000 C 
ATOM      9  O   UNL     1      -3.548  11.743  17.447  0.00  0.00    +0.000 OA
ATOM     10  C   UNL     1      -4.360  12.144  19.584  0.00  0.00    +0.000 A 
ATOM     11  C   UNL     1      -5.625  11.726  19.112  0.00  0.00    +0.000 A 
ATOM     12  C   UNL     1      -6.799  12.056  19.785  0.00  0.00    +0.000 A 
ATOM     13  C   UNL     1      -6.728  12.790  20.958  0.00  0.00    +0.000 A 
ATOM     14  C   UNL     1      -5.485  13.184  21.454  0.00  0.00    +0.000 A 
ATOM     15  C   UNL     1      -4.287  12.876  20.782  0.00  0.00    +0.000 A 
ATOM     16  S   UNL     1      -2.776  13.619  21.447  0.00  0.00    +0.000 S 
ATOM     17  O   UNL     1      -3.058  13.991  22.948  0.00  0.00    +0.000 OA
ENDROOT
BRANCH   1  19
ATOM     18  N   UNL     1       1.176   8.161  20.202  0.00  0.00    +0.000 N 
ATOM     19  C   UNL     1       1.067   8.912  21.355  0.00  0.00    +0.000 C 
ATOM     20  O   UNL     1       1.794   8.768  22.331  0.00  0.00    +0.000 OA
ATOM     21  H   UNL     1       0.538   8.319  19.435  0.00  0.00    +0.000 HD
BRANCH  18  26
ATOM     22  C   UNL     1       4.341   3.632  18.540  0.00  0.00    +0.000 C 
ATOM     23  C   UNL     1       3.256   4.685  18.753  0.00  0.00    +0.000 C 
ATOM     24  C   UNL     1       2.818   4.723  20.223  0.00  0.00    +0.000 C 
ATOM     25  C   UNL     1       1.769   5.803  20.471  0.00  0.00    +0.000 C 
ATOM     26  C   UNL     1       2.241   7.184  20.005  0.00  0.00    +0.000 C 
ATOM     27  C   UNL     1       2.681   7.143  18.535  0.00  0.00    +0.000 C 
ATOM     28  C   UNL     1       3.741   6.067  18.296  0.00  0.00    +0.000 C 
ENDBRANCH  18  26
ENDBRANCH   1  19
BRANCH   7  29
ATOM     29  C   UNL     1      -0.937  12.685  18.075  0.00  0.00    +0.000 C 
BRANCH  29  30
ATOM     30  C   UNL     1       0.216  13.404  18.708  0.00  0.00    +0.000 A 
ATOM     31  C   UNL     1       1.471  12.792  18.822  0.00  0.00    +0.000 A 
ATOM     32  C   UNL     1       2.460  13.355  19.609  0.00  0.00    +0.000 A 
ATOM     33  C   UNL     1       2.232  14.569  20.269  0.00  0.00    +0.000 A 
ATOM     34  C   UNL     1       1.031  15.237  20.070  0.00  0.00    +0.000 A 
ATOM     35  C   UNL     1       0.049  14.667  19.272  0.00  0.00    +0.000 A 
ATOM     36  F   UNL     1      -1.111  15.322  19.113  0.00  0.00    +0.000 F 
ENDBRANCH  29  30
ENDBRANCH   7  29
TORSDOF 4
ENDMDL
MODEL 5
REMARK VINA RESULT:      -8.2      1.366      1.668
REMARK  Name = 
REMARK  5 active torsions:
REMARK  status: ('A' for Active; 'I' for Inactive)
REMARK    1  A    between atoms: C_1  and  C_2
REMARK    2  A    between atoms: C_5  and  N_6
REMARK    3  A    between atoms: C_7  and  C_9
REMARK    4  A    between atoms: N_15  and  C_16
REMARK    5  A    between atoms: C_16  and  C_17
REMARK                            x       y       z     vdW  Elec       q    Type
REMARK                         _______ _______ _______ _____ _____    ______ ____
ROOT
ATOM      1  C   UNL     1       0.913   9.143  20.319  0.00  0.00    +0.000 A 
ATOM      2  C   UNL     1       0.922   9.427  21.687  0.00  0.00    +0.000 A 
ATOM      3  C   UNL     1       0.231  10.542  22.178  0.00  0.00    +0.000 A 
ATOM      4  C   UNL     1      -0.448  11.400  21.302  0.00  0.00    +0.000 A 
ATOM      5  C   UNL     1      -0.461  11.117  19.936  0.00  0.00    +0.000 A 
ATOM      6  C   UNL     1       0.190   9.972  19.458  0.00  0.00    +0.000 A 
ATOM      7  N   UNL     1      -1.089  12.000  19.024  0.00  0.00    +0.000 N 
ATOM      8  C   UNL     1      -2.474  12.106  18.967  0.00  0.00    +0.000 C 
ATOM      9  O   UNL     1      -3.072  12.227  17.897  0.00  0.00    +0.000 OA
ATOM     10  C   UNL     1      -3.302  12.184  20.206  0.00  0.00    +0.000 A 
ATOM     11  C   UNL     1      -4.693  12.038  19.999  0.00  0.00    +0.000 A 
ATOM     12  C   UNL     1      -5.613  12.323  21.007  0.00  0.00    +0.000 A 
ATOM     13  C   UNL     1      -5.156  12.736  22.248  0.00  0.00    +0.000 A 
ATOM     14  C   UNL     1      -3.785  12.855  22.477  0.00  0.00    +0.000 A 
ATOM     15  C   UNL     1      -2.839  12.589  21.469  0.00  0.00    +0.000 A 
ATOM     16  S   UNL     1      -1.114  12.973  21.862  0.00  0.00    +0.000 S 
ATOM     17  O   UNL     1      -0.984  12.998  23.428  0.00  0.00    +0.000 OA
ENDROOT
BRANCH   1  19
ATOM     18  N   UNL     1       1.764   6.860  20.532  0.00  0.00    +0.000 N 
ATOM     19  C   UNL     1       1.760   8.031  19.801  0.00  0.00    +0.000 C 
ATOM     20  O   UNL     1       2.403   8.190  18.770  0.00  0.00    +0.000 OA
ATOM     21  H   UNL     1       1.220   6.793  21.381  0.00  0.00    +0.000 HD
BRANCH  18  26
ATOM     22  C   UNL     1       3.127   1.581  18.646  0.00  0.00    +0.000 C 
ATOM     23  C   UNL     1       2.424   2.859  19.098  0.00  0.00    +0.000 C 
ATOM     24  C   UNL     1       2.785   3.190  20.552  0.00  0.00    +0.000 C 
ATOM     25  C   UNL     1       2.133   4.491  21.012  0.00  0.00    +0.000 C 
ATOM     26  C   UNL     1       2.467   5.663  20.085  0.00  0.00    +0.000 C 
ATOM     27  C   UNL     1       2.107   5.328  18.630  0.00  0.00    +0.000 C 
ATOM     28  C   UNL     1       2.773   4.030  18.172  0.00  0.00    +0.000 C 
ENDBRANCH  18  26
ENDBRANCH   1  19
BRANCH   7  29
ATOM     29  C   UNL     1      -0.266  12.689  18.012  0.00  0.00    +0.000 C 
BRANCH  29  30
ATOM     30  C   UNL     1       0.837  13.550  18.551  0.00  0.00    +0.000 A 
ATOM     31  C   UNL     1       0.567  14.818  19.081  0.00  0.00    +0.000 A 
ATOM     32  C   UNL     1       1.598  15.699  19.356  0.00  0.00    +0.000 A 
ATOM     33  C   UNL     1       2.928  15.318  19.147  0.00  0.00    +0.000 A 
ATOM     34  C   UNL     1       3.208  14.024  18.729  0.00  0.00    +0.000 A 
ATOM     35  C   UNL     1       2.167  13.145  18.463  0.00  0.00    +0.000 A 
ATOM     36  F   UNL     1       2.462  11.907  18.039  0.00  0.00    +0.000 F 
ENDBRANCH  29  30
ENDBRANCH   7  29
TORSDOF 4
ENDMDL
MODEL 6
REMARK VINA RESULT:      -8.2      1.651      2.243
REMARK  Name = 
REMARK  5 active torsions:
REMARK  status: ('A' for Active; 'I' for Inactive)
REMARK    1  A    between atoms: C_1  and  C_2
REMARK    2  A    between atoms: C_5  and  N_6
REMARK    3  A    between atoms: C_7  and  C_9
REMARK    4  A    between atoms: N_15  and  C_16
REMARK    5  A    between atoms: C_16  and  C_17
REMARK                            x       y       z     vdW  Elec       q    Type
REMARK                         _______ _______ _______ _____ _____    ______ ____
ROOT
ATOM      1  C   UNL     1       1.288   8.644  20.308  0.00  0.00    +0.000 A 
ATOM      2  C   UNL     1       0.918   8.657  21.655  0.00  0.00    +0.000 A 
ATOM      3  C   UNL     1       0.205   9.743  22.178  0.00  0.00    +0.000 A 
ATOM      4  C   UNL     1      -0.116  10.839  21.367  0.00  0.00    +0.000 A 
ATOM      5  C   UNL     1       0.248  10.827  20.020  0.00  0.00    +0.000 A 
ATOM      6  C   UNL     1       0.917   9.716  19.491  0.00  0.00    +0.000 A 
ATOM      7  N   UNL     1      -0.012  11.948  19.194  0.00  0.00    +0.000 N 
ATOM      8  C   UNL     1      -1.307  12.256  18.791  0.00  0.00    +0.000 C 
ATOM      9  O   UNL     1      -1.553  12.662  17.655  0.00  0.00    +0.000 OA
ATOM     10  C   UNL     1      -2.452  12.210  19.746  0.00  0.00    +0.000 A 
ATOM     11  C   UNL     1      -3.729  12.303  19.146  0.00  0.00    +0.000 A 
ATOM     12  C   UNL     1      -4.878  12.516  19.905  0.00  0.00    +0.000 A 
ATOM     13  C   UNL     1      -4.773  12.615  21.283  0.00  0.00    +0.000 A 
ATOM     14  C   UNL     1      -3.525  12.495  21.894  0.00  0.00    +0.000 A 
ATOM     15  C   UNL     1      -2.349  12.297  21.145  0.00  0.00    +0.000 A 
ATOM     16  S   UNL     1      -0.790  12.353  22.063  0.00  0.00    +0.000 S 
ATOM     17  O   UNL     1      -1.123  12.059  23.571  0.00  0.00    +0.000 OA
ENDROOT
BRANCH   1  19
ATOM     18  N   UNL     1       2.087   6.339  20.469  0.00  0.00    +0.000 N 
ATOM     19  C   UNL     1       2.158   7.544  19.802  0.00  0.00    +0.000 C 
ATOM     20  O   UNL     1       2.884   7.744  18.835  0.00  0.00    +0.000 OA
ATOM     21  H   UNL     1       1.477   6.239  21.268  0.00  0.00    +0.000 HD
BRANCH  18  26
ATOM     22  C   UNL     1       3.524   1.097  18.531  0.00  0.00    +0.000 C 
ATOM     23  C   UNL     1       2.803   2.364  18.989  0.00  0.00    +0.000 C 
ATOM     24  C   UNL     1       3.132   2.675  20.454  0.00  0.00    +0.000 C 
ATOM     25  C   UNL     1       2.462   3.964  20.921  0.00  0.00    +0.000 C 
ATOM     26  C   UNL     1       2.807   5.153  20.018  0.00  0.00    +0.000 C 
ATOM     27  C   UNL     1       2.479   4.838  18.552  0.00  0.00    +0.000 C 
ATOM     28  C   UNL     1       3.163   3.552  18.088  0.00  0.00    +0.000 C 
ENDBRANCH  18  26
ENDBRANCH   1  19
BRANCH   7  29
ATOM     29  C   UNL     1       1.123  12.696  18.622  0.00  0.00    +0.000 C 
BRANCH  29  30
ATOM     30  C   UNL     1       1.449  13.995  19.296  0.00  0.00    +0.000 A 
ATOM     31  C   UNL     1       0.999  15.213  18.768  0.00  0.00    +0.000 A 
ATOM     32  C   UNL     1       1.493  16.412  19.249  0.00  0.00    +0.000 A 
ATOM     33  C   UNL     1       2.417  16.426  20.299  0.00  0.00    +0.000 A 
ATOM     34  C   UNL     1       2.781  15.229  20.902  0.00  0.00    +0.000 A 
ATOM     35  C   UNL     1       2.274  14.032  20.417  0.00  0.00    +0.000 A 
ATOM     36  F   UNL     1       2.658  12.886  21.002  0.00  0.00    +0.000 F 
ENDBRANCH  29  30
ENDBRANCH   7  29
TORSDOF 4
ENDMDL
MODEL 7
REMARK VINA RESULT:      -8.2      1.597      2.212
REMARK  Name = 
REMARK  5 active torsions:
REMARK  status: ('A' for Active; 'I' for Inactive)
REMARK    1  A    between atoms: C_1  and  C_2
REMARK    2  A    between atoms: C_5  and  N_6
REMARK    3  A    between atoms: C_7  and  C_9
REMARK    4  A    between atoms: N_15  and  C_16
REMARK    5  A    between atoms: C_16  and  C_17
REMARK                            x       y       z     vdW  Elec       q    Type
REMARK                         _______ _______ _______ _____ _____    ______ ____
ROOT
ATOM      1  C   UNL     1       0.976   8.574  20.679  0.00  0.00    +0.000 A 
ATOM      2  C   UNL     1       0.712   8.807  22.031  0.00  0.00    +0.000 A 
ATOM      3  C   UNL     1       0.080   9.991  22.430  0.00  0.00    +0.000 A 
ATOM      4  C   UNL     1      -0.265  10.966  21.483  0.00  0.00    +0.000 A 
ATOM      5  C   UNL     1      -0.006  10.734  20.132  0.00  0.00    +0.000 A 
ATOM      6  C   UNL     1       0.581   9.526  19.735  0.00  0.00    +0.000 A 
ATOM      7  N   UNL     1      -0.291  11.728  19.164  0.00  0.00    +0.000 N 
ATOM      8  C   UNL     1      -1.601  12.031  18.811  0.00  0.00    +0.000 C 
ATOM      9  O   UNL     1      -1.920  12.272  17.646  0.00  0.00    +0.000 OA
ATOM     10  C   UNL     1      -2.670  12.183  19.841  0.00  0.00    +0.000 A 
ATOM     11  C   UNL     1      -3.985  12.243  19.326  0.00  0.00    +0.000 A 
ATOM     12  C   UNL     1      -5.064  12.621  20.123  0.00  0.00    +0.000 A 
ATOM     13  C   UNL     1      -4.850  12.922  21.458  0.00  0.00    +0.000 A 
ATOM     14  C   UNL     1      -3.563  12.839  21.989  0.00  0.00    +0.000 A 
ATOM     15  C   UNL     1      -2.456  12.475  21.199  0.00  0.00    +0.000 A 
ATOM     16  S   UNL     1      -0.830  12.598  21.985  0.00  0.00    +0.000 S 
ATOM     17  O   UNL     1      -1.056  12.550  23.539  0.00  0.00    +0.000 OA
ENDROOT
BRANCH   1  19
ATOM     18  N   UNL     1       1.654   6.263  21.102  0.00  0.00    +0.000 N 
ATOM     19  C   UNL     1       1.765   7.371  20.288  0.00  0.00    +0.000 C 
ATOM     20  O   UNL     1       2.465   7.408  19.282  0.00  0.00    +0.000 OA
ATOM     21  H   UNL     1       1.069   6.298  21.925  0.00  0.00    +0.000 HD
BRANCH  18  26
ATOM     22  C   UNL     1       3.609   1.527  18.448  0.00  0.00    +0.000 C 
ATOM     23  C   UNL     1       2.972   2.866  18.816  0.00  0.00    +0.000 C 
ATOM     24  C   UNL     1       1.858   2.670  19.852  0.00  0.00    +0.000 C 
ATOM     25  C   UNL     1       1.239   3.999  20.273  0.00  0.00    +0.000 C 
ATOM     26  C   UNL     1       2.291   4.991  20.781  0.00  0.00    +0.000 C 
ATOM     27  C   UNL     1       3.405   5.183  19.743  0.00  0.00    +0.000 C 
ATOM     28  C   UNL     1       4.029   3.848  19.335  0.00  0.00    +0.000 C 
ENDBRANCH  18  26
ENDBRANCH   1  19
BRANCH   7  29
ATOM     29  C   UNL     1       0.822  12.328  18.404  0.00  0.00    +0.000 C 
BRANCH  29  30
ATOM     30  C   UNL     1       1.458  13.533  19.029  0.00  0.00    +0.000 A 
ATOM     31  C   UNL     1       2.678  13.432  19.710  0.00  0.00    +0.000 A 
ATOM     32  C   UNL     1       3.142  14.482  20.482  0.00  0.00    +0.000 A 
ATOM     33  C   UNL     1       2.418  15.677  20.559  0.00  0.00    +0.000 A 
ATOM     34  C   UNL     1       1.266  15.825  19.797  0.00  0.00    +0.000 A 
ATOM     35  C   UNL     1       0.814  14.768  19.019  0.00  0.00    +0.000 A 
ATOM     36  F   UNL     1      -0.314  14.928  18.310  0.00  0.00    +0.000 F 
ENDBRANCH  29  30
ENDBRANCH   7  29
TORSDOF 4
ENDMDL
MODEL 8
REMARK VINA RESULT:      -8.2      1.531      2.104
REMARK  Name = 
REMARK  5 active torsions:
REMARK  status: ('A' for Active; 'I' for Inactive)
REMARK    1  A    between atoms: C_1  and  C_2
REMARK    2  A    between atoms: C_5  and  N_6
REMARK    3  A    between atoms: C_7  and  C_9
REMARK    4  A    between atoms: N_15  and  C_16
REMARK    5  A    between atoms: C_16  and  C_17
REMARK                            x       y       z     vdW  Elec       q    Type
REMARK                         _______ _______ _______ _____ _____    ______ ____
ROOT
ATOM      1  C   UNL     1       1.117   8.517  20.592  0.00  0.00    +0.000 A 
ATOM      2  C   UNL     1       0.910   8.790  21.947  0.00  0.00    +0.000 A 
ATOM      3  C   UNL     1       0.313   9.995  22.338  0.00  0.00    +0.000 A 
ATOM      4  C   UNL     1      -0.053  10.950  21.379  0.00  0.00    +0.000 A 
ATOM      5  C   UNL     1       0.149  10.678  20.026  0.00  0.00    +0.000 A 
ATOM      6  C   UNL     1       0.700   9.450  19.639  0.00  0.00    +0.000 A 
ATOM      7  N   UNL     1      -0.158  11.651  19.043  0.00  0.00    +0.000 N 
ATOM      8  C   UNL     1      -1.477  11.967  18.734  0.00  0.00    +0.000 C 
ATOM      9  O   UNL     1      -1.838  12.182  17.576  0.00  0.00    +0.000 OA
ATOM     10  C   UNL     1      -2.502  12.164  19.800  0.00  0.00    +0.000 A 
ATOM     11  C   UNL     1      -3.835  12.232  19.334  0.00  0.00    +0.000 A 
ATOM     12  C   UNL     1      -4.875  12.649  20.162  0.00  0.00    +0.000 A 
ATOM     13  C   UNL     1      -4.604  12.982  21.480  0.00  0.00    +0.000 A 
ATOM     14  C   UNL     1      -3.298  12.891  21.963  0.00  0.00    +0.000 A 
ATOM     15  C   UNL     1      -2.230  12.488  21.139  0.00  0.00    +0.000 A 
ATOM     16  S   UNL     1      -0.572  12.604  21.858  0.00  0.00    +0.000 S 
ATOM     17  O   UNL     1      -0.737  12.601  23.421  0.00  0.00    +0.000 OA
ENDROOT
BRANCH   1  19
ATOM     18  N   UNL     1       1.765   6.203  21.045  0.00  0.00    +0.000 N 
ATOM     19  C   UNL     1       1.871   7.291  20.203  0.00  0.00    +0.000 C 
ATOM     20  O   UNL     1       2.540   7.292  19.176  0.00  0.00    +0.000 OA
ATOM     21  H   UNL     1       1.207   6.267  21.885  0.00  0.00    +0.000 HD
BRANCH  18  26
ATOM     22  C   UNL     1       3.668   1.439  18.404  0.00  0.00    +0.000 C 
ATOM     23  C   UNL     1       3.065   2.795  18.764  0.00  0.00    +0.000 C 
ATOM     24  C   UNL     1       1.893   2.626  19.741  0.00  0.00    +0.000 C 
ATOM     25  C   UNL     1       1.306   3.972  20.155  0.00  0.00    +0.000 C 
ATOM     26  C   UNL     1       2.368   4.912  20.732  0.00  0.00    +0.000 C 
ATOM     27  C   UNL     1       3.540   5.078  19.754  0.00  0.00    +0.000 C 
ATOM     28  C   UNL     1       4.132   3.726  19.354  0.00  0.00    +0.000 C 
ENDBRANCH  18  26
ENDBRANCH   1  19
BRANCH   7  29
ATOM     29  C   UNL     1       0.933  12.211  18.224  0.00  0.00    +0.000 C 
BRANCH  29  30
ATOM     30  C   UNL     1       1.310  13.630  18.531  0.00  0.00    +0.000 A 
ATOM     31  C   UNL     1       0.340  14.567  18.911  0.00  0.00    +0.000 A 
ATOM     32  C   UNL     1       0.646  15.915  18.961  0.00  0.00    +0.000 A 
ATOM     33  C   UNL     1       1.943  16.357  18.675  0.00  0.00    +0.000 A 
ATOM     34  C   UNL     1       2.937  15.424  18.409  0.00  0.00    +0.000 A 
ATOM     35  C   UNL     1       2.621  14.073  18.368  0.00  0.00    +0.000 A 
ATOM     36  F   UNL     1       3.594  13.193  18.086  0.00  0.00    +0.000 F 
ENDBRANCH  29  30
ENDBRANCH   7  29
TORSDOF 4
ENDMDL
MODEL 9
REMARK VINA RESULT:      -8.1      1.841      2.691
REMARK  Name = 
REMARK  5 active torsions:
REMARK  status: ('A' for Active; 'I' for Inactive)
REMARK    1  A    between atoms: C_1  and  C_2
REMARK    2  A    between atoms: C_5  and  N_6
REMARK    3  A    between atoms: C_7  and  C_9
REMARK    4  A    between atoms: N_15  and  C_16
REMARK    5  A    between atoms: C_16  and  C_17
REMARK                            x       y       z     vdW  Elec       q    Type
REMARK                         _______ _______ _______ _____ _____    ______ ____
ROOT
ATOM      1  C   UNL     1       1.310   8.350  20.287  0.00  0.00    +0.000 A 
ATOM      2  C   UNL     1       0.957   8.394  21.638  0.00  0.00    +0.000 A 
ATOM      3  C   UNL     1       0.324   9.529  22.161  0.00  0.00    +0.000 A 
ATOM      4  C   UNL     1       0.068  10.640  21.346  0.00  0.00    +0.000 A 
ATOM      5  C   UNL     1       0.417  10.596  19.996  0.00  0.00    +0.000 A 
ATOM      6  C   UNL     1       1.004   9.439  19.467  0.00  0.00    +0.000 A 
ATOM      7  N   UNL     1       0.223  11.727  19.165  0.00  0.00    +0.000 N 
ATOM      8  C   UNL     1      -1.053  12.119  18.774  0.00  0.00    +0.000 C 
ATOM      9  O   UNL     1      -1.283  12.534  17.637  0.00  0.00    +0.000 OA
ATOM     10  C   UNL     1      -2.188  12.156  19.741  0.00  0.00    +0.000 A 
ATOM     11  C   UNL     1      -3.462  12.331  19.153  0.00  0.00    +0.000 A 
ATOM     12  C   UNL     1      -4.585  12.625  19.923  0.00  0.00    +0.000 A 
ATOM     13  C   UNL     1      -4.459  12.725  21.299  0.00  0.00    +0.000 A 
ATOM     14  C   UNL     1      -3.215  12.525  21.897  0.00  0.00    +0.000 A 
ATOM     15  C   UNL     1      -2.064  12.243  21.138  0.00  0.00    +0.000 A 
ATOM     16  S   UNL     1      -0.495  12.200  22.040  0.00  0.00    +0.000 S 
ATOM     17  O   UNL     1      -0.831  11.937  23.553  0.00  0.00    +0.000 OA
ENDROOT
BRANCH   1  19
ATOM     18  N   UNL     1       2.861   7.404  18.649  0.00  0.00    +0.000 N 
ATOM     19  C   UNL     1       2.099   7.190  19.779  0.00  0.00    +0.000 C 
ATOM     20  O   UNL     1       2.044   6.117  20.368  0.00  0.00    +0.000 OA
ATOM     21  H   UNL     1       2.856   8.310  18.200  0.00  0.00    +0.000 HD
BRANCH  18  26
ATOM     22  C   UNL     1       7.456   4.432  16.822  0.00  0.00    +0.000 C 
ATOM     23  C   UNL     1       6.493   5.465  17.402  0.00  0.00    +0.000 C 
ATOM     24  C   UNL     1       5.513   5.956  16.329  0.00  0.00    +0.000 C 
ATOM     25  C   UNL     1       4.507   6.953  16.897  0.00  0.00    +0.000 C 
ATOM     26  C   UNL     1       3.755   6.388  18.106  0.00  0.00    +0.000 C 
ATOM     27  C   UNL     1       4.738   5.894  19.178  0.00  0.00    +0.000 C 
ATOM     28  C   UNL     1       5.735   4.887  18.605  0.00  0.00    +0.000 C 
ENDBRANCH  18  26
ENDBRANCH   1  19
BRANCH   7  29
ATOM     29  C   UNL     1       1.399  12.393  18.576  0.00  0.00    +0.000 C 
BRANCH  29  30
ATOM     30  C   UNL     1       1.723  13.748  19.133  0.00  0.00    +0.000 A 
ATOM     31  C   UNL     1       1.370  14.914  18.442  0.00  0.00    +0.000 A 
ATOM     32  C   UNL     1       1.872  16.142  18.832  0.00  0.00    +0.000 A 
ATOM     33  C   UNL     1       2.707  16.242  19.950  0.00  0.00    +0.000 A 
ATOM     34  C   UNL     1       2.970  15.107  20.707  0.00  0.00    +0.000 A 
ATOM     35  C   UNL     1       2.455  13.880  20.311  0.00  0.00    +0.000 A 
ATOM     36  F   UNL     1       2.742  12.795  21.046  0.00  0.00    +0.000 F 
ENDBRANCH  29  30
ENDBRANCH   7  29
TORSDOF 4
ENDMDL
