MODEL 1
REMARK VINA RESULT:      -8.9      0.000      0.000
REMARK  Name = 
REMARK  12 active torsions:
REMARK  status: ('A' for Active; 'I' for Inactive)
REMARK    1  A    between atoms: C_2  and  O_3
REMARK    2  A    between atoms: C_2  and  C_4
REMARK    3  A    between atoms: C_4  and  C_5
REMARK    4  A    between atoms: C_5  and  C_6
REMARK    5  A    between atoms: C_6  and  C_7
REMARK    6  A    between atoms: C_8  and  C_9
REMARK    7  A    between atoms: C_9  and  C_10
REMARK    8  A    between atoms: C_16  and  N_17
REMARK    9  A    between atoms: N_17  and  S_18
REMARK   10  A    between atoms: S_18  and  C_21
REMARK   11  A    between atoms: C_24  and  C_25
REMARK   12  A    between atoms: C_26  and  C_27
REMARK                            x       y       z     vdW  Elec       q    Type
REMARK                         _______ _______ _______ _____ _____    ______ ____
ROOT
ATOM      1  N   UNL     1       4.688   3.085  18.227  0.00  0.00    +0.000 NA
ATOM      2  H   UNL     1       4.460   2.109  18.038  0.00  0.00    +0.000 HD
ENDROOT
BRANCH   1   9
ATOM      3  C   UNL     1       2.943   4.798  18.819  0.00  0.00    +0.000 C 
ATOM      4  C   UNL     1       1.617   4.258  19.407  0.00  0.00    +0.000 C 
ATOM      5  C   UNL     1       1.230   2.984  18.618  0.00  0.00    +0.000 C 
ATOM      6  C   UNL     1       2.162   1.916  19.211  0.00  0.00    +0.000 C 
ATOM      7  C   UNL     1       3.090   2.744  20.117  0.00  0.00    +0.000 C 
ATOM      8  C   UNL     1       2.043   3.662  20.751  0.00  0.00    +0.000 C 
ATOM      9  C   UNL     1       3.978   3.763  19.326  0.00  0.00    +0.000 C 
BRANCH   3  10
ATOM     10  C   UNL     1       3.244   6.266  19.207  0.00  0.00    +0.000 C 
BRANCH  10  12
ATOM     11  C   UNL     1       1.857   8.369  18.843  0.00  0.00    +0.000 C 
ATOM     12  C   UNL     1       2.596   7.346  18.386  0.00  0.00    +0.000 C 
BRANCH  11  13
ATOM     13  C   UNL     1       1.575   8.690  20.284  0.00  0.00    +0.000 C 
BRANCH  13  14
ATOM     14  C   UNL     1       0.279   9.495  20.424  0.00  0.00    +0.000 C 
BRANCH  14  15
ATOM     15  C   UNL     1      -0.341   9.356  21.815  0.00  0.00    +0.000 C 
BRANCH  15  17
ATOM     16  O   UNL     1      -1.225  10.867  23.469  0.00  0.00    +0.000 OA
ATOM     17  C   UNL     1      -0.465  10.673  22.531  0.00  0.00    +0.000 C 
BRANCH  17  18
ATOM     18  O   UNL     1       0.305  11.653  22.008  0.00  0.00    +0.000 OA
ATOM     19  H   UNL     1       1.227  11.646  22.330  0.00  0.00    +0.000 HD
ENDBRANCH  17  18
ENDBRANCH  15  17
ENDBRANCH  14  15
ENDBRANCH  13  14
ENDBRANCH  11  13
ENDBRANCH  10  12
ENDBRANCH   3  10
ENDBRANCH   1   9
BRANCH   1  20
ATOM     20  S   UNL     1       4.996   3.856  16.765  0.00  0.00    +0.000 S 
ATOM     21  O   UNL     1       5.869   2.955  16.046  0.00  0.00    +0.000 OA
ATOM     22  O   UNL     1       3.755   4.315  16.193  0.00  0.00    +0.000 OA
BRANCH  20  23
ATOM     23  C   UNL     1       5.964   5.288  17.147  0.00  0.00    +0.000 A 
ATOM     24  C   UNL     1       5.708   6.536  16.580  0.00  0.00    +0.000 A 
ATOM     25  C   UNL     1       6.489   7.629  16.965  0.00  0.00    +0.000 A 
ATOM     26  C   UNL     1       7.510   7.471  17.908  0.00  0.00    +0.000 A 
ATOM     27  C   UNL     1       7.771   6.215  18.455  0.00  0.00    +0.000 A 
ATOM     28  C   UNL     1       7.001   5.119  18.074  0.00  0.00    +0.000 A 
BRANCH  26  29
ATOM     29  C   UNL     1       8.281   8.601  18.326  0.00  0.00    +0.000 C 
ATOM     30  C   UNL     1       8.935   9.540  18.682  0.00  0.00    +0.000 C 
BRANCH  30  31
ATOM     31  C   UNL     1       9.690  10.669  19.119  0.00  0.00    +0.000 A 
ATOM     32  C   UNL     1      10.544  11.319  18.220  0.00  0.00    +0.000 A 
ATOM     33  C   UNL     1      11.307  12.409  18.642  0.00  0.00    +0.000 A 
ATOM     34  C   UNL     1      11.213  12.857  19.959  0.00  0.00    +0.000 A 
ATOM     35  C   UNL     1      10.353  12.219  20.854  0.00  0.00    +0.000 A 
ATOM     36  C   UNL     1       9.589  11.128  20.433  0.00  0.00    +0.000 A 
ENDBRANCH  30  31
ENDBRANCH  26  29
ENDBRANCH  20  23
ENDBRANCH   1  20
TORSDOF 12
ENDMDL
MODEL 2
REMARK VINA RESULT:      -8.9      1.785      2.090
REMARK  Name = 
REMARK  12 active torsions:
REMARK  status: ('A' for Active; 'I' for Inactive)
REMARK    1  A    between atoms: C_2  and  O_3
REMARK    2  A    between atoms: C_2  and  C_4
REMARK    3  A    between atoms: C_4  and  C_5
REMARK    4  A    between atoms: C_5  and  C_6
REMARK    5  A    between atoms: C_6  and  C_7
REMARK    6  A    between atoms: C_8  and  C_9
REMARK    7  A    between atoms: C_9  and  C_10
REMARK    8  A    between atoms: C_16  and  N_17
REMARK    9  A    between atoms: N_17  and  S_18
REMARK   10  A    between atoms: S_18  and  C_21
REMARK   11  A    between atoms: C_24  and  C_25
REMARK   12  A    between atoms: C_26  and  C_27
REMARK                            x       y       z     vdW  Elec       q    Type
REMARK                         _______ _______ _______ _____ _____    ______ ____
ROOT
ATOM      1  N   UNL     1       3.647   4.056  16.772  0.00  0.00    +0.000 NA
ATOM      2  H   UNL     1       2.945   4.378  16.108  0.00  0.00    +0.000 HD
ENDROOT
BRANCH   1   9
ATOM      3  C   UNL     1       2.117   5.092  18.480  0.00  0.00    +0.000 C 
ATOM      4  C   UNL     1       1.502   4.133  19.527  0.00  0.00    +0.000 C 
ATOM      5  C   UNL     1       1.097   2.829  18.799  0.00  0.00    +0.000 C 
ATOM      6  C   UNL     1       2.438   2.102  18.624  0.00  0.00    +0.000 C 
ATOM      7  C   UNL     1       3.457   3.154  19.095  0.00  0.00    +0.000 C 
ATOM      8  C   UNL     1       2.716   3.662  20.333  0.00  0.00    +0.000 C 
ATOM      9  C   UNL     1       3.488   4.432  18.188  0.00  0.00    +0.000 C 
BRANCH   3  10
ATOM     10  C   UNL     1       2.190   6.565  18.951  0.00  0.00    +0.000 C 
BRANCH  10  12
ATOM     11  C   UNL     1       2.273   8.855  17.842  0.00  0.00    +0.000 C 
ATOM     12  C   UNL     1       2.687   7.584  17.962  0.00  0.00    +0.000 C 
BRANCH  11  13
ATOM     13  C   UNL     1       1.267   9.551  18.715  0.00  0.00    +0.000 C 
BRANCH  13  14
ATOM     14  C   UNL     1      -0.070   9.721  17.986  0.00  0.00    +0.000 C 
BRANCH  14  15
ATOM     15  C   UNL     1      -0.831  10.961  18.457  0.00  0.00    +0.000 C 
BRANCH  15  17
ATOM     16  O   UNL     1      -2.865   9.887  17.743  0.00  0.00    +0.000 OA
ATOM     17  C   UNL     1      -2.300  10.896  18.141  0.00  0.00    +0.000 C 
BRANCH  17  18
ATOM     18  O   UNL     1      -2.941  12.077  18.283  0.00  0.00    +0.000 OA
ATOM     19  H   UNL     1      -3.889  11.989  18.502  0.00  0.00    +0.000 HD
ENDBRANCH  17  18
ENDBRANCH  15  17
ENDBRANCH  14  15
ENDBRANCH  13  14
ENDBRANCH  11  13
ENDBRANCH  10  12
ENDBRANCH   3  10
ENDBRANCH   1   9
BRANCH   1  20
ATOM     20  S   UNL     1       5.149   4.075  16.016  0.00  0.00    +0.000 S 
ATOM     21  O   UNL     1       5.789   2.845  16.427  0.00  0.00    +0.000 OA
ATOM     22  O   UNL     1       4.981   4.405  14.623  0.00  0.00    +0.000 OA
BRANCH  20  23
ATOM     23  C   UNL     1       6.070   5.389  16.763  0.00  0.00    +0.000 A 
ATOM     24  C   UNL     1       7.073   5.158  17.704  0.00  0.00    +0.000 A 
ATOM     25  C   UNL     1       7.786   6.245  18.217  0.00  0.00    +0.000 A 
ATOM     26  C   UNL     1       7.497   7.545  17.788  0.00  0.00    +0.000 A 
ATOM     27  C   UNL     1       6.479   7.769  16.861  0.00  0.00    +0.000 A 
ATOM     28  C   UNL     1       5.760   6.692  16.349  0.00  0.00    +0.000 A 
BRANCH  26  29
ATOM     29  C   UNL     1       8.255   8.650  18.288  0.00  0.00    +0.000 C 
ATOM     30  C   UNL     1       8.885   9.583  18.698  0.00  0.00    +0.000 C 
BRANCH  30  31
ATOM     31  C   UNL     1       9.661  10.679  19.182  0.00  0.00    +0.000 A 
ATOM     32  C   UNL     1      10.514  11.362  18.307  0.00  0.00    +0.000 A 
ATOM     33  C   UNL     1      11.296  12.419  18.773  0.00  0.00    +0.000 A 
ATOM     34  C   UNL     1      11.224  12.802  20.111  0.00  0.00    +0.000 A 
ATOM     35  C   UNL     1      10.364  12.133  20.984  0.00  0.00    +0.000 A 
ATOM     36  C   UNL     1       9.581  11.074  20.518  0.00  0.00    +0.000 A 
ENDBRANCH  30  31
ENDBRANCH  26  29
ENDBRANCH  20  23
ENDBRANCH   1  20
TORSDOF 12
ENDMDL
MODEL 3
REMARK VINA RESULT:      -8.8      1.248      1.737
REMARK  Name = 
REMARK  12 active torsions:
REMARK  status: ('A' for Active; 'I' for Inactive)
REMARK    1  A    between atoms: C_2  and  O_3
REMARK    2  A    between atoms: C_2  and  C_4
REMARK    3  A    between atoms: C_4  and  C_5
REMARK    4  A    between atoms: C_5  and  C_6
REMARK    5  A    between atoms: C_6  and  C_7
REMARK    6  A    between atoms: C_8  and  C_9
REMARK    7  A    between atoms: C_9  and  C_10
REMARK    8  A    between atoms: C_16  and  N_17
REMARK    9  A    between atoms: N_17  and  S_18
REMARK   10  A    between atoms: S_18  and  C_21
REMARK   11  A    between atoms: C_24  and  C_25
REMARK   12  A    between atoms: C_26  and  C_27
REMARK                            x       y       z     vdW  Elec       q    Type
REMARK                         _______ _______ _______ _____ _____    ______ ____
ROOT
ATOM      1  N   UNL     1       4.722   3.327  18.274  0.00  0.00    +0.000 NA
ATOM      2  H   UNL     1       4.538   2.358  18.019  0.00  0.00    +0.000 HD
ENDROOT
BRANCH   1   9
ATOM      3  C   UNL     1       2.847   4.901  18.856  0.00  0.00    +0.000 C 
ATOM      4  C   UNL     1       1.541   4.255  19.377  0.00  0.00    +0.000 C 
ATOM      5  C   UNL     1       1.268   2.987  18.534  0.00  0.00    +0.000 C 
ATOM      6  C   UNL     1       2.247   1.963  19.126  0.00  0.00    +0.000 C 
ATOM      7  C   UNL     1       3.086   2.817  20.092  0.00  0.00    +0.000 C 
ATOM      8  C   UNL     1       1.958   3.642  20.716  0.00  0.00    +0.000 C 
ATOM      9  C   UNL     1       3.931   3.919  19.367  0.00  0.00    +0.000 C 
BRANCH   3  10
ATOM     10  C   UNL     1       3.037   6.372  19.303  0.00  0.00    +0.000 C 
BRANCH  10  12
ATOM     11  C   UNL     1       1.743   8.503  18.789  0.00  0.00    +0.000 C 
ATOM     12  C   UNL     1       2.475   7.444  18.410  0.00  0.00    +0.000 C 
BRANCH  11  13
ATOM     13  C   UNL     1       1.382   8.878  20.199  0.00  0.00    +0.000 C 
BRANCH  13  14
ATOM     14  C   UNL     1       0.523  10.146  20.228  0.00  0.00    +0.000 C 
BRANCH  14  15
ATOM     15  C   UNL     1      -0.648  10.072  19.247  0.00  0.00    +0.000 C 
BRANCH  15  17
ATOM     16  O   UNL     1      -0.609  12.457  18.904  0.00  0.00    +0.000 OA
ATOM     17  C   UNL     1      -0.823  11.340  18.455  0.00  0.00    +0.000 C 
BRANCH  17  18
ATOM     18  O   UNL     1      -1.296  11.140  17.205  0.00  0.00    +0.000 OA
ATOM     19  H   UNL     1      -1.141  11.890  16.598  0.00  0.00    +0.000 HD
ENDBRANCH  17  18
ENDBRANCH  15  17
ENDBRANCH  14  15
ENDBRANCH  13  14
ENDBRANCH  11  13
ENDBRANCH  10  12
ENDBRANCH   3  10
ENDBRANCH   1   9
BRANCH   1  20
ATOM     20  S   UNL     1       5.084   4.191  16.877  0.00  0.00    +0.000 S 
ATOM     21  O   UNL     1       5.944   3.317  16.112  0.00  0.00    +0.000 OA
ATOM     22  O   UNL     1       3.869   4.728  16.316  0.00  0.00    +0.000 OA
BRANCH  20  23
ATOM     23  C   UNL     1       6.085   5.561  17.380  0.00  0.00    +0.000 A 
ATOM     24  C   UNL     1       7.150   5.422  18.269  0.00  0.00    +0.000 A 
ATOM     25  C   UNL     1       7.922   6.544  18.584  0.00  0.00    +0.000 A 
ATOM     26  C   UNL     1       7.629   7.787  18.011  0.00  0.00    +0.000 A 
ATOM     27  C   UNL     1       6.549   7.920  17.139  0.00  0.00    +0.000 A 
ATOM     28  C   UNL     1       5.772   6.808  16.823  0.00  0.00    +0.000 A 
BRANCH  26  29
ATOM     29  C   UNL     1       8.445   8.923  18.309  0.00  0.00    +0.000 C 
ATOM     30  C   UNL     1       9.139   9.869  18.553  0.00  0.00    +0.000 C 
BRANCH  30  31
ATOM     31  C   UNL     1       9.958  10.993  18.873  0.00  0.00    +0.000 A 
ATOM     32  C   UNL     1      10.553  11.730  17.843  0.00  0.00    +0.000 A 
ATOM     33  C   UNL     1      11.376  12.816  18.143  0.00  0.00    +0.000 A 
ATOM     34  C   UNL     1      11.601  13.173  19.472  0.00  0.00    +0.000 A 
ATOM     35  C   UNL     1      10.999  12.448  20.501  0.00  0.00    +0.000 A 
ATOM     36  C   UNL     1      10.175  11.360  20.202  0.00  0.00    +0.000 A 
ENDBRANCH  30  31
ENDBRANCH  26  29
ENDBRANCH  20  23
ENDBRANCH   1  20
TORSDOF 12
ENDMDL
MODEL 4
REMARK VINA RESULT:      -8.6      1.204      1.895
REMARK  Name = 
REMARK  12 active torsions:
REMARK  status: ('A' for Active; 'I' for Inactive)
REMARK    1  A    between atoms: C_2  and  O_3
REMARK    2  A    between atoms: C_2  and  C_4
REMARK    3  A    between atoms: C_4  and  C_5
REMARK    4  A    between atoms: C_5  and  C_6
REMARK    5  A    between atoms: C_6  and  C_7
REMARK    6  A    between atoms: C_8  and  C_9
REMARK    7  A    between atoms: C_9  and  C_10
REMARK    8  A    between atoms: C_16  and  N_17
REMARK    9  A    between atoms: N_17  and  S_18
REMARK   10  A    between atoms: S_18  and  C_21
REMARK   11  A    between atoms: C_24  and  C_25
REMARK   12  A    between atoms: C_26  and  C_27
REMARK                            x       y       z     vdW  Elec       q    Type
REMARK                         _______ _______ _______ _____ _____    ______ ____
ROOT
ATOM      1  N   UNL     1       4.408   3.257  17.800  0.00  0.00    +0.000 NA
ATOM      2  H   UNL     1       4.084   2.327  17.537  0.00  0.00    +0.000 HD
ENDROOT
BRANCH   1   9
ATOM      3  C   UNL     1       2.152   4.307  18.174  0.00  0.00    +0.000 C 
ATOM      4  C   UNL     1       1.253   3.646  19.246  0.00  0.00    +0.000 C 
ATOM      5  C   UNL     1       1.390   2.112  19.103  0.00  0.00    +0.000 C 
ATOM      6  C   UNL     1       2.742   1.823  19.770  0.00  0.00    +0.000 C 
ATOM      7  C   UNL     1       3.295   3.234  20.037  0.00  0.00    +0.000 C 
ATOM      8  C   UNL     1       2.015   3.895  20.551  0.00  0.00    +0.000 C 
ATOM      9  C   UNL     1       3.576   4.045  18.726  0.00  0.00    +0.000 C 
BRANCH   3  10
ATOM     10  C   UNL     1       1.818   5.796  17.913  0.00  0.00    +0.000 C 
BRANCH  10  12
ATOM     11  C   UNL     1       2.808   8.137  18.056  0.00  0.00    +0.000 C 
ATOM     12  C   UNL     1       2.910   6.802  18.150  0.00  0.00    +0.000 C 
BRANCH  11  13
ATOM     13  C   UNL     1       1.558   8.915  17.754  0.00  0.00    +0.000 C 
BRANCH  13  14
ATOM     14  C   UNL     1       1.775  10.415  17.982  0.00  0.00    +0.000 C 
BRANCH  14  15
ATOM     15  C   UNL     1       1.113  10.906  19.269  0.00  0.00    +0.000 C 
BRANCH  15  17
ATOM     16  O   UNL     1      -1.187  10.326  18.849  0.00  0.00    +0.000 OA
ATOM     17  C   UNL     1      -0.193  10.214  19.552  0.00  0.00    +0.000 C 
BRANCH  17  18
ATOM     18  O   UNL     1      -0.190   9.491  20.693  0.00  0.00    +0.000 OA
ATOM     19  H   UNL     1      -1.037   9.517  21.180  0.00  0.00    +0.000 HD
ENDBRANCH  17  18
ENDBRANCH  15  17
ENDBRANCH  14  15
ENDBRANCH  13  14
ENDBRANCH  11  13
ENDBRANCH  10  12
ENDBRANCH   3  10
ENDBRANCH   1   9
BRANCH   1  20
ATOM     20  S   UNL     1       5.159   3.960  16.471  0.00  0.00    +0.000 S 
ATOM     21  O   UNL     1       6.124   2.979  16.026  0.00  0.00    +0.000 OA
ATOM     22  O   UNL     1       4.158   4.487  15.576  0.00  0.00    +0.000 OA
BRANCH  20  23
ATOM     23  C   UNL     1       6.091   5.332  17.088  0.00  0.00    +0.000 A 
ATOM     24  C   UNL     1       7.088   5.184  18.053  0.00  0.00    +0.000 A 
ATOM     25  C   UNL     1       7.811   6.310  18.458  0.00  0.00    +0.000 A 
ATOM     26  C   UNL     1       7.538   7.564  17.901  0.00  0.00    +0.000 A 
ATOM     27  C   UNL     1       6.526   7.705  16.951  0.00  0.00    +0.000 A 
ATOM     28  C   UNL     1       5.797   6.590  16.545  0.00  0.00    +0.000 A 
BRANCH  26  29
ATOM     29  C   UNL     1       8.306   8.705  18.293  0.00  0.00    +0.000 C 
ATOM     30  C   UNL     1       8.952   9.655  18.633  0.00  0.00    +0.000 C 
BRANCH  30  31
ATOM     31  C   UNL     1       9.697  10.804  19.033  0.00  0.00    +0.000 A 
ATOM     32  C   UNL     1       9.890  11.065  20.395  0.00  0.00    +0.000 A 
ATOM     33  C   UNL     1      10.595  12.199  20.800  0.00  0.00    +0.000 A 
ATOM     34  C   UNL     1      11.116  13.072  19.845  0.00  0.00    +0.000 A 
ATOM     35  C   UNL     1      10.938  12.809  18.486  0.00  0.00    +0.000 A 
ATOM     36  C   UNL     1      10.231  11.674  18.081  0.00  0.00    +0.000 A 
ENDBRANCH  30  31
ENDBRANCH  26  29
ENDBRANCH  20  23
ENDBRANCH   1  20
TORSDOF 12
ENDMDL
MODEL 5
REMARK VINA RESULT:      -8.6      1.471      1.997
REMARK  Name = 
REMARK  12 active torsions:
REMARK  status: ('A' for Active; 'I' for Inactive)
REMARK    1  A    between atoms: C_2  and  O_3
REMARK    2  A    between atoms: C_2  and  C_4
REMARK    3  A    between atoms: C_4  and  C_5
REMARK    4  A    between atoms: C_5  and  C_6
REMARK    5  A    between atoms: C_6  and  C_7
REMARK    6  A    between atoms: C_8  and  C_9
REMARK    7  A    between atoms: C_9  and  C_10
REMARK    8  A    between atoms: C_16  and  N_17
REMARK    9  A    between atoms: N_17  and  S_18
REMARK   10  A    between atoms: S_18  and  C_21
REMARK   11  A    between atoms: C_24  and  C_25
REMARK   12  A    between atoms: C_26  and  C_27
REMARK                            x       y       z     vdW  Elec       q    Type
REMARK                         _______ _______ _______ _____ _____    ______ ____
ROOT
ATOM      1  N   UNL     1       4.311   3.421  17.760  0.00  0.00    +0.000 NA
ATOM      2  H   UNL     1       3.642   2.740  17.402  0.00  0.00    +0.000 HD
ENDROOT
BRANCH   1   9
ATOM      3  C   UNL     1       2.713   5.164  18.620  0.00  0.00    +0.000 C 
ATOM      4  C   UNL     1       1.658   4.687  19.647  0.00  0.00    +0.000 C 
ATOM      5  C   UNL     1       1.138   3.304  19.187  0.00  0.00    +0.000 C 
ATOM      6  C   UNL     1       2.270   2.354  19.606  0.00  0.00    +0.000 C 
ATOM      7  C   UNL     1       3.370   3.324  20.073  0.00  0.00    +0.000 C 
ATOM      8  C   UNL     1       2.500   4.301  20.866  0.00  0.00    +0.000 C 
ATOM      9  C   UNL     1       3.917   4.236  18.922  0.00  0.00    +0.000 C 
BRANCH   3  10
ATOM     10  C   UNL     1       3.021   6.680  18.702  0.00  0.00    +0.000 C 
BRANCH  10  12
ATOM     11  C   UNL     1       1.930   8.767  17.738  0.00  0.00    +0.000 C 
ATOM     12  C   UNL     1       2.489   7.554  17.601  0.00  0.00    +0.000 C 
BRANCH  11  13
ATOM     13  C   UNL     1       1.776   9.538  19.019  0.00  0.00    +0.000 C 
BRANCH  13  14
ATOM     14  C   UNL     1       0.473   9.163  19.733  0.00  0.00    +0.000 C 
BRANCH  14  15
ATOM     15  C   UNL     1      -0.561  10.288  19.675  0.00  0.00    +0.000 C 
BRANCH  15  17
ATOM     16  O   UNL     1      -1.544   9.822  17.526  0.00  0.00    +0.000 OA
ATOM     17  C   UNL     1      -0.986  10.616  18.269  0.00  0.00    +0.000 C 
BRANCH  17  18
ATOM     18  O   UNL     1      -0.644  11.862  17.873  0.00  0.00    +0.000 OA
ATOM     19  H   UNL     1       0.316  11.987  17.747  0.00  0.00    +0.000 HD
ENDBRANCH  17  18
ENDBRANCH  15  17
ENDBRANCH  14  15
ENDBRANCH  13  14
ENDBRANCH  11  13
ENDBRANCH  10  12
ENDBRANCH   3  10
ENDBRANCH   1   9
BRANCH   1  20
ATOM     20  S   UNL     1       5.151   4.081  16.462  0.00  0.00    +0.000 S 
ATOM     21  O   UNL     1       6.099   3.061  16.074  0.00  0.00    +0.000 OA
ATOM     22  O   UNL     1       4.215   4.635  15.515  0.00  0.00    +0.000 OA
BRANCH  20  23
ATOM     23  C   UNL     1       6.103   5.425  17.111  0.00  0.00    +0.000 A 
ATOM     24  C   UNL     1       7.101   5.240  18.068  0.00  0.00    +0.000 A 
ATOM     25  C   UNL     1       7.840   6.345  18.500  0.00  0.00    +0.000 A 
ATOM     26  C   UNL     1       7.581   7.617  17.976  0.00  0.00    +0.000 A 
ATOM     27  C   UNL     1       6.567   7.795  17.035  0.00  0.00    +0.000 A 
ATOM     28  C   UNL     1       5.823   6.700  16.603  0.00  0.00    +0.000 A 
BRANCH  26  29
ATOM     29  C   UNL     1       8.365   8.737  18.395  0.00  0.00    +0.000 C 
ATOM     30  C   UNL     1       9.031   9.673  18.737  0.00  0.00    +0.000 C 
BRANCH  30  31
ATOM     31  C   UNL     1       9.824  10.776  19.173  0.00  0.00    +0.000 A 
ATOM     32  C   UNL     1       9.736  11.209  20.501  0.00  0.00    +0.000 A 
ATOM     33  C   UNL     1      10.487  12.303  20.933  0.00  0.00    +0.000 A 
ATOM     34  C   UNL     1      11.334  12.962  20.042  0.00  0.00    +0.000 A 
ATOM     35  C   UNL     1      11.434  12.524  18.720  0.00  0.00    +0.000 A 
ATOM     36  C   UNL     1      10.682  11.430  18.287  0.00  0.00    +0.000 A 
ENDBRANCH  30  31
ENDBRANCH  26  29
ENDBRANCH  20  23
ENDBRANCH   1  20
TORSDOF 12
ENDMDL
MODEL 6
REMARK VINA RESULT:      -8.6      1.227      1.475
REMARK  Name = 
REMARK  12 active torsions:
REMARK  status: ('A' for Active; 'I' for Inactive)
REMARK    1  A    between atoms: C_2  and  O_3
REMARK    2  A    between atoms: C_2  and  C_4
REMARK    3  A    between atoms: C_4  and  C_5
REMARK    4  A    between atoms: C_5  and  C_6
REMARK    5  A    between atoms: C_6  and  C_7
REMARK    6  A    between atoms: C_8  and  C_9
REMARK    7  A    between atoms: C_9  and  C_10
REMARK    8  A    between atoms: C_16  and  N_17
REMARK    9  A    between atoms: N_17  and  S_18
REMARK   10  A    between atoms: S_18  and  C_21
REMARK   11  A    between atoms: C_24  and  C_25
REMARK   12  A    between atoms: C_26  and  C_27
REMARK                            x       y       z     vdW  Elec       q    Type
REMARK                         _______ _______ _______ _____ _____    ______ ____
ROOT
ATOM      1  N   UNL     1       3.851   4.402  18.000  0.00  0.00    +0.000 NA
ATOM      2  H   UNL     1       3.409   4.753  17.152  0.00  0.00    +0.000 HD
ENDROOT
BRANCH   1   9
ATOM      3  C   UNL     1       2.082   5.731  19.199  0.00  0.00    +0.000 C 
ATOM      4  C   UNL     1       1.201   4.956  20.207  0.00  0.00    +0.000 C 
ATOM      5  C   UNL     1       0.862   3.581  19.584  0.00  0.00    +0.000 C 
ATOM      6  C   UNL     1       2.156   2.780  19.792  0.00  0.00    +0.000 C 
ATOM      7  C   UNL     1       3.129   3.845  20.327  0.00  0.00    +0.000 C 
ATOM      8  C   UNL     1       2.190   4.553  21.305  0.00  0.00    +0.000 C 
ATOM      9  C   UNL     1       3.434   4.980  19.290  0.00  0.00    +0.000 C 
BRANCH   3  10
ATOM     10  C   UNL     1       2.161   7.252  19.480  0.00  0.00    +0.000 C 
BRANCH  10  12
ATOM     11  C   UNL     1       1.734   9.317  18.055  0.00  0.00    +0.000 C 
ATOM     12  C   UNL     1       2.373   8.163  18.304  0.00  0.00    +0.000 C 
BRANCH  11  13
ATOM     13  C   UNL     1       0.712   9.977  18.937  0.00  0.00    +0.000 C 
BRANCH  13  14
ATOM     14  C   UNL     1       0.906   9.572  20.402  0.00  0.00    +0.000 C 
BRANCH  14  15
ATOM     15  C   UNL     1      -0.373   9.739  21.222  0.00  0.00    +0.000 C 
BRANCH  15  17
ATOM     16  O   UNL     1       0.998   9.683  23.202  0.00  0.00    +0.000 OA
ATOM     17  C   UNL     1      -0.110   9.816  22.701  0.00  0.00    +0.000 C 
BRANCH  17  18
ATOM     18  O   UNL     1      -1.224   9.993  23.445  0.00  0.00    +0.000 OA
ATOM     19  H   UNL     1      -2.042  10.076  22.919  0.00  0.00    +0.000 HD
ENDBRANCH  17  18
ENDBRANCH  15  17
ENDBRANCH  14  15
ENDBRANCH  13  14
ENDBRANCH  11  13
ENDBRANCH  10  12
ENDBRANCH   3  10
ENDBRANCH   1   9
BRANCH   1  20
ATOM     20  S   UNL     1       5.462   4.061  17.664  0.00  0.00    +0.000 S 
ATOM     21  O   UNL     1       5.926   3.298  18.801  0.00  0.00    +0.000 OA
ATOM     22  O   UNL     1       5.575   3.551  16.321  0.00  0.00    +0.000 OA
BRANCH  20  23
ATOM     23  C   UNL     1       6.324   5.606  17.717  0.00  0.00    +0.000 A 
ATOM     24  C   UNL     1       5.880   6.734  17.025  0.00  0.00    +0.000 A 
ATOM     25  C   UNL     1       6.591   7.930  17.152  0.00  0.00    +0.000 A 
ATOM     26  C   UNL     1       7.729   7.994  17.963  0.00  0.00    +0.000 A 
ATOM     27  C   UNL     1       8.176   6.857  18.635  0.00  0.00    +0.000 A 
ATOM     28  C   UNL     1       7.477   5.659  18.511  0.00  0.00    +0.000 A 
BRANCH  26  29
ATOM     29  C   UNL     1       8.430   9.231  18.117  0.00  0.00    +0.000 C 
ATOM     30  C   UNL     1       9.008  10.272  18.254  0.00  0.00    +0.000 C 
BRANCH  30  31
ATOM     31  C   UNL     1       9.696  11.515  18.388  0.00  0.00    +0.000 A 
ATOM     32  C   UNL     1       9.174  12.663  17.779  0.00  0.00    +0.000 A 
ATOM     33  C   UNL     1       9.850  13.879  17.881  0.00  0.00    +0.000 A 
ATOM     34  C   UNL     1      11.045  13.954  18.596  0.00  0.00    +0.000 A 
ATOM     35  C   UNL     1      11.561  12.815  19.215  0.00  0.00    +0.000 A 
ATOM     36  C   UNL     1      10.886  11.597  19.113  0.00  0.00    +0.000 A 
ENDBRANCH  30  31
ENDBRANCH  26  29
ENDBRANCH  20  23
ENDBRANCH   1  20
TORSDOF 12
ENDMDL
MODEL 7
REMARK VINA RESULT:      -8.5      1.450      2.034
REMARK  Name = 
REMARK  12 active torsions:
REMARK  status: ('A' for Active; 'I' for Inactive)
REMARK    1  A    between atoms: C_2  and  O_3
REMARK    2  A    between atoms: C_2  and  C_4
REMARK    3  A    between atoms: C_4  and  C_5
REMARK    4  A    between atoms: C_5  and  C_6
REMARK    5  A    between atoms: C_6  and  C_7
REMARK    6  A    between atoms: C_8  and  C_9
REMARK    7  A    between atoms: C_9  and  C_10
REMARK    8  A    between atoms: C_16  and  N_17
REMARK    9  A    between atoms: N_17  and  S_18
REMARK   10  A    between atoms: S_18  and  C_21
REMARK   11  A    between atoms: C_24  and  C_25
REMARK   12  A    between atoms: C_26  and  C_27
REMARK                            x       y       z     vdW  Elec       q    Type
REMARK                         _______ _______ _______ _____ _____    ______ ____
ROOT
ATOM      1  N   UNL     1       3.420   4.125  17.132  0.00  0.00    +0.000 NA
ATOM      2  H   UNL     1       2.741   4.564  16.511  0.00  0.00    +0.000 HD
ENDROOT
BRANCH   1   9
ATOM      3  C   UNL     1       1.981   5.065  18.969  0.00  0.00    +0.000 C 
ATOM      4  C   UNL     1       1.398   4.046  19.978  0.00  0.00    +0.000 C 
ATOM      5  C   UNL     1       0.943   2.798  19.185  0.00  0.00    +0.000 C 
ATOM      6  C   UNL     1       2.265   2.068  18.905  0.00  0.00    +0.000 C 
ATOM      7  C   UNL     1       3.318   3.075  19.397  0.00  0.00    +0.000 C 
ATOM      8  C   UNL     1       2.639   3.510  20.697  0.00  0.00    +0.000 C 
ATOM      9  C   UNL     1       3.328   4.409  18.574  0.00  0.00    +0.000 C 
BRANCH   3  10
ATOM     10  C   UNL     1       2.096   6.503  19.531  0.00  0.00    +0.000 C 
BRANCH  10  12
ATOM     11  C   UNL     1       2.620   8.499  18.041  0.00  0.00    +0.000 C 
ATOM     12  C   UNL     1       2.998   7.460  18.803  0.00  0.00    +0.000 C 
BRANCH  11  13
ATOM     13  C   UNL     1       1.211   8.965  17.807  0.00  0.00    +0.000 C 
BRANCH  13  14
ATOM     14  C   UNL     1       0.731   9.865  18.951  0.00  0.00    +0.000 C 
BRANCH  14  15
ATOM     15  C   UNL     1      -0.494  10.692  18.561  0.00  0.00    +0.000 C 
BRANCH  15  17
ATOM     16  O   UNL     1      -0.801  13.018  18.012  0.00  0.00    +0.000 OA
ATOM     17  C   UNL     1      -0.270  12.172  18.718  0.00  0.00    +0.000 C 
BRANCH  17  18
ATOM     18  O   UNL     1       0.620  12.489  19.683  0.00  0.00    +0.000 OA
ATOM     19  H   UNL     1       0.433  12.073  20.547  0.00  0.00    +0.000 HD
ENDBRANCH  17  18
ENDBRANCH  15  17
ENDBRANCH  14  15
ENDBRANCH  13  14
ENDBRANCH  11  13
ENDBRANCH  10  12
ENDBRANCH   3  10
ENDBRANCH   1   9
BRANCH   1  20
ATOM     20  S   UNL     1       4.901   4.049  16.339  0.00  0.00    +0.000 S 
ATOM     21  O   UNL     1       5.507   2.819  16.798  0.00  0.00    +0.000 OA
ATOM     22  O   UNL     1       4.707   4.312  14.934  0.00  0.00    +0.000 OA
BRANCH  20  23
ATOM     23  C   UNL     1       5.888   5.365  16.991  0.00  0.00    +0.000 A 
ATOM     24  C   UNL     1       6.909   5.146  17.915  0.00  0.00    +0.000 A 
ATOM     25  C   UNL     1       7.674   6.231  18.351  0.00  0.00    +0.000 A 
ATOM     26  C   UNL     1       7.418   7.518  17.864  0.00  0.00    +0.000 A 
ATOM     27  C   UNL     1       6.381   7.730  16.955  0.00  0.00    +0.000 A 
ATOM     28  C   UNL     1       5.611   6.655  16.519  0.00  0.00    +0.000 A 
BRANCH  26  29
ATOM     29  C   UNL     1       8.228   8.618  18.286  0.00  0.00    +0.000 C 
ATOM     30  C   UNL     1       8.899   9.543  18.650  0.00  0.00    +0.000 C 
BRANCH  30  31
ATOM     31  C   UNL     1       9.693  10.656  19.056  0.00  0.00    +0.000 A 
ATOM     32  C   UNL     1       9.714  11.036  20.403  0.00  0.00    +0.000 A 
ATOM     33  C   UNL     1      10.467  12.138  20.809  0.00  0.00    +0.000 A 
ATOM     34  C   UNL     1      11.206  12.859  19.873  0.00  0.00    +0.000 A 
ATOM     35  C   UNL     1      11.199  12.476  18.531  0.00  0.00    +0.000 A 
ATOM     36  C   UNL     1      10.445  11.373  18.123  0.00  0.00    +0.000 A 
ENDBRANCH  30  31
ENDBRANCH  26  29
ENDBRANCH  20  23
ENDBRANCH   1  20
TORSDOF 12
ENDMDL
MODEL 8
REMARK VINA RESULT:      -8.4      1.329      1.728
REMARK  Name = 
REMARK  12 active torsions:
REMARK  status: ('A' for Active; 'I' for Inactive)
REMARK    1  A    between atoms: C_2  and  O_3
REMARK    2  A    between atoms: C_2  and  C_4
REMARK    3  A    between atoms: C_4  and  C_5
REMARK    4  A    between atoms: C_5  and  C_6
REMARK    5  A    between atoms: C_6  and  C_7
REMARK    6  A    between atoms: C_8  and  C_9
REMARK    7  A    between atoms: C_9  and  C_10
REMARK    8  A    between atoms: C_16  and  N_17
REMARK    9  A    between atoms: N_17  and  S_18
REMARK   10  A    between atoms: S_18  and  C_21
REMARK   11  A    between atoms: C_24  and  C_25
REMARK   12  A    between atoms: C_26  and  C_27
REMARK                            x       y       z     vdW  Elec       q    Type
REMARK                         _______ _______ _______ _____ _____    ______ ____
ROOT
ATOM      1  N   UNL     1       4.600   4.884  17.372  0.00  0.00    +0.000 NA
ATOM      2  H   UNL     1       4.410   5.287  16.455  0.00  0.00    +0.000 HD
ENDROOT
BRANCH   1   9
ATOM      3  C   UNL     1       2.592   6.217  18.094  0.00  0.00    +0.000 C 
ATOM      4  C   UNL     1       1.410   5.415  18.691  0.00  0.00    +0.000 C 
ATOM      5  C   UNL     1       1.237   4.127  17.851  0.00  0.00    +0.000 C 
ATOM      6  C   UNL     1       2.370   3.226  18.365  0.00  0.00    +0.000 C 
ATOM      7  C   UNL     1       3.161   4.171  19.286  0.00  0.00    +0.000 C 
ATOM      8  C   UNL     1       1.986   4.850  19.992  0.00  0.00    +0.000 C 
ATOM      9  C   UNL     1       3.818   5.371  18.521  0.00  0.00    +0.000 C 
BRANCH   3  10
ATOM     10  C   UNL     1       2.632   7.697  18.546  0.00  0.00    +0.000 C 
BRANCH  10  12
ATOM     11  C   UNL     1       0.960   9.608  18.374  0.00  0.00    +0.000 C 
ATOM     12  C   UNL     1       1.739   8.666  17.821  0.00  0.00    +0.000 C 
BRANCH  11  13
ATOM     13  C   UNL     1       0.863   9.938  19.838  0.00  0.00    +0.000 C 
BRANCH  13  14
ATOM     14  C   UNL     1      -0.471   9.462  20.422  0.00  0.00    +0.000 C 
BRANCH  14  15
ATOM     15  C   UNL     1      -0.289   8.719  21.746  0.00  0.00    +0.000 C 
BRANCH  15  17
ATOM     16  O   UNL     1      -1.148  10.378  23.267  0.00  0.00    +0.000 OA
ATOM     17  C   UNL     1      -0.228   9.647  22.929  0.00  0.00    +0.000 C 
BRANCH  17  18
ATOM     18  O   UNL     1       0.966   9.645  23.562  0.00  0.00    +0.000 OA
ATOM     19  H   UNL     1       0.968  10.141  24.404  0.00  0.00    +0.000 HD
ENDBRANCH  17  18
ENDBRANCH  15  17
ENDBRANCH  14  15
ENDBRANCH  13  14
ENDBRANCH  11  13
ENDBRANCH  10  12
ENDBRANCH   3  10
ENDBRANCH   1   9
BRANCH   1  20
ATOM     20  S   UNL     1       6.249   4.579  17.490  0.00  0.00    +0.000 S 
ATOM     21  O   UNL     1       6.405   3.850  18.729  0.00  0.00    +0.000 OA
ATOM     22  O   UNL     1       6.731   4.046  16.240  0.00  0.00    +0.000 OA
BRANCH  20  23
ATOM     23  C   UNL     1       7.034   6.147  17.733  0.00  0.00    +0.000 A 
ATOM     24  C   UNL     1       6.716   7.268  16.966  0.00  0.00    +0.000 A 
ATOM     25  C   UNL     1       7.348   8.483  17.246  0.00  0.00    +0.000 A 
ATOM     26  C   UNL     1       8.282   8.571  18.284  0.00  0.00    +0.000 A 
ATOM     27  C   UNL     1       8.607   7.440  19.033  0.00  0.00    +0.000 A 
ATOM     28  C   UNL     1       7.987   6.224  18.757  0.00  0.00    +0.000 A 
BRANCH  26  29
ATOM     29  C   UNL     1       8.897   9.825  18.590  0.00  0.00    +0.000 C 
ATOM     30  C   UNL     1       9.423  10.872  18.840  0.00  0.00    +0.000 C 
BRANCH  30  31
ATOM     31  C   UNL     1      10.046  12.114  19.167  0.00  0.00    +0.000 A 
ATOM     32  C   UNL     1      11.411  12.142  19.479  0.00  0.00    +0.000 A 
ATOM     33  C   UNL     1      12.026  13.345  19.825  0.00  0.00    +0.000 A 
ATOM     34  C   UNL     1      11.283  14.524  19.854  0.00  0.00    +0.000 A 
ATOM     35  C   UNL     1       9.926  14.503  19.531  0.00  0.00    +0.000 A 
ATOM     36  C   UNL     1       9.308  13.298  19.185  0.00  0.00    +0.000 A 
ENDBRANCH  30  31
ENDBRANCH  26  29
ENDBRANCH  20  23
ENDBRANCH   1  20
TORSDOF 12
ENDMDL
MODEL 9
REMARK VINA RESULT:      -8.4      1.468      1.991
REMARK  Name = 
REMARK  12 active torsions:
REMARK  status: ('A' for Active; 'I' for Inactive)
REMARK    1  A    between atoms: C_2  and  O_3
REMARK    2  A    between atoms: C_2  and  C_4
REMARK    3  A    between atoms: C_4  and  C_5
REMARK    4  A    between atoms: C_5  and  C_6
REMARK    5  A    between atoms: C_6  and  C_7
REMARK    6  A    between atoms: C_8  and  C_9
REMARK    7  A    between atoms: C_9  and  C_10
REMARK    8  A    between atoms: C_16  and  N_17
REMARK    9  A    between atoms: N_17  and  S_18
REMARK   10  A    between atoms: S_18  and  C_21
REMARK   11  A    between atoms: C_24  and  C_25
REMARK   12  A    between atoms: C_26  and  C_27
REMARK                            x       y       z     vdW  Elec       q    Type
REMARK                         _______ _______ _______ _____ _____    ______ ____
ROOT
ATOM      1  N   UNL     1       5.098   3.315  17.487  0.00  0.00    +0.000 NA
ATOM      2  H   UNL     1       4.889   2.386  17.124  0.00  0.00    +0.000 HD
ENDROOT
BRANCH   1   9
ATOM      3  C   UNL     1       2.717   3.865  18.088  0.00  0.00    +0.000 C 
ATOM      4  C   UNL     1       2.062   2.988  19.181  0.00  0.00    +0.000 C 
ATOM      5  C   UNL     1       2.491   1.521  18.937  0.00  0.00    +0.000 C 
ATOM      6  C   UNL     1       3.925   1.487  19.485  0.00  0.00    +0.000 C 
ATOM      7  C   UNL     1       4.204   2.968  19.794  0.00  0.00    +0.000 C 
ATOM      8  C   UNL     1       2.865   3.330  20.439  0.00  0.00    +0.000 C 
ATOM      9  C   UNL     1       4.206   3.875  18.517  0.00  0.00    +0.000 C 
BRANCH   3  10
ATOM     10  C   UNL     1       2.071   5.264  17.940  0.00  0.00    +0.000 C 
BRANCH  10  12
ATOM     11  C   UNL     1       2.499   7.481  19.115  0.00  0.00    +0.000 C 
ATOM     12  C   UNL     1       2.142   6.187  19.125  0.00  0.00    +0.000 C 
BRANCH  11  13
ATOM     13  C   UNL     1       2.841   8.301  17.904  0.00  0.00    +0.000 C 
BRANCH  13  14
ATOM     14  C   UNL     1       1.868   9.473  17.740  0.00  0.00    +0.000 C 
BRANCH  14  15
ATOM     15  C   UNL     1       1.096   9.767  19.026  0.00  0.00    +0.000 C 
BRANCH  15  17
ATOM     16  O   UNL     1      -1.057  10.658  19.637  0.00  0.00    +0.000 OA
ATOM     17  C   UNL     1      -0.310  10.238  18.766  0.00  0.00    +0.000 C 
BRANCH  17  18
ATOM     18  O   UNL     1      -0.700  10.105  17.479  0.00  0.00    +0.000 OA
ATOM     19  H   UNL     1      -1.245   9.312  17.310  0.00  0.00    +0.000 HD
ENDBRANCH  17  18
ENDBRANCH  15  17
ENDBRANCH  14  15
ENDBRANCH  13  14
ENDBRANCH  11  13
ENDBRANCH  10  12
ENDBRANCH   3  10
ENDBRANCH   1   9
BRANCH   1  20
ATOM     20  S   UNL     1       5.700   4.257  16.232  0.00  0.00    +0.000 S 
ATOM     21  O   UNL     1       6.725   3.445  15.615  0.00  0.00    +0.000 OA
ATOM     22  O   UNL     1       4.603   4.793  15.464  0.00  0.00    +0.000 OA
BRANCH  20  23
ATOM     23  C   UNL     1       6.534   5.624  16.986  0.00  0.00    +0.000 A 
ATOM     24  C   UNL     1       7.508   5.454  17.970  0.00  0.00    +0.000 A 
ATOM     25  C   UNL     1       8.153   6.581  18.487  0.00  0.00    +0.000 A 
ATOM     26  C   UNL     1       7.828   7.859  18.020  0.00  0.00    +0.000 A 
ATOM     27  C   UNL     1       6.838   8.020  17.050  0.00  0.00    +0.000 A 
ATOM     28  C   UNL     1       6.187   6.903  16.533  0.00  0.00    +0.000 A 
BRANCH  26  29
ATOM     29  C   UNL     1       8.518   9.005  18.526  0.00  0.00    +0.000 C 
ATOM     30  C   UNL     1       9.085   9.969  18.956  0.00  0.00    +0.000 C 
BRANCH  30  31
ATOM     31  C   UNL     1       9.767  11.124  19.440  0.00  0.00    +0.000 A 
ATOM     32  C   UNL     1      10.948  11.543  18.814  0.00  0.00    +0.000 A 
ATOM     33  C   UNL     1      11.638  12.657  19.293  0.00  0.00    +0.000 A 
ATOM     34  C   UNL     1      11.149  13.359  20.394  0.00  0.00    +0.000 A 
ATOM     35  C   UNL     1       9.965  12.953  21.012  0.00  0.00    +0.000 A 
ATOM     36  C   UNL     1       9.274  11.838  20.533  0.00  0.00    +0.000 A 
ENDBRANCH  30  31
ENDBRANCH  26  29
ENDBRANCH  20  23
ENDBRANCH   1  20
TORSDOF 12
ENDMDL
