MODEL 1
REMARK VINA RESULT:      -7.5      0.000      0.000
REMARK  Name = 
REMARK  4 active torsions:
REMARK  status: ('A' for Active; 'I' for Inactive)
REMARK    1  A    between atoms: C_2  and  C_12
REMARK    2  A    between atoms: N_3  and  C_4
REMARK    3  A    between atoms: C_10  and  O_11
REMARK    4  A    between atoms: C_14  and  C_15
REMARK                            x       y       z     vdW  Elec       q    Type
REMARK                         _______ _______ _______ _____ _____    ______ ____
ROOT
ATOM      1  O   UNL     1       2.934   5.693  18.106  0.00  0.00    +0.000 OA
ATOM      2  C   UNL     1       3.315   6.820  17.789  0.00  0.00    +0.000 C 
ATOM      3  N   UNL     1       4.481   7.085  17.096  0.00  0.00    +0.000 N 
ATOM      4  H   UNL     1       4.795   8.050  17.035  0.00  0.00    +0.000 HD
ENDROOT
BRANCH   3   5
ATOM      5  C   UNL     1       5.384   6.092  16.637  0.00  0.00    +0.000 A 
ATOM      6  C   UNL     1       5.316   5.540  15.351  0.00  0.00    +0.000 A 
ATOM      7  C   UNL     1       6.182   4.518  14.967  0.00  0.00    +0.000 A 
ATOM      8 CL   UNL     1       6.049   3.841  13.391  0.00  0.00    +0.000 Cl
ATOM      9  C   UNL     1       7.145   4.044  15.849  0.00  0.00    +0.000 A 
ATOM     10  C   UNL     1       7.255   4.608  17.123  0.00  0.00    +0.000 A 
ATOM     11  C   UNL     1       6.382   5.631  17.505  0.00  0.00    +0.000 A 
BRANCH  11  12
ATOM     12  O   UNL     1       6.474   6.182  18.755  0.00  0.00    +0.000 OA
ATOM     13  H   UNL     1       6.005   7.035  18.752  0.00  0.00    +0.000 HD
ENDBRANCH  11  12
ENDBRANCH   3   5
BRANCH   2  14
ATOM     14  C   UNL     1       2.511   7.961  18.219  0.00  0.00    +0.000 A 
ATOM     15  C   UNL     1       1.905   8.025  19.493  0.00  0.00    +0.000 A 
ATOM     16  C   UNL     1       1.207   9.199  19.515  0.00  0.00    +0.000 A 
ATOM     17  O   UNL     1       1.386   9.829  18.314  0.00  0.00    +0.000 OA
ATOM     18  N   UNL     1       2.223   9.056  17.495  0.00  0.00    +0.000 NA
BRANCH  16  19
ATOM     19  C   UNL     1       0.356   9.810  20.529  0.00  0.00    +0.000 A 
ATOM     20  C   UNL     1      -0.358  10.982  20.207  0.00  0.00    +0.000 A 
ATOM     21  C   UNL     1      -1.141  11.643  21.153  0.00  0.00    +0.000 A 
ATOM     22  C   UNL     1      -1.224  11.135  22.444  0.00  0.00    +0.000 A 
ATOM     23 CL   UNL     1      -2.161  11.962  23.623  0.00  0.00    +0.000 Cl
ATOM     24  C   UNL     1      -0.544   9.966  22.784  0.00  0.00    +0.000 A 
ATOM     25  C   UNL     1       0.242   9.304  21.830  0.00  0.00    +0.000 A 
ENDBRANCH  16  19
ENDBRANCH   2  14
TORSDOF 4
ENDMDL
MODEL 2
REMARK VINA RESULT:      -7.5      1.536      1.588
REMARK  Name = 
REMARK  4 active torsions:
REMARK  status: ('A' for Active; 'I' for Inactive)
REMARK    1  A    between atoms: C_2  and  C_12
REMARK    2  A    between atoms: N_3  and  C_4
REMARK    3  A    between atoms: C_10  and  O_11
REMARK    4  A    between atoms: C_14  and  C_15
REMARK                            x       y       z     vdW  Elec       q    Type
REMARK                         _______ _______ _______ _____ _____    ______ ____
ROOT
ATOM      1  O   UNL     1       3.350   7.491  17.463  0.00  0.00    +0.000 OA
ATOM      2  C   UNL     1       3.354   6.853  18.516  0.00  0.00    +0.000 C 
ATOM      3  N   UNL     1       4.205   5.799  18.787  0.00  0.00    +0.000 N 
ATOM      4  H   UNL     1       4.016   5.227  19.607  0.00  0.00    +0.000 HD
ENDROOT
BRANCH   3   5
ATOM      5  C   UNL     1       5.203   5.324  17.899  0.00  0.00    +0.000 A 
ATOM      6  C   UNL     1       4.951   5.051  16.548  0.00  0.00    +0.000 A 
ATOM      7  C   UNL     1       5.946   4.521  15.730  0.00  0.00    +0.000 A 
ATOM      8 CL   UNL     1       5.591   4.168  14.083  0.00  0.00    +0.000 Cl
ATOM      9  C   UNL     1       7.216   4.275  16.236  0.00  0.00    +0.000 A 
ATOM     10  C   UNL     1       7.500   4.576  17.570  0.00  0.00    +0.000 A 
ATOM     11  C   UNL     1       6.497   5.104  18.389  0.00  0.00    +0.000 A 
BRANCH  11  12
ATOM     12  O   UNL     1       6.762   5.392  19.702  0.00  0.00    +0.000 OA
ATOM     13  H   UNL     1       7.383   6.141  19.734  0.00  0.00    +0.000 HD
ENDBRANCH  11  12
ENDBRANCH   3   5
BRANCH   2  14
ATOM     14  C   UNL     1       2.359   7.195  19.529  0.00  0.00    +0.000 A 
ATOM     15  C   UNL     1       1.807   8.491  19.642  0.00  0.00    +0.000 A 
ATOM     16  C   UNL     1       0.962   8.443  20.715  0.00  0.00    +0.000 A 
ATOM     17  O   UNL     1       0.989   7.175  21.228  0.00  0.00    +0.000 OA
ATOM     18  N   UNL     1       1.861   6.377  20.472  0.00  0.00    +0.000 NA
BRANCH  16  19
ATOM     19  C   UNL     1       0.133   9.460  21.350  0.00  0.00    +0.000 A 
ATOM     20  C   UNL     1      -0.261  10.586  20.600  0.00  0.00    +0.000 A 
ATOM     21  C   UNL     1      -1.005  11.619  21.171  0.00  0.00    +0.000 A 
ATOM     22  C   UNL     1      -1.371  11.536  22.508  0.00  0.00    +0.000 A 
ATOM     23 CL   UNL     1      -2.260  12.821  23.226  0.00  0.00    +0.000 Cl
ATOM     24  C   UNL     1      -1.011  10.424  23.268  0.00  0.00    +0.000 A 
ATOM     25  C   UNL     1      -0.263   9.387  22.691  0.00  0.00    +0.000 A 
ENDBRANCH  16  19
ENDBRANCH   2  14
TORSDOF 4
ENDMDL
MODEL 3
REMARK VINA RESULT:      -7.4      1.500      1.828
REMARK  Name = 
REMARK  4 active torsions:
REMARK  status: ('A' for Active; 'I' for Inactive)
REMARK    1  A    between atoms: C_2  and  C_12
REMARK    2  A    between atoms: N_3  and  C_4
REMARK    3  A    between atoms: C_10  and  O_11
REMARK    4  A    between atoms: C_14  and  C_15
REMARK                            x       y       z     vdW  Elec       q    Type
REMARK                         _______ _______ _______ _____ _____    ______ ____
ROOT
ATOM      1  O   UNL     1       3.335   7.539  17.412  0.00  0.00    +0.000 OA
ATOM      2  C   UNL     1       3.345   6.925  18.479  0.00  0.00    +0.000 C 
ATOM      3  N   UNL     1       4.192   5.872  18.766  0.00  0.00    +0.000 N 
ATOM      4  H   UNL     1       4.008   5.321  19.601  0.00  0.00    +0.000 HD
ENDROOT
BRANCH   3   5
ATOM      5  C   UNL     1       5.179   5.371  17.879  0.00  0.00    +0.000 A 
ATOM      6  C   UNL     1       4.916   5.086  16.533  0.00  0.00    +0.000 A 
ATOM      7  C   UNL     1       5.899   4.531  15.717  0.00  0.00    +0.000 A 
ATOM      8 CL   UNL     1       5.532   4.162  14.077  0.00  0.00    +0.000 Cl
ATOM      9  C   UNL     1       7.168   4.270  16.220  0.00  0.00    +0.000 A 
ATOM     10  C   UNL     1       7.462   4.583  17.550  0.00  0.00    +0.000 A 
ATOM     11  C   UNL     1       6.472   5.138  18.366  0.00  0.00    +0.000 A 
BRANCH  11  12
ATOM     12  O   UNL     1       6.747   5.437  19.674  0.00  0.00    +0.000 OA
ATOM     13  H   UNL     1       6.948   4.609  20.145  0.00  0.00    +0.000 HD
ENDBRANCH  11  12
ENDBRANCH   3   5
BRANCH   2  14
ATOM     14  C   UNL     1       2.362   7.297  19.493  0.00  0.00    +0.000 A 
ATOM     15  C   UNL     1       1.819   8.598  19.581  0.00  0.00    +0.000 A 
ATOM     16  C   UNL     1       0.984   8.581  20.664  0.00  0.00    +0.000 A 
ATOM     17  O   UNL     1       1.009   7.325  21.205  0.00  0.00    +0.000 OA
ATOM     18  N   UNL     1       1.869   6.504  20.460  0.00  0.00    +0.000 NA
BRANCH  16  19
ATOM     19  C   UNL     1       0.168   9.617  21.283  0.00  0.00    +0.000 A 
ATOM     20  C   UNL     1      -0.207   9.474  22.634  0.00  0.00    +0.000 A 
ATOM     21  C   UNL     1      -1.035  10.404  23.263  0.00  0.00    +0.000 A 
ATOM     22  C   UNL     1      -1.501  11.498  22.545  0.00  0.00    +0.000 A 
ATOM     23 CL   UNL     1      -2.548  12.630  23.305  0.00  0.00    +0.000 Cl
ATOM     24  C   UNL     1      -1.130  11.673  21.212  0.00  0.00    +0.000 A 
ATOM     25  C   UNL     1      -0.296  10.737  20.583  0.00  0.00    +0.000 A 
ENDBRANCH  16  19
ENDBRANCH   2  14
TORSDOF 4
ENDMDL
MODEL 4
REMARK VINA RESULT:      -7.4      2.369      3.330
REMARK  Name = 
REMARK  4 active torsions:
REMARK  status: ('A' for Active; 'I' for Inactive)
REMARK    1  A    between atoms: C_2  and  C_12
REMARK    2  A    between atoms: N_3  and  C_4
REMARK    3  A    between atoms: C_10  and  O_11
REMARK    4  A    between atoms: C_14  and  C_15
REMARK                            x       y       z     vdW  Elec       q    Type
REMARK                         _______ _______ _______ _____ _____    ______ ____
ROOT
ATOM      1  O   UNL     1       4.698   3.259  16.773  0.00  0.00    +0.000 OA
ATOM      2  C   UNL     1       4.599   4.486  16.748  0.00  0.00    +0.000 C 
ATOM      3  N   UNL     1       5.065   5.287  15.724  0.00  0.00    +0.000 N 
ATOM      4  H   UNL     1       5.093   6.292  15.875  0.00  0.00    +0.000 HD
ENDROOT
BRANCH   3   5
ATOM      5  C   UNL     1       5.701   4.802  14.552  0.00  0.00    +0.000 A 
ATOM      6  C   UNL     1       5.034   4.036  13.587  0.00  0.00    +0.000 A 
ATOM      7  C   UNL     1       5.717   3.524  12.486  0.00  0.00    +0.000 A 
ATOM      8 CL   UNL     1       4.873   2.560  11.338  0.00  0.00    +0.000 Cl
ATOM      9  C   UNL     1       7.071   3.785  12.315  0.00  0.00    +0.000 A 
ATOM     10  C   UNL     1       7.746   4.579  13.245  0.00  0.00    +0.000 A 
ATOM     11  C   UNL     1       7.058   5.088  14.350  0.00  0.00    +0.000 A 
BRANCH  11  12
ATOM     12  O   UNL     1       7.713   5.858  15.274  0.00  0.00    +0.000 OA
ATOM     13  H   UNL     1       7.148   6.618  15.499  0.00  0.00    +0.000 HD
ENDBRANCH  11  12
ENDBRANCH   3   5
BRANCH   2  14
ATOM     14  C   UNL     1       3.996   5.148  17.902  0.00  0.00    +0.000 A 
ATOM     15  C   UNL     1       3.152   6.274  17.774  0.00  0.00    +0.000 A 
ATOM     16  C   UNL     1       2.824   6.640  19.050  0.00  0.00    +0.000 A 
ATOM     17  O   UNL     1       3.430   5.771  19.915  0.00  0.00    +0.000 OA
ATOM     18  N   UNL     1       4.161   4.816  19.193  0.00  0.00    +0.000 NA
BRANCH  16  19
ATOM     19  C   UNL     1       2.018   7.735  19.574  0.00  0.00    +0.000 A 
ATOM     20  C   UNL     1       1.545   7.661  20.899  0.00  0.00    +0.000 A 
ATOM     21  C   UNL     1       0.721   8.651  21.436  0.00  0.00    +0.000 A 
ATOM     22  C   UNL     1       0.360   9.738  20.649  0.00  0.00    +0.000 A 
ATOM     23 CL   UNL     1      -0.681  10.944  21.295  0.00  0.00    +0.000 Cl
ATOM     24  C   UNL     1       0.831   9.845  19.342  0.00  0.00    +0.000 A 
ATOM     25  C   UNL     1       1.659   8.849  18.805  0.00  0.00    +0.000 A 
ENDBRANCH  16  19
ENDBRANCH   2  14
TORSDOF 4
ENDMDL
MODEL 5
REMARK VINA RESULT:      -7.4      5.916      7.727
REMARK  Name = 
REMARK  4 active torsions:
REMARK  status: ('A' for Active; 'I' for Inactive)
REMARK    1  A    between atoms: C_2  and  C_12
REMARK    2  A    between atoms: N_3  and  C_4
REMARK    3  A    between atoms: C_10  and  O_11
REMARK    4  A    between atoms: C_14  and  C_15
REMARK                            x       y       z     vdW  Elec       q    Type
REMARK                         _______ _______ _______ _____ _____    ______ ____
ROOT
ATOM      1  O   UNL     1       7.443   4.965  18.942  0.00  0.00    +0.000 OA
ATOM      2  C   UNL     1       6.745   5.828  18.407  0.00  0.00    +0.000 C 
ATOM      3  N   UNL     1       5.415   5.661  18.074  0.00  0.00    +0.000 N 
ATOM      4  H   UNL     1       4.976   6.363  17.483  0.00  0.00    +0.000 HD
ENDROOT
BRANCH   3   5
ATOM      5  C   UNL     1       4.667   4.482  18.322  0.00  0.00    +0.000 A 
ATOM      6  C   UNL     1       4.222   4.119  19.601  0.00  0.00    +0.000 A 
ATOM      7  C   UNL     1       3.550   2.917  19.807  0.00  0.00    +0.000 A 
ATOM      8 CL   UNL     1       3.045   2.489  21.395  0.00  0.00    +0.000 Cl
ATOM      9  C   UNL     1       3.289   2.064  18.741  0.00  0.00    +0.000 A 
ATOM     10  C   UNL     1       3.691   2.425  17.452  0.00  0.00    +0.000 A 
ATOM     11  C   UNL     1       4.368   3.631  17.250  0.00  0.00    +0.000 A 
BRANCH  11  12
ATOM     12  O   UNL     1       4.776   3.988  15.992  0.00  0.00    +0.000 OA
ATOM     13  H   UNL     1       4.183   3.569  15.344  0.00  0.00    +0.000 HD
ENDBRANCH  11  12
ENDBRANCH   3   5
BRANCH   2  14
ATOM     14  C   UNL     1       7.376   7.096  18.052  0.00  0.00    +0.000 A 
ATOM     15  C   UNL     1       8.156   7.837  18.968  0.00  0.00    +0.000 A 
ATOM     16  C   UNL     1       8.533   8.971  18.304  0.00  0.00    +0.000 A 
ATOM     17  O   UNL     1       8.017   8.920  17.038  0.00  0.00    +0.000 OA
ATOM     18  N   UNL     1       7.296   7.728  16.869  0.00  0.00    +0.000 NA
BRANCH  16  19
ATOM     19  C   UNL     1       9.313  10.131  18.718  0.00  0.00    +0.000 A 
ATOM     20  C   UNL     1       9.990  10.884  17.737  0.00  0.00    +0.000 A 
ATOM     21  C   UNL     1      10.798  11.969  18.080  0.00  0.00    +0.000 A 
ATOM     22  C   UNL     1      10.937  12.319  19.417  0.00  0.00    +0.000 A 
ATOM     23 CL   UNL     1      11.957  13.635  19.848  0.00  0.00    +0.000 Cl
ATOM     24  C   UNL     1      10.263  11.603  20.405  0.00  0.00    +0.000 A 
ATOM     25  C   UNL     1       9.451  10.514  20.058  0.00  0.00    +0.000 A 
ENDBRANCH  16  19
ENDBRANCH   2  14
TORSDOF 4
ENDMDL
MODEL 6
REMARK VINA RESULT:      -7.3      1.728      1.859
REMARK  Name = 
REMARK  4 active torsions:
REMARK  status: ('A' for Active; 'I' for Inactive)
REMARK    1  A    between atoms: C_2  and  C_12
REMARK    2  A    between atoms: N_3  and  C_4
REMARK    3  A    between atoms: C_10  and  O_11
REMARK    4  A    between atoms: C_14  and  C_15
REMARK                            x       y       z     vdW  Elec       q    Type
REMARK                         _______ _______ _______ _____ _____    ______ ____
ROOT
ATOM      1  O   UNL     1       2.860   4.411  18.517  0.00  0.00    +0.000 OA
ATOM      2  C   UNL     1       3.193   5.519  18.941  0.00  0.00    +0.000 C 
ATOM      3  N   UNL     1       4.400   6.131  18.663  0.00  0.00    +0.000 N 
ATOM      4  H   UNL     1       4.651   6.960  19.197  0.00  0.00    +0.000 HD
ENDROOT
BRANCH   3   5
ATOM      5  C   UNL     1       5.409   5.578  17.834  0.00  0.00    +0.000 A 
ATOM      6  C   UNL     1       5.235   5.376  16.459  0.00  0.00    +0.000 A 
ATOM      7  C   UNL     1       6.229   4.766  15.697  0.00  0.00    +0.000 A 
ATOM      8 CL   UNL     1       5.970   4.504  14.016  0.00  0.00    +0.000 Cl
ATOM      9  C   UNL     1       7.423   4.368  16.287  0.00  0.00    +0.000 A 
ATOM     10  C   UNL     1       7.631   4.595  17.649  0.00  0.00    +0.000 A 
ATOM     11  C   UNL     1       6.630   5.204  18.411  0.00  0.00    +0.000 A 
BRANCH  11  12
ATOM     12  O   UNL     1       6.819   5.421  19.750  0.00  0.00    +0.000 OA
ATOM     13  H   UNL     1       5.957   5.362  20.197  0.00  0.00    +0.000 HD
ENDBRANCH  11  12
ENDBRANCH   3   5
BRANCH   2  14
ATOM     14  C   UNL     1       2.275   6.211  19.842  0.00  0.00    +0.000 A 
ATOM     15  C   UNL     1       2.056   7.605  19.775  0.00  0.00    +0.000 A 
ATOM     16  C   UNL     1       1.186   7.894  20.789  0.00  0.00    +0.000 A 
ATOM     17  O   UNL     1       0.879   6.729  21.438  0.00  0.00    +0.000 OA
ATOM     18  N   UNL     1       1.556   5.659  20.833  0.00  0.00    +0.000 NA
BRANCH  16  19
ATOM     19  C   UNL     1       0.609   9.150  21.253  0.00  0.00    +0.000 A 
ATOM     20  C   UNL     1       0.848  10.325  20.513  0.00  0.00    +0.000 A 
ATOM     21  C   UNL     1       0.372  11.565  20.939  0.00  0.00    +0.000 A 
ATOM     22  C   UNL     1      -0.359  11.646  22.118  0.00  0.00    +0.000 A 
ATOM     23 CL   UNL     1      -0.921  13.176  22.665  0.00  0.00    +0.000 Cl
ATOM     24  C   UNL     1      -0.626  10.496  22.858  0.00  0.00    +0.000 A 
ATOM     25  C   UNL     1      -0.146   9.250  22.428  0.00  0.00    +0.000 A 
ENDBRANCH  16  19
ENDBRANCH   2  14
TORSDOF 4
ENDMDL
MODEL 7
REMARK VINA RESULT:      -7.3      2.335      3.064
REMARK  Name = 
REMARK  4 active torsions:
REMARK  status: ('A' for Active; 'I' for Inactive)
REMARK    1  A    between atoms: C_2  and  C_12
REMARK    2  A    between atoms: N_3  and  C_4
REMARK    3  A    between atoms: C_10  and  O_11
REMARK    4  A    between atoms: C_14  and  C_15
REMARK                            x       y       z     vdW  Elec       q    Type
REMARK                         _______ _______ _______ _____ _____    ______ ____
ROOT
ATOM      1  O   UNL     1       4.661   3.281  16.960  0.00  0.00    +0.000 OA
ATOM      2  C   UNL     1       4.501   4.502  16.932  0.00  0.00    +0.000 C 
ATOM      3  N   UNL     1       4.948   5.325  15.917  0.00  0.00    +0.000 N 
ATOM      4  H   UNL     1       4.923   6.330  16.067  0.00  0.00    +0.000 HD
ENDROOT
BRANCH   3   5
ATOM      5  C   UNL     1       5.632   4.872  14.759  0.00  0.00    +0.000 A 
ATOM      6  C   UNL     1       5.017   4.094  13.769  0.00  0.00    +0.000 A 
ATOM      7  C   UNL     1       5.747   3.616  12.684  0.00  0.00    +0.000 A 
ATOM      8 CL   UNL     1       4.967   2.636  11.503  0.00  0.00    +0.000 Cl
ATOM      9  C   UNL     1       7.096   3.921  12.552  0.00  0.00    +0.000 A 
ATOM     10  C   UNL     1       7.719   4.727  13.509  0.00  0.00    +0.000 A 
ATOM     11  C   UNL     1       6.984   5.203  14.598  0.00  0.00    +0.000 A 
BRANCH  11  12
ATOM     12  O   UNL     1       7.588   5.984  15.547  0.00  0.00    +0.000 OA
ATOM     13  H   UNL     1       8.551   5.849  15.491  0.00  0.00    +0.000 HD
ENDBRANCH  11  12
ENDBRANCH   3   5
BRANCH   2  14
ATOM     14  C   UNL     1       3.842   5.133  18.072  0.00  0.00    +0.000 A 
ATOM     15  C   UNL     1       3.087   6.321  17.949  0.00  0.00    +0.000 A 
ATOM     16  C   UNL     1       2.671   6.631  19.214  0.00  0.00    +0.000 A 
ATOM     17  O   UNL     1       3.141   5.671  20.068  0.00  0.00    +0.000 OA
ATOM     18  N   UNL     1       3.871   4.713  19.348  0.00  0.00    +0.000 NA
BRANCH  16  19
ATOM     19  C   UNL     1       1.893   7.745  19.739  0.00  0.00    +0.000 A 
ATOM     20  C   UNL     1       1.643   8.856  18.908  0.00  0.00    +0.000 A 
ATOM     21  C   UNL     1       0.955   9.976  19.374  0.00  0.00    +0.000 A 
ATOM     22  C   UNL     1       0.501   9.999  20.687  0.00  0.00    +0.000 A 
ATOM     23 CL   UNL     1      -0.319  11.390  21.278  0.00  0.00    +0.000 Cl
ATOM     24  C   UNL     1       0.718   8.906  21.524  0.00  0.00    +0.000 A 
ATOM     25  C   UNL     1       1.409   7.781  21.053  0.00  0.00    +0.000 A 
ENDBRANCH  16  19
ENDBRANCH   2  14
TORSDOF 4
ENDMDL
MODEL 8
REMARK VINA RESULT:      -7.3      2.238      9.182
REMARK  Name = 
REMARK  4 active torsions:
REMARK  status: ('A' for Active; 'I' for Inactive)
REMARK    1  A    between atoms: C_2  and  C_12
REMARK    2  A    between atoms: N_3  and  C_4
REMARK    3  A    between atoms: C_10  and  O_11
REMARK    4  A    between atoms: C_14  and  C_15
REMARK                            x       y       z     vdW  Elec       q    Type
REMARK                         _______ _______ _______ _____ _____    ______ ____
ROOT
ATOM      1  O   UNL     1       0.226   9.791  19.033  0.00  0.00    +0.000 OA
ATOM      2  C   UNL     1       0.888   9.313  19.955  0.00  0.00    +0.000 C 
ATOM      3  N   UNL     1       0.946   9.842  21.231  0.00  0.00    +0.000 N 
ATOM      4  H   UNL     1       1.650   9.480  21.869  0.00  0.00    +0.000 HD
ENDROOT
BRANCH   3   5
ATOM      5  C   UNL     1       0.234  10.993  21.655  0.00  0.00    +0.000 A 
ATOM      6  C   UNL     1       0.459  12.267  21.117  0.00  0.00    +0.000 A 
ATOM      7  C   UNL     1      -0.215  13.380  21.613  0.00  0.00    +0.000 A 
ATOM      8 CL   UNL     1       0.109  14.934  20.950  0.00  0.00    +0.000 Cl
ATOM      9  C   UNL     1      -1.141  13.241  22.640  0.00  0.00    +0.000 A 
ATOM     10  C   UNL     1      -1.408  11.975  23.165  0.00  0.00    +0.000 A 
ATOM     11  C   UNL     1      -0.727  10.860  22.666  0.00  0.00    +0.000 A 
BRANCH  11  12
ATOM     12  O   UNL     1      -0.973   9.616  23.182  0.00  0.00    +0.000 OA
ATOM     13  H   UNL     1      -1.127   9.703  24.139  0.00  0.00    +0.000 HD
ENDBRANCH  11  12
ENDBRANCH   3   5
BRANCH   2  14
ATOM     14  C   UNL     1       1.708   8.139  19.673  0.00  0.00    +0.000 A 
ATOM     15  C   UNL     1       2.393   7.969  18.449  0.00  0.00    +0.000 A 
ATOM     16  C   UNL     1       3.005   6.750  18.530  0.00  0.00    +0.000 A 
ATOM     17  O   UNL     1       2.717   6.205  19.752  0.00  0.00    +0.000 OA
ATOM     18  N   UNL     1       1.908   7.086  20.484  0.00  0.00    +0.000 NA
BRANCH  16  19
ATOM     19  C   UNL     1       3.823   6.003  17.583  0.00  0.00    +0.000 A 
ATOM     20  C   UNL     1       4.634   6.713  16.675  0.00  0.00    +0.000 A 
ATOM     21  C   UNL     1       5.394   6.054  15.707  0.00  0.00    +0.000 A 
ATOM     22  C   UNL     1       5.355   4.667  15.638  0.00  0.00    +0.000 A 
ATOM     23 CL   UNL     1       6.264   3.852  14.428  0.00  0.00    +0.000 Cl
ATOM     24  C   UNL     1       4.577   3.941  16.538  0.00  0.00    +0.000 A 
ATOM     25  C   UNL     1       3.815   4.605  17.509  0.00  0.00    +0.000 A 
ENDBRANCH  16  19
ENDBRANCH   2  14
TORSDOF 4
ENDMDL
MODEL 9
REMARK VINA RESULT:      -7.3      3.052      3.490
REMARK  Name = 
REMARK  4 active torsions:
REMARK  status: ('A' for Active; 'I' for Inactive)
REMARK    1  A    between atoms: C_2  and  C_12
REMARK    2  A    between atoms: N_3  and  C_4
REMARK    3  A    between atoms: C_10  and  O_11
REMARK    4  A    between atoms: C_14  and  C_15
REMARK                            x       y       z     vdW  Elec       q    Type
REMARK                         _______ _______ _______ _____ _____    ______ ____
ROOT
ATOM      1  O   UNL     1       3.776   6.609  18.140  0.00  0.00    +0.000 OA
ATOM      2  C   UNL     1       2.733   6.638  18.793  0.00  0.00    +0.000 C 
ATOM      3  N   UNL     1       2.076   5.518  19.266  0.00  0.00    +0.000 N 
ATOM      4  H   UNL     1       1.138   5.634  19.641  0.00  0.00    +0.000 HD
ENDROOT
BRANCH   3   5
ATOM      5  C   UNL     1       2.527   4.186  19.083  0.00  0.00    +0.000 A 
ATOM      6  C   UNL     1       3.462   3.577  19.930  0.00  0.00    +0.000 A 
ATOM      7  C   UNL     1       3.926   2.289  19.670  0.00  0.00    +0.000 A 
ATOM      8 CL   UNL     1       5.099   1.584  20.713  0.00  0.00    +0.000 Cl
ATOM      9  C   UNL     1       3.451   1.577  18.575  0.00  0.00    +0.000 A 
ATOM     10  C   UNL     1       2.490   2.152  17.740  0.00  0.00    +0.000 A 
ATOM     11  C   UNL     1       2.029   3.445  18.002  0.00  0.00    +0.000 A 
BRANCH  11  12
ATOM     12  O   UNL     1       1.095   4.022  17.183  0.00  0.00    +0.000 OA
ATOM     13  H   UNL     1       1.547   4.357  16.388  0.00  0.00    +0.000 HD
ENDBRANCH  11  12
ENDBRANCH   3   5
BRANCH   2  14
ATOM     14  C   UNL     1       2.116   7.938  19.042  0.00  0.00    +0.000 A 
ATOM     15  C   UNL     1       1.468   8.249  20.258  0.00  0.00    +0.000 A 
ATOM     16  C   UNL     1       0.980   9.517  20.106  0.00  0.00    +0.000 A 
ATOM     17  O   UNL     1       1.324   9.964  18.860  0.00  0.00    +0.000 OA
ATOM     18  N   UNL     1       2.055   8.973  18.187  0.00  0.00    +0.000 NA
BRANCH  16  19
ATOM     19  C   UNL     1       0.198  10.374  20.989  0.00  0.00    +0.000 A 
ATOM     20  C   UNL     1      -0.003  11.722  20.629  0.00  0.00    +0.000 A 
ATOM     21  C   UNL     1      -0.694  12.603  21.461  0.00  0.00    +0.000 A 
ATOM     22  C   UNL     1      -1.198  12.144  22.672  0.00  0.00    +0.000 A 
ATOM     23 CL   UNL     1      -2.021  13.234  23.716  0.00  0.00    +0.000 Cl
ATOM     24  C   UNL     1      -1.030  10.811  23.042  0.00  0.00    +0.000 A 
ATOM     25  C   UNL     1      -0.336   9.927  22.203  0.00  0.00    +0.000 A 
ENDBRANCH  16  19
ENDBRANCH   2  14
TORSDOF 4
ENDMDL
