MODEL 1
REMARK VINA RESULT:      -7.2      0.000      0.000
REMARK  Name = 
REMARK  8 active torsions:
REMARK  status: ('A' for Active; 'I' for Inactive)
REMARK    1  A    between atoms: C_1  and  C_2
REMARK    2  A    between atoms: C_2  and  C_3
REMARK    3  A    between atoms: C_3  and  C_4
REMARK    4  A    between atoms: N_6  and  C_7
REMARK    5  A    between atoms: C_7  and  C_8
REMARK    6  A    between atoms: C_8  and  C_9
REMARK    7  A    between atoms: C_16  and  O_17
REMARK    8  A    between atoms: O_17  and  C_18
REMARK                            x       y       z     vdW  Elec       q    Type
REMARK                         _______ _______ _______ _____ _____    ______ ____
ROOT
ATOM      1  C   UNL     1       3.651   3.700  17.602  0.00  0.00    +0.000 A 
ATOM      2  C   UNL     1       3.659   2.310  17.792  0.00  0.00    +0.000 A 
ATOM      3  C   UNL     1       3.028   1.786  18.903  0.00  0.00    +0.000 A 
ATOM      4  N   UNL     1       2.395   2.531  19.826  0.00  0.00    +0.000 NA
ATOM      5  C   UNL     1       2.375   3.863  19.656  0.00  0.00    +0.000 A 
ATOM      6  C   UNL     1       1.717   4.621  20.612  0.00  0.00    +0.000 A 
ATOM      7  C   UNL     1       1.642   6.015  20.532  0.00  0.00    +0.000 A 
ATOM      8  C   UNL     1       2.237   6.674  19.467  0.00  0.00    +0.000 A 
ATOM      9  C   UNL     1       2.893   5.926  18.485  0.00  0.00    +0.000 A 
ATOM     10  C   UNL     1       2.985   4.513  18.558  0.00  0.00    +0.000 A 
ENDROOT
BRANCH   8  11
ATOM     11  O   UNL     1       2.252   8.027  19.264  0.00  0.00    +0.000 OA
ATOM     12  C   UNL     1       2.357   8.468  17.915  0.00  0.00    +0.000 C 
ENDBRANCH   8  11
BRANCH   1  13
ATOM     13  C   UNL     1       4.316   4.246  16.353  0.00  0.00    +0.000 C 
BRANCH  13  14
ATOM     14  C   UNL     1       5.823   3.970  16.358  0.00  0.00    +0.000 C 
BRANCH  14  17
ATOM     15  C   UNL     1       6.938   5.214  18.147  0.00  0.00    +0.000 C 
ATOM     16  O   UNL     1       6.591   4.390  18.997  0.00  0.00    +0.000 OA
ATOM     17  N   UNL     1       6.606   5.100  16.817  0.00  0.00    +0.000 N 
ATOM     18  H   UNL     1       6.975   5.766  16.148  0.00  0.00    +0.000 HD
BRANCH  15  19
ATOM     19  C   UNL     1       7.749   6.444  18.495  0.00  0.00    +0.000 C 
BRANCH  19  21
ATOM     20  C   UNL     1       8.172   8.872  17.910  0.00  0.00    +0.000 C 
ATOM     21  C   UNL     1       7.537   7.561  17.476  0.00  0.00    +0.000 C 
ENDBRANCH  19  21
ENDBRANCH  15  19
ENDBRANCH  14  17
ENDBRANCH  13  14
ENDBRANCH   1  13
TORSDOF 6
ENDMDL
MODEL 2
REMARK VINA RESULT:      -7.1      3.545      5.569
REMARK  Name = 
REMARK  8 active torsions:
REMARK  status: ('A' for Active; 'I' for Inactive)
REMARK    1  A    between atoms: C_1  and  C_2
REMARK    2  A    between atoms: C_2  and  C_3
REMARK    3  A    between atoms: C_3  and  C_4
REMARK    4  A    between atoms: N_6  and  C_7
REMARK    5  A    between atoms: C_7  and  C_8
REMARK    6  A    between atoms: C_8  and  C_9
REMARK    7  A    between atoms: C_16  and  O_17
REMARK    8  A    between atoms: O_17  and  C_18
REMARK                            x       y       z     vdW  Elec       q    Type
REMARK                         _______ _______ _______ _____ _____    ______ ____
ROOT
ATOM      1  C   UNL     1       5.858   5.348  16.707  0.00  0.00    +0.000 A 
ATOM      2  C   UNL     1       7.031   5.939  17.199  0.00  0.00    +0.000 A 
ATOM      3  C   UNL     1       7.384   5.724  18.517  0.00  0.00    +0.000 A 
ATOM      4  N   UNL     1       6.668   4.972  19.371  0.00  0.00    +0.000 NA
ATOM      5  C   UNL     1       5.543   4.396  18.914  0.00  0.00    +0.000 A 
ATOM      6  C   UNL     1       4.814   3.620  19.802  0.00  0.00    +0.000 A 
ATOM      7  C   UNL     1       3.628   2.982  19.428  0.00  0.00    +0.000 A 
ATOM      8  C   UNL     1       3.155   3.116  18.132  0.00  0.00    +0.000 A 
ATOM      9  C   UNL     1       3.884   3.883  17.218  0.00  0.00    +0.000 A 
ATOM     10  C   UNL     1       5.082   4.543  17.585  0.00  0.00    +0.000 A 
ENDROOT
BRANCH   8  11
ATOM     11  O   UNL     1       2.010   2.559  17.631  0.00  0.00    +0.000 OA
ATOM     12  C   UNL     1       0.924   2.409  18.539  0.00  0.00    +0.000 C 
ENDBRANCH   8  11
BRANCH   1  13
ATOM     13  C   UNL     1       5.516   5.567  15.246  0.00  0.00    +0.000 C 
BRANCH  13  14
ATOM     14  C   UNL     1       6.484   4.816  14.328  0.00  0.00    +0.000 C 
BRANCH  14  17
ATOM     15  C   UNL     1       6.321   3.425  12.321  0.00  0.00    +0.000 C 
ATOM     16  O   UNL     1       7.285   3.988  11.797  0.00  0.00    +0.000 OA
ATOM     17  N   UNL     1       5.845   3.762  13.566  0.00  0.00    +0.000 N 
ATOM     18  H   UNL     1       5.094   3.221  13.981  0.00  0.00    +0.000 HD
BRANCH  15  19
ATOM     19  C   UNL     1       5.557   2.316  11.628  0.00  0.00    +0.000 C 
BRANCH  19  21
ATOM     20  C   UNL     1       6.175  -0.123  11.336  0.00  0.00    +0.000 C 
ATOM     21  C   UNL     1       6.501   1.316  10.967  0.00  0.00    +0.000 C 
ENDBRANCH  19  21
ENDBRANCH  15  19
ENDBRANCH  14  17
ENDBRANCH  13  14
ENDBRANCH   1  13
TORSDOF 6
ENDMDL
MODEL 3
REMARK VINA RESULT:      -7.1      2.332      3.539
REMARK  Name = 
REMARK  8 active torsions:
REMARK  status: ('A' for Active; 'I' for Inactive)
REMARK    1  A    between atoms: C_1  and  C_2
REMARK    2  A    between atoms: C_2  and  C_3
REMARK    3  A    between atoms: C_3  and  C_4
REMARK    4  A    between atoms: N_6  and  C_7
REMARK    5  A    between atoms: C_7  and  C_8
REMARK    6  A    between atoms: C_8  and  C_9
REMARK    7  A    between atoms: C_16  and  O_17
REMARK    8  A    between atoms: O_17  and  C_18
REMARK                            x       y       z     vdW  Elec       q    Type
REMARK                         _______ _______ _______ _____ _____    ______ ____
ROOT
ATOM      1  C   UNL     1       3.876   4.020  17.618  0.00  0.00    +0.000 A 
ATOM      2  C   UNL     1       3.929   2.622  17.520  0.00  0.00    +0.000 A 
ATOM      3  C   UNL     1       3.229   1.862  18.435  0.00  0.00    +0.000 A 
ATOM      4  N   UNL     1       2.484   2.382  19.427  0.00  0.00    +0.000 NA
ATOM      5  C   UNL     1       2.420   3.720  19.532  0.00  0.00    +0.000 A 
ATOM      6  C   UNL     1       1.647   4.246  20.556  0.00  0.00    +0.000 A 
ATOM      7  C   UNL     1       1.517   5.623  20.756  0.00  0.00    +0.000 A 
ATOM      8  C   UNL     1       2.172   6.505  19.909  0.00  0.00    +0.000 A 
ATOM      9  C   UNL     1       2.945   5.994  18.862  0.00  0.00    +0.000 A 
ATOM     10  C   UNL     1       3.093   4.600  18.653  0.00  0.00    +0.000 A 
ENDROOT
BRANCH   8  11
ATOM     11  O   UNL     1       2.144   7.870  19.990  0.00  0.00    +0.000 OA
ATOM     12  C   UNL     1       1.269   8.433  20.961  0.00  0.00    +0.000 C 
ENDBRANCH   8  11
BRANCH   1  13
ATOM     13  C   UNL     1       4.622   4.831  16.576  0.00  0.00    +0.000 C 
BRANCH  13  14
ATOM     14  C   UNL     1       5.909   4.126  16.138  0.00  0.00    +0.000 C 
BRANCH  14  17
ATOM     15  C   UNL     1       6.838   4.495  13.904  0.00  0.00    +0.000 C 
ATOM     16  O   UNL     1       7.628   5.345  14.324  0.00  0.00    +0.000 OA
ATOM     17  N   UNL     1       5.946   3.837  14.718  0.00  0.00    +0.000 N 
ATOM     18  H   UNL     1       5.368   3.097  14.336  0.00  0.00    +0.000 HD
BRANCH  15  19
ATOM     19  C   UNL     1       6.766   4.109  12.442  0.00  0.00    +0.000 C 
BRANCH  19  21
ATOM     20  C   UNL     1       5.896   1.920  11.511  0.00  0.00    +0.000 C 
ATOM     21  C   UNL     1       5.538   3.253  12.149  0.00  0.00    +0.000 C 
ENDBRANCH  19  21
ENDBRANCH  15  19
ENDBRANCH  14  17
ENDBRANCH  13  14
ENDBRANCH   1  13
TORSDOF 6
ENDMDL
MODEL 4
REMARK VINA RESULT:      -7.0      1.023      1.026
REMARK  Name = 
REMARK  8 active torsions:
REMARK  status: ('A' for Active; 'I' for Inactive)
REMARK    1  A    between atoms: C_1  and  C_2
REMARK    2  A    between atoms: C_2  and  C_3
REMARK    3  A    between atoms: C_3  and  C_4
REMARK    4  A    between atoms: N_6  and  C_7
REMARK    5  A    between atoms: C_7  and  C_8
REMARK    6  A    between atoms: C_8  and  C_9
REMARK    7  A    between atoms: C_16  and  O_17
REMARK    8  A    between atoms: O_17  and  C_18
REMARK                            x       y       z     vdW  Elec       q    Type
REMARK                         _______ _______ _______ _____ _____    ______ ____
ROOT
ATOM      1  C   UNL     1       3.605   3.795  17.613  0.00  0.00    +0.000 A 
ATOM      2  C   UNL     1       3.516   2.434  17.937  0.00  0.00    +0.000 A 
ATOM      3  C   UNL     1       2.843   2.064  19.083  0.00  0.00    +0.000 A 
ATOM      4  N   UNL     1       2.255   2.936  19.922  0.00  0.00    +0.000 NA
ATOM      5  C   UNL     1       2.328   4.244  19.623  0.00  0.00    +0.000 A 
ATOM      6  C   UNL     1       1.716   5.134  20.492  0.00  0.00    +0.000 A 
ATOM      7  C   UNL     1       1.738   6.515  20.276  0.00  0.00    +0.000 A 
ATOM      8  C   UNL     1       2.385   7.026  19.161  0.00  0.00    +0.000 A 
ATOM      9  C   UNL     1       2.996   6.143  18.266  0.00  0.00    +0.000 A 
ATOM     10  C   UNL     1       2.990   4.741  18.476  0.00  0.00    +0.000 A 
ENDROOT
BRANCH   8  11
ATOM     11  O   UNL     1       2.494   8.349  18.829  0.00  0.00    +0.000 OA
ATOM     12  C   UNL     1       1.607   8.829  17.824  0.00  0.00    +0.000 C 
ENDBRANCH   8  11
BRANCH   1  13
ATOM     13  C   UNL     1       4.316   4.171  16.327  0.00  0.00    +0.000 C 
BRANCH  13  14
ATOM     14  C   UNL     1       5.837   4.071  16.481  0.00  0.00    +0.000 C 
BRANCH  14  17
ATOM     15  C   UNL     1       7.264   5.995  16.983  0.00  0.00    +0.000 C 
ATOM     16  O   UNL     1       7.640   6.079  15.811  0.00  0.00    +0.000 OA
ATOM     17  N   UNL     1       6.378   5.037  17.417  0.00  0.00    +0.000 N 
ATOM     18  H   UNL     1       6.048   5.055  18.375  0.00  0.00    +0.000 HD
BRANCH  15  19
ATOM     19  C   UNL     1       7.762   6.934  18.062  0.00  0.00    +0.000 C 
BRANCH  19  21
ATOM     20  C   UNL     1       8.603   9.292  18.446  0.00  0.00    +0.000 C 
ATOM     21  C   UNL     1       7.722   8.387  17.599  0.00  0.00    +0.000 C 
ENDBRANCH  19  21
ENDBRANCH  15  19
ENDBRANCH  14  17
ENDBRANCH  13  14
ENDBRANCH   1  13
TORSDOF 6
ENDMDL
MODEL 5
REMARK VINA RESULT:      -7.0      2.541      3.738
REMARK  Name = 
REMARK  8 active torsions:
REMARK  status: ('A' for Active; 'I' for Inactive)
REMARK    1  A    between atoms: C_1  and  C_2
REMARK    2  A    between atoms: C_2  and  C_3
REMARK    3  A    between atoms: C_3  and  C_4
REMARK    4  A    between atoms: N_6  and  C_7
REMARK    5  A    between atoms: C_7  and  C_8
REMARK    6  A    between atoms: C_8  and  C_9
REMARK    7  A    between atoms: C_16  and  O_17
REMARK    8  A    between atoms: O_17  and  C_18
REMARK                            x       y       z     vdW  Elec       q    Type
REMARK                         _______ _______ _______ _____ _____    ______ ____
ROOT
ATOM      1  C   UNL     1       4.235   4.584  17.523  0.00  0.00    +0.000 A 
ATOM      2  C   UNL     1       4.387   3.297  18.058  0.00  0.00    +0.000 A 
ATOM      3  C   UNL     1       3.821   3.014  19.285  0.00  0.00    +0.000 A 
ATOM      4  N   UNL     1       3.120   3.904  20.010  0.00  0.00    +0.000 NA
ATOM      5  C   UNL     1       2.963   5.141  19.509  0.00  0.00    +0.000 A 
ATOM      6  C   UNL     1       2.236   6.049  20.263  0.00  0.00    +0.000 A 
ATOM      7  C   UNL     1       2.019   7.362  19.836  0.00  0.00    +0.000 A 
ATOM      8  C   UNL     1       2.535   7.783  18.619  0.00  0.00    +0.000 A 
ATOM      9  C   UNL     1       3.259   6.877  17.838  0.00  0.00    +0.000 A 
ATOM     10  C   UNL     1       3.495   5.546  18.263  0.00  0.00    +0.000 A 
ENDROOT
BRANCH   8  11
ATOM     11  O   UNL     1       2.410   9.034  18.081  0.00  0.00    +0.000 OA
ATOM     12  C   UNL     1       1.099   9.586  18.049  0.00  0.00    +0.000 C 
ENDBRANCH   8  11
BRANCH   1  13
ATOM     13  C   UNL     1       4.833   4.856  16.156  0.00  0.00    +0.000 C 
BRANCH  13  14
ATOM     14  C   UNL     1       5.997   3.907  15.858  0.00  0.00    +0.000 C 
BRANCH  14  17
ATOM     15  C   UNL     1       6.746   4.256  13.554  0.00  0.00    +0.000 C 
ATOM     16  O   UNL     1       7.332   5.299  13.855  0.00  0.00    +0.000 OA
ATOM     17  N   UNL     1       6.055   3.496  14.469  0.00  0.00    +0.000 N 
ATOM     18  H   UNL     1       5.651   2.611  14.184  0.00  0.00    +0.000 HD
BRANCH  15  19
ATOM     19  C   UNL     1       6.720   3.722  12.137  0.00  0.00    +0.000 C 
BRANCH  19  21
ATOM     20  C   UNL     1       4.352   3.275  11.358  0.00  0.00    +0.000 C 
ATOM     21  C   UNL     1       5.619   2.682  11.952  0.00  0.00    +0.000 C 
ENDBRANCH  19  21
ENDBRANCH  15  19
ENDBRANCH  14  17
ENDBRANCH  13  14
ENDBRANCH   1  13
TORSDOF 6
ENDMDL
MODEL 6
REMARK VINA RESULT:      -6.9      3.019      6.799
REMARK  Name = 
REMARK  8 active torsions:
REMARK  status: ('A' for Active; 'I' for Inactive)
REMARK    1  A    between atoms: C_1  and  C_2
REMARK    2  A    between atoms: C_2  and  C_3
REMARK    3  A    between atoms: C_3  and  C_4
REMARK    4  A    between atoms: N_6  and  C_7
REMARK    5  A    between atoms: C_7  and  C_8
REMARK    6  A    between atoms: C_8  and  C_9
REMARK    7  A    between atoms: C_16  and  O_17
REMARK    8  A    between atoms: O_17  and  C_18
REMARK                            x       y       z     vdW  Elec       q    Type
REMARK                         _______ _______ _______ _____ _____    ______ ____
ROOT
ATOM      1  C   UNL     1       5.221   4.474  16.056  0.00  0.00    +0.000 A 
ATOM      2  C   UNL     1       5.878   5.282  16.995  0.00  0.00    +0.000 A 
ATOM      3  C   UNL     1       7.052   5.909  16.630  0.00  0.00    +0.000 A 
ATOM      4  N   UNL     1       7.615   5.797  15.413  0.00  0.00    +0.000 NA
ATOM      5  C   UNL     1       6.995   5.030  14.501  0.00  0.00    +0.000 A 
ATOM      6  C   UNL     1       7.581   4.924  13.248  0.00  0.00    +0.000 A 
ATOM      7  C   UNL     1       7.020   4.148  12.230  0.00  0.00    +0.000 A 
ATOM      8  C   UNL     1       5.839   3.459  12.462  0.00  0.00    +0.000 A 
ATOM      9  C   UNL     1       5.226   3.565  13.715  0.00  0.00    +0.000 A 
ATOM     10  C   UNL     1       5.787   4.340  14.759  0.00  0.00    +0.000 A 
ENDROOT
BRANCH   8  11
ATOM     11  O   UNL     1       5.184   2.659  11.567  0.00  0.00    +0.000 OA
ATOM     12  C   UNL     1       3.924   3.125  11.097  0.00  0.00    +0.000 C 
ENDBRANCH   8  11
BRANCH   1  13
ATOM     13  C   UNL     1       3.912   3.830  16.470  0.00  0.00    +0.000 C 
BRANCH  13  14
ATOM     14  C   UNL     1       4.004   3.240  17.881  0.00  0.00    +0.000 C 
BRANCH  14  17
ATOM     15  C   UNL     1       2.895   4.536  19.636  0.00  0.00    +0.000 C 
ATOM     16  O   UNL     1       3.904   5.217  19.833  0.00  0.00    +0.000 OA
ATOM     17  N   UNL     1       2.842   3.533  18.697  0.00  0.00    +0.000 N 
ATOM     18  H   UNL     1       1.967   3.050  18.526  0.00  0.00    +0.000 HD
BRANCH  15  19
ATOM     19  C   UNL     1       1.619   4.732  20.428  0.00  0.00    +0.000 C 
BRANCH  19  21
ATOM     20  C   UNL     1       1.645   2.600  21.795  0.00  0.00    +0.000 C 
ATOM     21  C   UNL     1       0.931   3.401  20.718  0.00  0.00    +0.000 C 
ENDBRANCH  19  21
ENDBRANCH  15  19
ENDBRANCH  14  17
ENDBRANCH  13  14
ENDBRANCH   1  13
TORSDOF 6
ENDMDL
MODEL 7
REMARK VINA RESULT:      -6.9      2.911      4.657
REMARK  Name = 
REMARK  8 active torsions:
REMARK  status: ('A' for Active; 'I' for Inactive)
REMARK    1  A    between atoms: C_1  and  C_2
REMARK    2  A    between atoms: C_2  and  C_3
REMARK    3  A    between atoms: C_3  and  C_4
REMARK    4  A    between atoms: N_6  and  C_7
REMARK    5  A    between atoms: C_7  and  C_8
REMARK    6  A    between atoms: C_8  and  C_9
REMARK    7  A    between atoms: C_16  and  O_17
REMARK    8  A    between atoms: O_17  and  C_18
REMARK                            x       y       z     vdW  Elec       q    Type
REMARK                         _______ _______ _______ _____ _____    ______ ____
ROOT
ATOM      1  C   UNL     1       4.241   5.086  17.138  0.00  0.00    +0.000 A 
ATOM      2  C   UNL     1       4.732   6.260  16.549  0.00  0.00    +0.000 A 
ATOM      3  C   UNL     1       4.341   7.479  17.065  0.00  0.00    +0.000 A 
ATOM      4  N   UNL     1       3.509   7.617  18.113  0.00  0.00    +0.000 NA
ATOM      5  C   UNL     1       3.032   6.501  18.690  0.00  0.00    +0.000 A 
ATOM      6  C   UNL     1       2.179   6.655  19.772  0.00  0.00    +0.000 A 
ATOM      7  C   UNL     1       1.624   5.560  20.440  0.00  0.00    +0.000 A 
ATOM      8  C   UNL     1       1.931   4.273  20.024  0.00  0.00    +0.000 A 
ATOM      9  C   UNL     1       2.802   4.098  18.944  0.00  0.00    +0.000 A 
ATOM     10  C   UNL     1       3.364   5.199  18.251  0.00  0.00    +0.000 A 
ENDROOT
BRANCH   8  11
ATOM     11  O   UNL     1       1.458   3.114  20.575  0.00  0.00    +0.000 OA
ATOM     12  C   UNL     1       2.208   2.568  21.654  0.00  0.00    +0.000 C 
ENDBRANCH   8  11
BRANCH   1  13
ATOM     13  C   UNL     1       4.719   3.760  16.577  0.00  0.00    +0.000 C 
BRANCH  13  14
ATOM     14  C   UNL     1       6.124   3.881  15.981  0.00  0.00    +0.000 C 
BRANCH  14  17
ATOM     15  C   UNL     1       6.730   4.355  13.658  0.00  0.00    +0.000 C 
ATOM     16  O   UNL     1       7.176   5.467  13.953  0.00  0.00    +0.000 OA
ATOM     17  N   UNL     1       6.186   3.497  14.585  0.00  0.00    +0.000 N 
ATOM     18  H   UNL     1       5.898   2.567  14.302  0.00  0.00    +0.000 HD
BRANCH  15  19
ATOM     19  C   UNL     1       6.724   3.837  12.235  0.00  0.00    +0.000 C 
BRANCH  19  21
ATOM     20  C   UNL     1       4.362   3.343  11.463  0.00  0.00    +0.000 C 
ATOM     21  C   UNL     1       5.651   2.771  12.032  0.00  0.00    +0.000 C 
ENDBRANCH  19  21
ENDBRANCH  15  19
ENDBRANCH  14  17
ENDBRANCH  13  14
ENDBRANCH   1  13
TORSDOF 6
ENDMDL
MODEL 8
REMARK VINA RESULT:      -6.8      0.958      1.090
REMARK  Name = 
REMARK  8 active torsions:
REMARK  status: ('A' for Active; 'I' for Inactive)
REMARK    1  A    between atoms: C_1  and  C_2
REMARK    2  A    between atoms: C_2  and  C_3
REMARK    3  A    between atoms: C_3  and  C_4
REMARK    4  A    between atoms: N_6  and  C_7
REMARK    5  A    between atoms: C_7  and  C_8
REMARK    6  A    between atoms: C_8  and  C_9
REMARK    7  A    between atoms: C_16  and  O_17
REMARK    8  A    between atoms: O_17  and  C_18
REMARK                            x       y       z     vdW  Elec       q    Type
REMARK                         _______ _______ _______ _____ _____    ______ ____
ROOT
ATOM      1  C   UNL     1       3.783   4.003  17.622  0.00  0.00    +0.000 A 
ATOM      2  C   UNL     1       3.786   2.621  17.388  0.00  0.00    +0.000 A 
ATOM      3  C   UNL     1       2.984   1.811  18.167  0.00  0.00    +0.000 A 
ATOM      4  N   UNL     1       2.186   2.267  19.148  0.00  0.00    +0.000 NA
ATOM      5  C   UNL     1       2.169   3.590  19.383  0.00  0.00    +0.000 A 
ATOM      6  C   UNL     1       1.341   4.050  20.395  0.00  0.00    +0.000 A 
ATOM      7  C   UNL     1       1.253   5.406  20.722  0.00  0.00    +0.000 A 
ATOM      8  C   UNL     1       2.009   6.333  20.020  0.00  0.00    +0.000 A 
ATOM      9  C   UNL     1       2.840   5.889  18.986  0.00  0.00    +0.000 A 
ATOM     10  C   UNL     1       2.946   4.517  18.649  0.00  0.00    +0.000 A 
ENDROOT
BRANCH   8  11
ATOM     11  O   UNL     1       2.031   7.684  20.235  0.00  0.00    +0.000 OA
ATOM     12  C   UNL     1       1.241   8.169  21.315  0.00  0.00    +0.000 C 
ENDBRANCH   8  11
BRANCH   1  13
ATOM     13  C   UNL     1       4.642   4.874  16.725  0.00  0.00    +0.000 C 
BRANCH  13  14
ATOM     14  C   UNL     1       6.132   4.585  16.930  0.00  0.00    +0.000 C 
BRANCH  14  17
ATOM     15  C   UNL     1       7.483   5.882  18.505  0.00  0.00    +0.000 C 
ATOM     16  O   UNL     1       7.382   5.015  19.376  0.00  0.00    +0.000 OA
ATOM     17  N   UNL     1       6.900   5.767  17.264  0.00  0.00    +0.000 N 
ATOM     18  H   UNL     1       7.073   6.476  16.560  0.00  0.00    +0.000 HD
BRANCH  15  19
ATOM     19  C   UNL     1       8.248   7.170  18.730  0.00  0.00    +0.000 C 
BRANCH  19  21
ATOM     20  C   UNL     1       8.478   9.586  18.006  0.00  0.00    +0.000 C 
ATOM     21  C   UNL     1       7.895   8.220  17.681  0.00  0.00    +0.000 C 
ENDBRANCH  19  21
ENDBRANCH  15  19
ENDBRANCH  14  17
ENDBRANCH  13  14
ENDBRANCH   1  13
TORSDOF 6
ENDMDL
MODEL 9
REMARK VINA RESULT:      -6.7      1.173      1.566
REMARK  Name = 
REMARK  8 active torsions:
REMARK  status: ('A' for Active; 'I' for Inactive)
REMARK    1  A    between atoms: C_1  and  C_2
REMARK    2  A    between atoms: C_2  and  C_3
REMARK    3  A    between atoms: C_3  and  C_4
REMARK    4  A    between atoms: N_6  and  C_7
REMARK    5  A    between atoms: C_7  and  C_8
REMARK    6  A    between atoms: C_8  and  C_9
REMARK    7  A    between atoms: C_16  and  O_17
REMARK    8  A    between atoms: O_17  and  C_18
REMARK                            x       y       z     vdW  Elec       q    Type
REMARK                         _______ _______ _______ _____ _____    ______ ____
ROOT
ATOM      1  C   UNL     1       2.648   3.829  18.579  0.00  0.00    +0.000 A 
ATOM      2  C   UNL     1       2.451   2.788  19.497  0.00  0.00    +0.000 A 
ATOM      3  C   UNL     1       2.038   3.096  20.778  0.00  0.00    +0.000 A 
ATOM      4  N   UNL     1       1.805   4.349  21.209  0.00  0.00    +0.000 NA
ATOM      5  C   UNL     1       1.986   5.358  20.340  0.00  0.00    +0.000 A 
ATOM      6  C   UNL     1       1.740   6.645  20.793  0.00  0.00    +0.000 A 
ATOM      7  C   UNL     1       1.902   7.764  19.972  0.00  0.00    +0.000 A 
ATOM      8  C   UNL     1       2.317   7.599  18.659  0.00  0.00    +0.000 A 
ATOM      9  C   UNL     1       2.556   6.307  18.180  0.00  0.00    +0.000 A 
ATOM     10  C   UNL     1       2.405   5.164  19.003  0.00  0.00    +0.000 A 
ENDROOT
BRANCH   8  11
ATOM     11  O   UNL     1       2.525   8.598  17.749  0.00  0.00    +0.000 OA
ATOM     12  C   UNL     1       1.847   9.827  17.985  0.00  0.00    +0.000 C 
ENDBRANCH   8  11
BRANCH   1  13
ATOM     13  C   UNL     1       3.063   3.459  17.168  0.00  0.00    +0.000 C 
BRANCH  13  14
ATOM     14  C   UNL     1       4.580   3.280  17.063  0.00  0.00    +0.000 C 
BRANCH  14  17
ATOM     15  C   UNL     1       6.147   5.086  17.584  0.00  0.00    +0.000 C 
ATOM     16  O   UNL     1       6.378   4.624  18.705  0.00  0.00    +0.000 OA
ATOM     17  N   UNL     1       5.274   4.499  16.699  0.00  0.00    +0.000 N 
ATOM     18  H   UNL     1       5.174   4.880  15.765  0.00  0.00    +0.000 HD
BRANCH  15  19
ATOM     19  C   UNL     1       6.797   6.359  17.085  0.00  0.00    +0.000 C 
BRANCH  19  21
ATOM     20  C   UNL     1       8.057   8.411  17.874  0.00  0.00    +0.000 C 
ATOM     21  C   UNL     1       7.755   6.941  18.121  0.00  0.00    +0.000 C 
ENDBRANCH  19  21
ENDBRANCH  15  19
ENDBRANCH  14  17
ENDBRANCH  13  14
ENDBRANCH   1  13
TORSDOF 6
ENDMDL
