MODEL 1
REMARK VINA RESULT:      -7.8      0.000      0.000
REMARK  Name = 
REMARK  10 active torsions:
REMARK  status: ('A' for Active; 'I' for Inactive)
REMARK    1  A    between atoms: C_2  and  O_3
REMARK    2  A    between atoms: C_2  and  C_4
REMARK    3  A    between atoms: C_4  and  C_5
REMARK    4  A    between atoms: C_5  and  C_6
REMARK    5  A    between atoms: C_6  and  C_22
REMARK    6  A    between atoms: N_7  and  N_8
REMARK    7  A    between atoms: C_9  and  C_11
REMARK    8  A    between atoms: C_11  and  N_12
REMARK    9  A    between atoms: C_13  and  C_15
REMARK   10  A    between atoms: C_15  and  C_16
REMARK                            x       y       z     vdW  Elec       q    Type
REMARK                         _______ _______ _______ _____ _____    ______ ____
ROOT
ATOM      1  N   UNL     1       3.753   3.762  18.017  0.00  0.00    +0.000 N 
ATOM      2  C   UNL     1       3.465   2.562  18.663  0.00  0.00    +0.000 C 
ATOM      3  O   UNL     1       3.439   1.456  18.129  0.00  0.00    +0.000 OA
ATOM      4  H   UNL     1       3.874   4.617  18.556  0.00  0.00    +0.000 HD
ENDROOT
BRANCH   1   6
ATOM      5  C   UNL     1       4.968   4.495  16.153  0.00  0.00    +0.000 C 
ATOM      6  N   UNL     1       4.019   3.767  16.678  0.00  0.00    +0.000 NA
BRANCH   5   7
ATOM      7  C   UNL     1       6.046   5.276  16.862  0.00  0.00    +0.000 A 
ATOM      8  C   UNL     1       6.927   4.693  17.779  0.00  0.00    +0.000 A 
ATOM      9  C   UNL     1       7.803   5.488  18.538  0.00  0.00    +0.000 A 
ATOM     10  C   UNL     1       7.823   6.869  18.383  0.00  0.00    +0.000 A 
ATOM     11  C   UNL     1       6.980   7.454  17.456  0.00  0.00    +0.000 A 
ATOM     12  C   UNL     1       6.091   6.657  16.725  0.00  0.00    +0.000 A 
ENDBRANCH   5   7
BRANCH   5  13
ATOM     13  C   UNL     1       5.091   4.458  14.627  0.00  0.00    +0.000 C 
BRANCH  13  14
ATOM     14  C   UNL     1       6.460   4.024  14.114  0.00  0.00    +0.000 C 
BRANCH  14  16
ATOM     15  O   UNL     1       5.600   2.900  12.144  0.00  0.00    +0.000 OA
ATOM     16  C   UNL     1       6.398   3.670  12.650  0.00  0.00    +0.000 C 
BRANCH  16  17
ATOM     17  O   UNL     1       7.351   4.305  11.927  0.00  0.00    +0.000 OA
ATOM     18  H   UNL     1       7.082   4.472  11.003  0.00  0.00    +0.000 HD
ENDBRANCH  16  17
ENDBRANCH  14  16
ENDBRANCH  13  14
ENDBRANCH   5  13
ENDBRANCH   1   6
BRANCH   2  19
ATOM     19  C   UNL     1       3.312   2.711  20.186  0.00  0.00    +0.000 C 
BRANCH  19  20
ATOM     20  N   UNL     1       3.135   4.103  20.593  0.00  0.00    +0.000 N 
ATOM     21  C   UNL     1       1.927   4.746  20.450  0.00  0.00    +0.000 C 
ATOM     22  O   UNL     1       0.939   4.171  19.992  0.00  0.00    +0.000 OA
ATOM     23  H   UNL     1       3.962   4.642  20.816  0.00  0.00    +0.000 HD
BRANCH  21  24
ATOM     24  C   UNL     1       1.887   6.206  20.902  0.00  0.00    +0.000 C 
BRANCH  24  25
ATOM     25  C   UNL     1       1.908   7.258  19.810  0.00  0.00    +0.000 A 
ATOM     26  C   UNL     1       1.311   8.505  19.987  0.00  0.00    +0.000 A 
ATOM     27  C   UNL     1       1.381   9.531  19.050  0.00  0.00    +0.000 A 
ATOM     28  C   UNL     1       2.083   9.321  17.878  0.00  0.00    +0.000 A 
ATOM     29  C   UNL     1       2.709   8.092  17.670  0.00  0.00    +0.000 A 
ATOM     30  C   UNL     1       2.631   7.072  18.630  0.00  0.00    +0.000 A 
ENDBRANCH  24  25
ENDBRANCH  21  24
ENDBRANCH  19  20
ENDBRANCH   2  19
TORSDOF 10
ENDMDL
MODEL 2
REMARK VINA RESULT:      -7.7      0.693      1.181
REMARK  Name = 
REMARK  10 active torsions:
REMARK  status: ('A' for Active; 'I' for Inactive)
REMARK    1  A    between atoms: C_2  and  O_3
REMARK    2  A    between atoms: C_2  and  C_4
REMARK    3  A    between atoms: C_4  and  C_5
REMARK    4  A    between atoms: C_5  and  C_6
REMARK    5  A    between atoms: C_6  and  C_22
REMARK    6  A    between atoms: N_7  and  N_8
REMARK    7  A    between atoms: C_9  and  C_11
REMARK    8  A    between atoms: C_11  and  N_12
REMARK    9  A    between atoms: C_13  and  C_15
REMARK   10  A    between atoms: C_15  and  C_16
REMARK                            x       y       z     vdW  Elec       q    Type
REMARK                         _______ _______ _______ _____ _____    ______ ____
ROOT
ATOM      1  N   UNL     1       4.571   3.453  17.832  0.00  0.00    +0.000 N 
ATOM      2  C   UNL     1       3.860   2.349  18.296  0.00  0.00    +0.000 C 
ATOM      3  O   UNL     1       3.662   1.315  17.663  0.00  0.00    +0.000 OA
ATOM      4  H   UNL     1       4.794   4.221  18.464  0.00  0.00    +0.000 HD
ENDROOT
BRANCH   1   6
ATOM      5  C   UNL     1       6.042   4.265  16.200  0.00  0.00    +0.000 C 
ATOM      6  N   UNL     1       5.097   3.444  16.573  0.00  0.00    +0.000 NA
BRANCH   5   7
ATOM      7  C   UNL     1       6.860   5.198  17.058  0.00  0.00    +0.000 A 
ATOM      8  C   UNL     1       7.482   4.791  18.242  0.00  0.00    +0.000 A 
ATOM      9  C   UNL     1       8.091   5.729  19.093  0.00  0.00    +0.000 A 
ATOM     10  C   UNL     1       8.101   7.081  18.767  0.00  0.00    +0.000 A 
ATOM     11  C   UNL     1       7.519   7.491  17.582  0.00  0.00    +0.000 A 
ATOM     12  C   UNL     1       6.890   6.553  16.756  0.00  0.00    +0.000 A 
ENDBRANCH   5   7
BRANCH   5  13
ATOM     13  C   UNL     1       6.472   4.189  14.732  0.00  0.00    +0.000 C 
BRANCH  13  14
ATOM     14  C   UNL     1       5.330   3.941  13.752  0.00  0.00    +0.000 C 
BRANCH  14  16
ATOM     15  O   UNL     1       5.321   2.528  11.779  0.00  0.00    +0.000 OA
ATOM     16  C   UNL     1       5.852   3.401  12.445  0.00  0.00    +0.000 C 
BRANCH  16  17
ATOM     17  O   UNL     1       7.011   3.994  12.070  0.00  0.00    +0.000 OA
ATOM     18  H   UNL     1       6.941   4.966  12.006  0.00  0.00    +0.000 HD
ENDBRANCH  16  17
ENDBRANCH  14  16
ENDBRANCH  13  14
ENDBRANCH   5  13
ENDBRANCH   1   6
BRANCH   2  19
ATOM     19  C   UNL     1       3.442   2.470  19.771  0.00  0.00    +0.000 C 
BRANCH  19  20
ATOM     20  N   UNL     1       3.272   3.859  20.189  0.00  0.00    +0.000 N 
ATOM     21  C   UNL     1       2.024   4.417  20.340  0.00  0.00    +0.000 C 
ATOM     22  O   UNL     1       0.996   3.765  20.150  0.00  0.00    +0.000 OA
ATOM     23  H   UNL     1       4.088   4.458  20.192  0.00  0.00    +0.000 HD
BRANCH  21  24
ATOM     24  C   UNL     1       1.992   5.885  20.767  0.00  0.00    +0.000 C 
BRANCH  24  25
ATOM     25  C   UNL     1       2.256   6.915  19.686  0.00  0.00    +0.000 A 
ATOM     26  C   UNL     1       3.098   6.643  18.610  0.00  0.00    +0.000 A 
ATOM     27  C   UNL     1       3.302   7.523  17.551  0.00  0.00    +0.000 A 
ATOM     28  C   UNL     1       2.633   8.733  17.548  0.00  0.00    +0.000 A 
ATOM     29  C   UNL     1       1.769   9.037  18.600  0.00  0.00    +0.000 A 
ATOM     30  C   UNL     1       1.574   8.133  19.656  0.00  0.00    +0.000 A 
ENDBRANCH  24  25
ENDBRANCH  21  24
ENDBRANCH  19  20
ENDBRANCH   2  19
TORSDOF 10
ENDMDL
MODEL 3
REMARK VINA RESULT:      -7.7      2.975      4.880
REMARK  Name = 
REMARK  10 active torsions:
REMARK  status: ('A' for Active; 'I' for Inactive)
REMARK    1  A    between atoms: C_2  and  O_3
REMARK    2  A    between atoms: C_2  and  C_4
REMARK    3  A    between atoms: C_4  and  C_5
REMARK    4  A    between atoms: C_5  and  C_6
REMARK    5  A    between atoms: C_6  and  C_22
REMARK    6  A    between atoms: N_7  and  N_8
REMARK    7  A    between atoms: C_9  and  C_11
REMARK    8  A    between atoms: C_11  and  N_12
REMARK    9  A    between atoms: C_13  and  C_15
REMARK   10  A    between atoms: C_15  and  C_16
REMARK                            x       y       z     vdW  Elec       q    Type
REMARK                         _______ _______ _______ _____ _____    ______ ____
ROOT
ATOM      1  N   UNL     1       2.350   6.484  18.750  0.00  0.00    +0.000 N 
ATOM      2  C   UNL     1       1.937   6.523  20.080  0.00  0.00    +0.000 C 
ATOM      3  O   UNL     1       1.771   5.542  20.801  0.00  0.00    +0.000 OA
ATOM      4  H   UNL     1       2.581   7.347  18.260  0.00  0.00    +0.000 HD
ENDROOT
BRANCH   1   6
ATOM      5  C   UNL     1       3.776   4.924  17.740  0.00  0.00    +0.000 C 
ATOM      6  N   UNL     1       2.588   5.283  18.146  0.00  0.00    +0.000 NA
BRANCH   5   7
ATOM      7  C   UNL     1       5.098   5.599  18.009  0.00  0.00    +0.000 A 
ATOM      8  C   UNL     1       5.634   6.580  17.168  0.00  0.00    +0.000 A 
ATOM      9  C   UNL     1       6.939   7.060  17.365  0.00  0.00    +0.000 A 
ATOM     10  C   UNL     1       7.722   6.581  18.410  0.00  0.00    +0.000 A 
ATOM     11  C   UNL     1       7.191   5.636  19.268  0.00  0.00    +0.000 A 
ATOM     12  C   UNL     1       5.899   5.143  19.046  0.00  0.00    +0.000 A 
ENDBRANCH   5   7
BRANCH   5  13
ATOM     13  C   UNL     1       3.870   3.583  17.006  0.00  0.00    +0.000 C 
BRANCH  13  14
ATOM     14  C   UNL     1       2.967   2.490  17.570  0.00  0.00    +0.000 C 
BRANCH  14  16
ATOM     15  O   UNL     1       3.507   2.230  19.921  0.00  0.00    +0.000 OA
ATOM     16  C   UNL     1       3.601   1.837  18.771  0.00  0.00    +0.000 C 
BRANCH  16  17
ATOM     17  O   UNL     1       4.317   0.736  18.439  0.00  0.00    +0.000 OA
ATOM     18  H   UNL     1       4.187  -0.007  19.059  0.00  0.00    +0.000 HD
ENDBRANCH  16  17
ENDBRANCH  14  16
ENDBRANCH  13  14
ENDBRANCH   5  13
ENDBRANCH   1   6
BRANCH   2  19
ATOM     19  C   UNL     1       1.833   7.950  20.644  0.00  0.00    +0.000 C 
BRANCH  19  20
ATOM     20  N   UNL     1       1.409   8.917  19.635  0.00  0.00    +0.000 N 
ATOM     21  C   UNL     1       0.343   9.758  19.848  0.00  0.00    +0.000 C 
ATOM     22  O   UNL     1      -0.289   9.748  20.905  0.00  0.00    +0.000 OA
ATOM     23  H   UNL     1       1.800   8.835  18.704  0.00  0.00    +0.000 HD
BRANCH  21  24
ATOM     24  C   UNL     1      -0.001  10.710  18.701  0.00  0.00    +0.000 C 
BRANCH  24  25
ATOM     25  C   UNL     1      -1.427  10.670  18.187  0.00  0.00    +0.000 A 
ATOM     26  C   UNL     1      -2.407  11.525  18.687  0.00  0.00    +0.000 A 
ATOM     27  C   UNL     1      -3.704  11.585  18.186  0.00  0.00    +0.000 A 
ATOM     28  C   UNL     1      -4.052  10.763  17.130  0.00  0.00    +0.000 A 
ATOM     29  C   UNL     1      -3.095   9.904  16.590  0.00  0.00    +0.000 A 
ATOM     30  C   UNL     1      -1.791   9.863  17.107  0.00  0.00    +0.000 A 
ENDBRANCH  24  25
ENDBRANCH  21  24
ENDBRANCH  19  20
ENDBRANCH   2  19
TORSDOF 10
ENDMDL
MODEL 4
REMARK VINA RESULT:      -7.6      0.983      1.735
REMARK  Name = 
REMARK  10 active torsions:
REMARK  status: ('A' for Active; 'I' for Inactive)
REMARK    1  A    between atoms: C_2  and  O_3
REMARK    2  A    between atoms: C_2  and  C_4
REMARK    3  A    between atoms: C_4  and  C_5
REMARK    4  A    between atoms: C_5  and  C_6
REMARK    5  A    between atoms: C_6  and  C_22
REMARK    6  A    between atoms: N_7  and  N_8
REMARK    7  A    between atoms: C_9  and  C_11
REMARK    8  A    between atoms: C_11  and  N_12
REMARK    9  A    between atoms: C_13  and  C_15
REMARK   10  A    between atoms: C_15  and  C_16
REMARK                            x       y       z     vdW  Elec       q    Type
REMARK                         _______ _______ _______ _____ _____    ______ ____
ROOT
ATOM      1  N   UNL     1       4.037   3.752  17.511  0.00  0.00    +0.000 N 
ATOM      2  C   UNL     1       2.887   2.983  17.675  0.00  0.00    +0.000 C 
ATOM      3  O   UNL     1       2.323   2.351  16.785  0.00  0.00    +0.000 OA
ATOM      4  H   UNL     1       4.511   4.144  18.322  0.00  0.00    +0.000 HD
ENDROOT
BRANCH   1   6
ATOM      5  C   UNL     1       5.580   4.700  16.026  0.00  0.00    +0.000 C 
ATOM      6  N   UNL     1       4.613   3.860  16.278  0.00  0.00    +0.000 NA
BRANCH   5   7
ATOM      7  C   UNL     1       6.372   5.533  17.004  0.00  0.00    +0.000 A 
ATOM      8  C   UNL     1       6.527   6.916  16.871  0.00  0.00    +0.000 A 
ATOM      9  C   UNL     1       7.408   7.624  17.707  0.00  0.00    +0.000 A 
ATOM     10  C   UNL     1       8.132   6.966  18.694  0.00  0.00    +0.000 A 
ATOM     11  C   UNL     1       7.961   5.603  18.858  0.00  0.00    +0.000 A 
ATOM     12  C   UNL     1       7.104   4.903  18.001  0.00  0.00    +0.000 A 
ENDBRANCH   5   7
BRANCH   5  13
ATOM     13  C   UNL     1       6.068   4.764  14.575  0.00  0.00    +0.000 C 
BRANCH  13  14
ATOM     14  C   UNL     1       5.369   3.791  13.631  0.00  0.00    +0.000 C 
BRANCH  14  16
ATOM     15  O   UNL     1       7.117   4.168  11.990  0.00  0.00    +0.000 OA
ATOM     16  C   UNL     1       6.259   3.443  12.465  0.00  0.00    +0.000 C 
BRANCH  16  17
ATOM     17  O   UNL     1       6.001   2.208  11.973  0.00  0.00    +0.000 OA
ATOM     18  H   UNL     1       6.473   1.499  12.451  0.00  0.00    +0.000 HD
ENDBRANCH  16  17
ENDBRANCH  14  16
ENDBRANCH  13  14
ENDBRANCH   5  13
ENDBRANCH   1   6
BRANCH   2  19
ATOM     19  C   UNL     1       2.438   2.865  19.141  0.00  0.00    +0.000 C 
BRANCH  19  20
ATOM     20  N   UNL     1       1.850   4.104  19.643  0.00  0.00    +0.000 N 
ATOM     21  C   UNL     1       2.626   5.096  20.195  0.00  0.00    +0.000 C 
ATOM     22  O   UNL     1       3.851   4.993  20.271  0.00  0.00    +0.000 OA
ATOM     23  H   UNL     1       0.843   4.146  19.743  0.00  0.00    +0.000 HD
BRANCH  21  24
ATOM     24  C   UNL     1       1.878   6.333  20.695  0.00  0.00    +0.000 C 
BRANCH  24  25
ATOM     25  C   UNL     1       1.886   7.548  19.787  0.00  0.00    +0.000 A 
ATOM     26  C   UNL     1       2.490   7.516  18.532  0.00  0.00    +0.000 A 
ATOM     27  C   UNL     1       2.447   8.575  17.630  0.00  0.00    +0.000 A 
ATOM     28  C   UNL     1       1.765   9.725  17.981  0.00  0.00    +0.000 A 
ATOM     29  C   UNL     1       1.133   9.791  19.223  0.00  0.00    +0.000 A 
ATOM     30  C   UNL     1       1.184   8.709  20.115  0.00  0.00    +0.000 A 
ENDBRANCH  24  25
ENDBRANCH  21  24
ENDBRANCH  19  20
ENDBRANCH   2  19
TORSDOF 10
ENDMDL
MODEL 5
REMARK VINA RESULT:      -7.5      4.492      7.309
REMARK  Name = 
REMARK  10 active torsions:
REMARK  status: ('A' for Active; 'I' for Inactive)
REMARK    1  A    between atoms: C_2  and  O_3
REMARK    2  A    between atoms: C_2  and  C_4
REMARK    3  A    between atoms: C_4  and  C_5
REMARK    4  A    between atoms: C_5  and  C_6
REMARK    5  A    between atoms: C_6  and  C_22
REMARK    6  A    between atoms: N_7  and  N_8
REMARK    7  A    between atoms: C_9  and  C_11
REMARK    8  A    between atoms: C_11  and  N_12
REMARK    9  A    between atoms: C_13  and  C_15
REMARK   10  A    between atoms: C_15  and  C_16
REMARK                            x       y       z     vdW  Elec       q    Type
REMARK                         _______ _______ _______ _____ _____    ______ ____
ROOT
ATOM      1  N   UNL     1       6.529   5.880  18.456  0.00  0.00    +0.000 N 
ATOM      2  C   UNL     1       7.420   6.628  17.690  0.00  0.00    +0.000 C 
ATOM      3  O   UNL     1       7.510   6.587  16.465  0.00  0.00    +0.000 OA
ATOM      4  H   UNL     1       6.433   6.062  19.454  0.00  0.00    +0.000 HD
ENDROOT
BRANCH   1   6
ATOM      5  C   UNL     1       4.382   5.150  17.872  0.00  0.00    +0.000 C 
ATOM      6  N   UNL     1       5.679   5.002  17.848  0.00  0.00    +0.000 NA
BRANCH   5   7
ATOM      7  C   UNL     1       3.586   6.339  18.352  0.00  0.00    +0.000 A 
ATOM      8  C   UNL     1       2.913   6.357  19.577  0.00  0.00    +0.000 A 
ATOM      9  C   UNL     1       2.051   7.416  19.908  0.00  0.00    +0.000 A 
ATOM     10  C   UNL     1       1.861   8.477  19.030  0.00  0.00    +0.000 A 
ATOM     11  C   UNL     1       2.547   8.487  17.829  0.00  0.00    +0.000 A 
ATOM     12  C   UNL     1       3.381   7.414  17.497  0.00  0.00    +0.000 A 
ENDBRANCH   5   7
BRANCH   5  13
ATOM     13  C   UNL     1       3.556   4.039  17.215  0.00  0.00    +0.000 C 
BRANCH  13  14
ATOM     14  C   UNL     1       2.875   3.094  18.199  0.00  0.00    +0.000 C 
BRANCH  14  16
ATOM     15  O   UNL     1       3.771   0.846  18.379  0.00  0.00    +0.000 OA
ATOM     16  C   UNL     1       3.833   2.028  18.669  0.00  0.00    +0.000 C 
BRANCH  16  17
ATOM     17  O   UNL     1       4.800   2.526  19.476  0.00  0.00    +0.000 OA
ATOM     18  H   UNL     1       4.614   3.435  19.781  0.00  0.00    +0.000 HD
ENDBRANCH  16  17
ENDBRANCH  14  16
ENDBRANCH  13  14
ENDBRANCH   5  13
ENDBRANCH   1   6
BRANCH   2  19
ATOM     19  C   UNL     1       8.217   7.654  18.511  0.00  0.00    +0.000 C 
BRANCH  19  20
ATOM     20  N   UNL     1       8.199   8.984  17.908  0.00  0.00    +0.000 N 
ATOM     21  C   UNL     1       8.798  10.060  18.521  0.00  0.00    +0.000 C 
ATOM     22  O   UNL     1       9.392   9.945  19.594  0.00  0.00    +0.000 OA
ATOM     23  H   UNL     1       7.584   9.140  17.119  0.00  0.00    +0.000 HD
BRANCH  21  24
ATOM     24  C   UNL     1       8.689  11.397  17.787  0.00  0.00    +0.000 C 
BRANCH  24  25
ATOM     25  C   UNL     1       9.802  12.399  18.026  0.00  0.00    +0.000 A 
ATOM     26  C   UNL     1       9.649  13.460  18.916  0.00  0.00    +0.000 A 
ATOM     27  C   UNL     1      10.669  14.352  19.234  0.00  0.00    +0.000 A 
ATOM     28  C   UNL     1      11.910  14.183  18.649  0.00  0.00    +0.000 A 
ATOM     29  C   UNL     1      12.110  13.123  17.765  0.00  0.00    +0.000 A 
ATOM     30  C   UNL     1      11.068  12.232  17.462  0.00  0.00    +0.000 A 
ENDBRANCH  24  25
ENDBRANCH  21  24
ENDBRANCH  19  20
ENDBRANCH   2  19
TORSDOF 10
ENDMDL
MODEL 6
REMARK VINA RESULT:      -7.4      3.773      5.670
REMARK  Name = 
REMARK  10 active torsions:
REMARK  status: ('A' for Active; 'I' for Inactive)
REMARK    1  A    between atoms: C_2  and  O_3
REMARK    2  A    between atoms: C_2  and  C_4
REMARK    3  A    between atoms: C_4  and  C_5
REMARK    4  A    between atoms: C_5  and  C_6
REMARK    5  A    between atoms: C_6  and  C_22
REMARK    6  A    between atoms: N_7  and  N_8
REMARK    7  A    between atoms: C_9  and  C_11
REMARK    8  A    between atoms: C_11  and  N_12
REMARK    9  A    between atoms: C_13  and  C_15
REMARK   10  A    between atoms: C_15  and  C_16
REMARK                            x       y       z     vdW  Elec       q    Type
REMARK                         _______ _______ _______ _____ _____    ______ ____
ROOT
ATOM      1  N   UNL     1       2.850   6.996  18.535  0.00  0.00    +0.000 N 
ATOM      2  C   UNL     1       2.360   8.256  18.199  0.00  0.00    +0.000 C 
ATOM      3  O   UNL     1       2.548   8.829  17.129  0.00  0.00    +0.000 OA
ATOM      4  H   UNL     1       2.548   6.541  19.394  0.00  0.00    +0.000 HD
ENDROOT
BRANCH   1   6
ATOM      5  C   UNL     1       3.740   5.007  17.677  0.00  0.00    +0.000 C 
ATOM      6  N   UNL     1       3.622   6.307  17.644  0.00  0.00    +0.000 NA
BRANCH   5   7
ATOM      7  C   UNL     1       2.954   4.018  18.501  0.00  0.00    +0.000 A 
ATOM      8  C   UNL     1       1.689   3.553  18.126  0.00  0.00    +0.000 A 
ATOM      9  C   UNL     1       0.924   2.765  19.003  0.00  0.00    +0.000 A 
ATOM     10  C   UNL     1       1.415   2.418  20.257  0.00  0.00    +0.000 A 
ATOM     11  C   UNL     1       2.678   2.843  20.625  0.00  0.00    +0.000 A 
ATOM     12  C   UNL     1       3.420   3.652  19.756  0.00  0.00    +0.000 A 
ENDBRANCH   5   7
BRANCH   5  13
ATOM     13  C   UNL     1       4.706   4.384  16.663  0.00  0.00    +0.000 C 
BRANCH  13  14
ATOM     14  C   UNL     1       5.327   5.380  15.690  0.00  0.00    +0.000 C 
BRANCH  14  16
ATOM     15  O   UNL     1       7.595   5.348  14.826  0.00  0.00    +0.000 OA
ATOM     16  C   UNL     1       6.530   4.781  15.005  0.00  0.00    +0.000 C 
BRANCH  16  17
ATOM     17  O   UNL     1       6.305   3.513  14.587  0.00  0.00    +0.000 OA
ATOM     18  H   UNL     1       6.654   2.839  15.203  0.00  0.00    +0.000 HD
ENDBRANCH  16  17
ENDBRANCH  14  16
ENDBRANCH  13  14
ENDBRANCH   5  13
ENDBRANCH   1   6
BRANCH   2  19
ATOM     19  C   UNL     1       1.412   8.842  19.259  0.00  0.00    +0.000 C 
BRANCH  19  20
ATOM     20  N   UNL     1       0.685  10.010  18.768  0.00  0.00    +0.000 N 
ATOM     21  C   UNL     1      -0.230  10.670  19.555  0.00  0.00    +0.000 C 
ATOM     22  O   UNL     1      -0.461  10.318  20.712  0.00  0.00    +0.000 OA
ATOM     23  H   UNL     1       0.733  10.219  17.778  0.00  0.00    +0.000 HD
BRANCH  21  24
ATOM     24  C   UNL     1      -0.930  11.867  18.910  0.00  0.00    +0.000 C 
BRANCH  24  25
ATOM     25  C   UNL     1      -2.270  11.601  18.253  0.00  0.00    +0.000 A 
ATOM     26  C   UNL     1      -3.470  11.879  18.904  0.00  0.00    +0.000 A 
ATOM     27  C   UNL     1      -4.720  11.734  18.310  0.00  0.00    +0.000 A 
ATOM     28  C   UNL     1      -4.791  11.298  17.000  0.00  0.00    +0.000 A 
ATOM     29  C   UNL     1      -3.612  11.024  16.307  0.00  0.00    +0.000 A 
ATOM     30  C   UNL     1      -2.361  11.182  16.924  0.00  0.00    +0.000 A 
ENDBRANCH  24  25
ENDBRANCH  21  24
ENDBRANCH  19  20
ENDBRANCH   2  19
TORSDOF 10
ENDMDL
MODEL 7
REMARK VINA RESULT:      -7.4      2.167      3.072
REMARK  Name = 
REMARK  10 active torsions:
REMARK  status: ('A' for Active; 'I' for Inactive)
REMARK    1  A    between atoms: C_2  and  O_3
REMARK    2  A    between atoms: C_2  and  C_4
REMARK    3  A    between atoms: C_4  and  C_5
REMARK    4  A    between atoms: C_5  and  C_6
REMARK    5  A    between atoms: C_6  and  C_22
REMARK    6  A    between atoms: N_7  and  N_8
REMARK    7  A    between atoms: C_9  and  C_11
REMARK    8  A    between atoms: C_11  and  N_12
REMARK    9  A    between atoms: C_13  and  C_15
REMARK   10  A    between atoms: C_15  and  C_16
REMARK                            x       y       z     vdW  Elec       q    Type
REMARK                         _______ _______ _______ _____ _____    ______ ____
ROOT
ATOM      1  N   UNL     1       3.339   5.256  17.568  0.00  0.00    +0.000 N 
ATOM      2  C   UNL     1       3.254   5.018  18.938  0.00  0.00    +0.000 C 
ATOM      3  O   UNL     1       3.850   4.130  19.542  0.00  0.00    +0.000 OA
ATOM      4  H   UNL     1       2.910   6.087  17.165  0.00  0.00    +0.000 HD
ENDROOT
BRANCH   1   6
ATOM      5  C   UNL     1       5.395   4.673  16.609  0.00  0.00    +0.000 C 
ATOM      6  N   UNL     1       4.120   4.455  16.785  0.00  0.00    +0.000 NA
BRANCH   5   7
ATOM      7  C   UNL     1       6.284   5.653  17.335  0.00  0.00    +0.000 A 
ATOM      8  C   UNL     1       6.504   6.958  16.881  0.00  0.00    +0.000 A 
ATOM      9  C   UNL     1       7.466   7.778  17.493  0.00  0.00    +0.000 A 
ATOM     10  C   UNL     1       8.209   7.317  18.574  0.00  0.00    +0.000 A 
ATOM     11  C   UNL     1       7.976   6.041  19.053  0.00  0.00    +0.000 A 
ATOM     12  C   UNL     1       7.036   5.221  18.418  0.00  0.00    +0.000 A 
ENDBRANCH   5   7
BRANCH   5  13
ATOM     13  C   UNL     1       6.120   3.736  15.638  0.00  0.00    +0.000 C 
BRANCH  13  14
ATOM     14  C   UNL     1       5.878   4.045  14.164  0.00  0.00    +0.000 C 
BRANCH  14  16
ATOM     15  O   UNL     1       7.882   5.413  14.129  0.00  0.00    +0.000 OA
ATOM     16  C   UNL     1       7.090   4.692  13.545  0.00  0.00    +0.000 C 
BRANCH  16  17
ATOM     17  O   UNL     1       7.218   4.393  12.231  0.00  0.00    +0.000 OA
ATOM     18  H   UNL     1       6.360   4.259  11.783  0.00  0.00    +0.000 HD
ENDBRANCH  16  17
ENDBRANCH  14  16
ENDBRANCH  13  14
ENDBRANCH   5  13
ENDBRANCH   1   6
BRANCH   2  19
ATOM     19  C   UNL     1       2.436   6.080  19.691  0.00  0.00    +0.000 C 
BRANCH  19  20
ATOM     20  N   UNL     1       2.253   7.299  18.908  0.00  0.00    +0.000 N 
ATOM     21  C   UNL     1       1.731   8.441  19.468  0.00  0.00    +0.000 C 
ATOM     22  O   UNL     1       1.412   8.493  20.656  0.00  0.00    +0.000 OA
ATOM     23  H   UNL     1       2.351   7.238  17.902  0.00  0.00    +0.000 HD
BRANCH  21  24
ATOM     24  C   UNL     1       1.580   9.640  18.530  0.00  0.00    +0.000 C 
BRANCH  24  25
ATOM     25  C   UNL     1       0.218  10.304  18.485  0.00  0.00    +0.000 A 
ATOM     26  C   UNL     1      -0.008  11.546  19.075  0.00  0.00    +0.000 A 
ATOM     27  C   UNL     1      -1.215  12.233  18.984  0.00  0.00    +0.000 A 
ATOM     28  C   UNL     1      -2.254  11.669  18.268  0.00  0.00    +0.000 A 
ATOM     29  C   UNL     1      -2.063  10.433  17.649  0.00  0.00    +0.000 A 
ATOM     30  C   UNL     1      -0.836   9.760  17.748  0.00  0.00    +0.000 A 
ENDBRANCH  24  25
ENDBRANCH  21  24
ENDBRANCH  19  20
ENDBRANCH   2  19
TORSDOF 10
ENDMDL
MODEL 8
REMARK VINA RESULT:      -7.4      0.843      1.577
REMARK  Name = 
REMARK  10 active torsions:
REMARK  status: ('A' for Active; 'I' for Inactive)
REMARK    1  A    between atoms: C_2  and  O_3
REMARK    2  A    between atoms: C_2  and  C_4
REMARK    3  A    between atoms: C_4  and  C_5
REMARK    4  A    between atoms: C_5  and  C_6
REMARK    5  A    between atoms: C_6  and  C_22
REMARK    6  A    between atoms: N_7  and  N_8
REMARK    7  A    between atoms: C_9  and  C_11
REMARK    8  A    between atoms: C_11  and  N_12
REMARK    9  A    between atoms: C_13  and  C_15
REMARK   10  A    between atoms: C_15  and  C_16
REMARK                            x       y       z     vdW  Elec       q    Type
REMARK                         _______ _______ _______ _____ _____    ______ ____
ROOT
ATOM      1  N   UNL     1       3.674   3.660  17.913  0.00  0.00    +0.000 N 
ATOM      2  C   UNL     1       3.468   2.448  18.567  0.00  0.00    +0.000 C 
ATOM      3  O   UNL     1       3.675   1.337  18.085  0.00  0.00    +0.000 OA
ATOM      4  H   UNL     1       3.595   4.538  18.425  0.00  0.00    +0.000 HD
ENDROOT
BRANCH   1   6
ATOM      5  C   UNL     1       5.075   4.469  16.219  0.00  0.00    +0.000 C 
ATOM      6  N   UNL     1       4.124   3.670  16.625  0.00  0.00    +0.000 NA
BRANCH   5   7
ATOM      7  C   UNL     1       5.975   5.347  17.052  0.00  0.00    +0.000 A 
ATOM      8  C   UNL     1       6.090   6.726  16.848  0.00  0.00    +0.000 A 
ATOM      9  C   UNL     1       7.062   7.475  17.534  0.00  0.00    +0.000 A 
ATOM     10  C   UNL     1       7.919   6.863  18.442  0.00  0.00    +0.000 A 
ATOM     11  C   UNL     1       7.792   5.507  18.678  0.00  0.00    +0.000 A 
ATOM     12  C   UNL     1       6.840   4.765  17.968  0.00  0.00    +0.000 A 
ENDBRANCH   5   7
BRANCH   5  13
ATOM     13  C   UNL     1       5.415   4.422  14.726  0.00  0.00    +0.000 C 
BRANCH  13  14
ATOM     14  C   UNL     1       6.886   4.160  14.422  0.00  0.00    +0.000 C 
BRANCH  14  16
ATOM     15  O   UNL     1       6.895   4.036  11.999  0.00  0.00    +0.000 OA
ATOM     16  C   UNL     1       7.232   4.605  13.023  0.00  0.00    +0.000 C 
BRANCH  16  17
ATOM     17  O   UNL     1       7.983   5.731  13.013  0.00  0.00    +0.000 OA
ATOM     18  H   UNL     1       8.924   5.562  12.811  0.00  0.00    +0.000 HD
ENDBRANCH  16  17
ENDBRANCH  14  16
ENDBRANCH  13  14
ENDBRANCH   5  13
ENDBRANCH   1   6
BRANCH   2  19
ATOM     19  C   UNL     1       3.080   2.612  20.046  0.00  0.00    +0.000 C 
BRANCH  19  20
ATOM     20  N   UNL     1       2.222   3.772  20.270  0.00  0.00    +0.000 N 
ATOM     21  C   UNL     1       2.737   5.045  20.340  0.00  0.00    +0.000 C 
ATOM     22  O   UNL     1       3.941   5.265  20.197  0.00  0.00    +0.000 OA
ATOM     23  H   UNL     1       1.263   3.607  20.553  0.00  0.00    +0.000 HD
BRANCH  21  24
ATOM     24  C   UNL     1       1.728   6.165  20.595  0.00  0.00    +0.000 C 
BRANCH  24  25
ATOM     25  C   UNL     1       1.847   7.401  19.724  0.00  0.00    +0.000 A 
ATOM     26  C   UNL     1       2.433   7.349  18.461  0.00  0.00    +0.000 A 
ATOM     27  C   UNL     1       2.486   8.435  17.592  0.00  0.00    +0.000 A 
ATOM     28  C   UNL     1       1.923   9.635  17.986  0.00  0.00    +0.000 A 
ATOM     29  C   UNL     1       1.312   9.723  19.237  0.00  0.00    +0.000 A 
ATOM     30  C   UNL     1       1.265   8.615  20.095  0.00  0.00    +0.000 A 
ENDBRANCH  24  25
ENDBRANCH  21  24
ENDBRANCH  19  20
ENDBRANCH   2  19
TORSDOF 10
ENDMDL
MODEL 9
REMARK VINA RESULT:      -7.3      2.861      8.026
REMARK  Name = 
REMARK  10 active torsions:
REMARK  status: ('A' for Active; 'I' for Inactive)
REMARK    1  A    between atoms: C_2  and  O_3
REMARK    2  A    between atoms: C_2  and  C_4
REMARK    3  A    between atoms: C_4  and  C_5
REMARK    4  A    between atoms: C_5  and  C_6
REMARK    5  A    between atoms: C_6  and  C_22
REMARK    6  A    between atoms: N_7  and  N_8
REMARK    7  A    between atoms: C_9  and  C_11
REMARK    8  A    between atoms: C_11  and  N_12
REMARK    9  A    between atoms: C_13  and  C_15
REMARK   10  A    between atoms: C_15  and  C_16
REMARK                            x       y       z     vdW  Elec       q    Type
REMARK                         _______ _______ _______ _____ _____    ______ ____
ROOT
ATOM      1  N   UNL     1       4.953   6.034  17.290  0.00  0.00    +0.000 N 
ATOM      2  C   UNL     1       6.232   6.534  17.061  0.00  0.00    +0.000 C 
ATOM      3  O   UNL     1       6.573   7.706  17.206  0.00  0.00    +0.000 OA
ATOM      4  H   UNL     1       4.783   5.030  17.265  0.00  0.00    +0.000 HD
ENDROOT
BRANCH   1   6
ATOM      5  C   UNL     1       2.846   6.442  18.229  0.00  0.00    +0.000 C 
ATOM      6  N   UNL     1       3.955   6.874  17.692  0.00  0.00    +0.000 NA
BRANCH   5   7
ATOM      7  C   UNL     1       2.515   5.044  18.690  0.00  0.00    +0.000 A 
ATOM      8  C   UNL     1       1.681   4.184  17.968  0.00  0.00    +0.000 A 
ATOM      9  C   UNL     1       1.267   2.958  18.515  0.00  0.00    +0.000 A 
ATOM     10  C   UNL     1       1.691   2.566  19.780  0.00  0.00    +0.000 A 
ATOM     11  C   UNL     1       2.543   3.392  20.490  0.00  0.00    +0.000 A 
ATOM     12  C   UNL     1       2.926   4.625  19.948  0.00  0.00    +0.000 A 
ENDBRANCH   5   7
BRANCH   5  13
ATOM     13  C   UNL     1       1.786   7.500  18.553  0.00  0.00    +0.000 C 
BRANCH  13  14
ATOM     14  C   UNL     1       2.122   8.902  18.056  0.00  0.00    +0.000 C 
BRANCH  14  16
ATOM     15  O   UNL     1       1.132  10.172  19.871  0.00  0.00    +0.000 OA
ATOM     16  C   UNL     1       1.208   9.926  18.679  0.00  0.00    +0.000 C 
BRANCH  16  17
ATOM     17  O   UNL     1       0.446  10.562  17.758  0.00  0.00    +0.000 OA
ATOM     18  H   UNL     1      -0.118  11.261  18.144  0.00  0.00    +0.000 HD
ENDBRANCH  16  17
ENDBRANCH  14  16
ENDBRANCH  13  14
ENDBRANCH   5  13
ENDBRANCH   1   6
BRANCH   2  19
ATOM     19  C   UNL     1       7.264   5.442  16.735  0.00  0.00    +0.000 C 
BRANCH  19  20
ATOM     20  N   UNL     1       7.548   5.355  15.305  0.00  0.00    +0.000 N 
ATOM     21  C   UNL     1       6.646   4.805  14.425  0.00  0.00    +0.000 C 
ATOM     22  O   UNL     1       5.552   4.381  14.799  0.00  0.00    +0.000 OA
ATOM     23  H   UNL     1       8.494   5.542  14.996  0.00  0.00    +0.000 HD
BRANCH  21  24
ATOM     24  C   UNL     1       7.079   4.764  12.959  0.00  0.00    +0.000 C 
BRANCH  24  25
ATOM     25  C   UNL     1       6.644   3.555  12.153  0.00  0.00    +0.000 A 
ATOM     26  C   UNL     1       7.568   2.637  11.659  0.00  0.00    +0.000 A 
ATOM     27  C   UNL     1       7.211   1.469  10.992  0.00  0.00    +0.000 A 
ATOM     28  C   UNL     1       5.870   1.187  10.808  0.00  0.00    +0.000 A 
ATOM     29  C   UNL     1       4.912   2.073  11.302  0.00  0.00    +0.000 A 
ATOM     30  C   UNL     1       5.294   3.243  11.977  0.00  0.00    +0.000 A 
ENDBRANCH  24  25
ENDBRANCH  21  24
ENDBRANCH  19  20
ENDBRANCH   2  19
TORSDOF 10
ENDMDL
