MODEL 1
REMARK VINA RESULT:      -8.7      0.000      0.000
REMARK  Name = 
REMARK  11 active torsions:
REMARK  status: ('A' for Active; 'I' for Inactive)
REMARK    1  A    between atoms: C_1  and  O_2
REMARK    2  A    between atoms: O_2  and  C_3
REMARK    3  A    between atoms: C_8  and  C_9
REMARK    4  A    between atoms: C_9  and  C_10
REMARK    5  A    between atoms: C_10  and  N_11
REMARK    6  A    between atoms: C_12  and  C_14
REMARK    7  A    between atoms: N_16  and  C_17
REMARK    8  A    between atoms: C_17  and  C_18
REMARK    9  A    between atoms: N_23  and  S_24
REMARK   10  A    between atoms: S_24  and  C_27
REMARK   11  A    between atoms: C_33  and  C_34
REMARK                            x       y       z     vdW  Elec       q    Type
REMARK                         _______ _______ _______ _____ _____    ______ ____
ROOT
ATOM      1  C   UNL     1       2.154   7.961  18.927  0.00  0.00    +0.000 C 
ATOM      2  O   UNL     1       3.083   7.435  18.332  0.00  0.00    +0.000 OA
ATOM      3  N   UNL     1       1.543   7.470  20.076  0.00  0.00    +0.000 N 
ATOM      4  H   UNL     1       0.830   8.061  20.487  0.00  0.00    +0.000 HD
ENDROOT
BRANCH   1   6
ATOM      5  N   UNL     1       0.582   9.845  19.205  0.00  0.00    +0.000 N 
ATOM      6  C   UNL     1       1.580   9.304  18.413  0.00  0.00    +0.000 C 
ATOM      7  O   UNL     1       2.012   9.784  17.372  0.00  0.00    +0.000 OA
ATOM      8  H   UNL     1       0.301   9.329  20.036  0.00  0.00    +0.000 HD
BRANCH   5   9
ATOM      9  C   UNL     1      -0.075  11.068  18.799  0.00  0.00    +0.000 C 
BRANCH   9  10
ATOM     10  C   UNL     1      -1.542  11.221  19.205  0.00  0.00    +0.000 C 
BRANCH  10  16
ATOM     11  C   UNL     1      -3.730  11.542  17.919  0.00  0.00    +0.000 A 
ATOM     12  C   UNL     1      -4.500  11.350  16.766  0.00  0.00    +0.000 A 
ATOM     13  C   UNL     1      -3.995  10.612  15.697  0.00  0.00    +0.000 A 
ATOM     14  C   UNL     1      -2.701  10.104  15.755  0.00  0.00    +0.000 A 
ATOM     15  C   UNL     1      -1.899  10.365  16.865  0.00  0.00    +0.000 A 
ATOM     16  C   UNL     1      -2.398  11.093  17.959  0.00  0.00    +0.000 A 
BRANCH  11  18
ATOM     17  C   UNL     1      -5.633  11.965  19.247  0.00  0.00    +0.000 C 
ATOM     18  O   UNL     1      -4.228  12.133  19.053  0.00  0.00    +0.000 OA
ENDBRANCH  11  18
ENDBRANCH  10  16
ENDBRANCH   9  10
ENDBRANCH   5   9
ENDBRANCH   1   6
BRANCH   3  19
ATOM     19  C   UNL     1       1.995   6.205  20.652  0.00  0.00    +0.000 C 
BRANCH  19  20
ATOM     20  C   UNL     1       2.574   5.038  19.773  0.00  0.00    +0.000 C 
ATOM     21  O   UNL     1       1.589   4.358  19.016  0.00  0.00    +0.000 OA
ATOM     22  C   UNL     1       0.720   3.531  19.765  0.00  0.00    +0.000 C 
ATOM     23  C   UNL     1       1.416   2.650  20.798  0.00  0.00    +0.000 C 
ATOM     24  C   UNL     1       2.683   3.237  21.412  0.00  0.00    +0.000 C 
ATOM     25  N   UNL     1       3.457   4.034  20.435  0.00  0.00    +0.000 NA
BRANCH  25  26
ATOM     26  S   UNL     1       4.354   3.101  19.260  0.00  0.00    +0.000 S 
ATOM     27  O   UNL     1       5.093   2.070  19.946  0.00  0.00    +0.000 OA
ATOM     28  O   UNL     1       3.442   2.742  18.192  0.00  0.00    +0.000 OA
BRANCH  26  29
ATOM     29  C   UNL     1       5.552   4.223  18.473  0.00  0.00    +0.000 A 
ATOM     30  C   UNL     1       6.425   4.884  19.365  0.00  0.00    +0.000 A 
ATOM     31  C   UNL     1       7.219   5.957  18.947  0.00  0.00    +0.000 A 
ATOM     32  C   UNL     1       7.172   6.361  17.626  0.00  0.00    +0.000 A 
ATOM     33  F   UNL     1       7.921   7.394  17.218  0.00  0.00    +0.000 F 
ATOM     34  C   UNL     1       6.322   5.732  16.725  0.00  0.00    +0.000 A 
ATOM     35  C   UNL     1       5.468   4.682  17.140  0.00  0.00    +0.000 A 
ATOM     36  C   UNL     1       4.485   4.188  16.109  0.00  0.00    +0.000 C 
ENDBRANCH  26  29
ENDBRANCH  25  26
ENDBRANCH  19  20
ENDBRANCH   3  19
TORSDOF 9
ENDMDL
MODEL 2
REMARK VINA RESULT:      -8.5      6.573     10.279
REMARK  Name = 
REMARK  11 active torsions:
REMARK  status: ('A' for Active; 'I' for Inactive)
REMARK    1  A    between atoms: C_1  and  O_2
REMARK    2  A    between atoms: O_2  and  C_3
REMARK    3  A    between atoms: C_8  and  C_9
REMARK    4  A    between atoms: C_9  and  C_10
REMARK    5  A    between atoms: C_10  and  N_11
REMARK    6  A    between atoms: C_12  and  C_14
REMARK    7  A    between atoms: N_16  and  C_17
REMARK    8  A    between atoms: C_17  and  C_18
REMARK    9  A    between atoms: N_23  and  S_24
REMARK   10  A    between atoms: S_24  and  C_27
REMARK   11  A    between atoms: C_33  and  C_34
REMARK                            x       y       z     vdW  Elec       q    Type
REMARK                         _______ _______ _______ _____ _____    ______ ____
ROOT
ATOM      1  C   UNL     1       7.958   7.642  18.107  0.00  0.00    +0.000 C 
ATOM      2  O   UNL     1       8.490   7.006  19.005  0.00  0.00    +0.000 OA
ATOM      3  N   UNL     1       8.135   8.998  17.856  0.00  0.00    +0.000 N 
ATOM      4  H   UNL     1       7.675   9.361  17.030  0.00  0.00    +0.000 HD
ENDROOT
BRANCH   1   6
ATOM      5  N   UNL     1       5.663   7.025  17.435  0.00  0.00    +0.000 N 
ATOM      6  C   UNL     1       7.007   6.921  17.120  0.00  0.00    +0.000 C 
ATOM      7  O   UNL     1       7.478   6.313  16.166  0.00  0.00    +0.000 OA
ATOM      8  H   UNL     1       5.408   7.544  18.272  0.00  0.00    +0.000 HD
BRANCH   5   9
ATOM      9  C   UNL     1       4.680   6.344  16.621  0.00  0.00    +0.000 C 
BRANCH   9  10
ATOM     10  C   UNL     1       4.323   4.915  17.037  0.00  0.00    +0.000 C 
BRANCH  10  16
ATOM     11  C   UNL     1       3.545   3.876  19.241  0.00  0.00    +0.000 A 
ATOM     12  C   UNL     1       2.806   3.956  20.427  0.00  0.00    +0.000 A 
ATOM     13  C   UNL     1       2.016   5.074  20.690  0.00  0.00    +0.000 A 
ATOM     14  C   UNL     1       1.998   6.137  19.793  0.00  0.00    +0.000 A 
ATOM     15  C   UNL     1       2.799   6.100  18.652  0.00  0.00    +0.000 A 
ATOM     16  C   UNL     1       3.589   4.974  18.364  0.00  0.00    +0.000 A 
BRANCH  11  18
ATOM     17  C   UNL     1       3.391   1.674  18.410  0.00  0.00    +0.000 C 
ATOM     18  O   UNL     1       4.222   2.743  18.865  0.00  0.00    +0.000 OA
ENDBRANCH  11  18
ENDBRANCH  10  16
ENDBRANCH   9  10
ENDBRANCH   5   9
ENDBRANCH   1   6
BRANCH   3  19
ATOM     19  C   UNL     1       9.006   9.788  18.725  0.00  0.00    +0.000 C 
BRANCH  19  20
ATOM     20  C   UNL     1       9.226  11.330  18.521  0.00  0.00    +0.000 C 
ATOM     21  O   UNL     1      10.364  11.640  17.737  0.00  0.00    +0.000 OA
ATOM     22  C   UNL     1      11.610  11.419  18.370  0.00  0.00    +0.000 C 
ATOM     23  C   UNL     1      11.692  11.935  19.804  0.00  0.00    +0.000 C 
ATOM     24  C   UNL     1      10.383  11.908  20.587  0.00  0.00    +0.000 C 
ATOM     25  N   UNL     1       9.216  12.206  19.729  0.00  0.00    +0.000 NA
BRANCH  25  26
ATOM     26  S   UNL     1       9.023  13.888  19.296  0.00  0.00    +0.000 S 
ATOM     27  O   UNL     1      10.291  14.559  19.444  0.00  0.00    +0.000 OA
ATOM     28  O   UNL     1       8.325  13.940  18.026  0.00  0.00    +0.000 OA
BRANCH  26  29
ATOM     29  C   UNL     1       7.855  14.625  20.483  0.00  0.00    +0.000 A 
ATOM     30  C   UNL     1       6.632  15.060  19.925  0.00  0.00    +0.000 A 
ATOM     31  C   UNL     1       5.749  15.868  20.647  0.00  0.00    +0.000 A 
ATOM     32  C   UNL     1       6.063  16.225  21.945  0.00  0.00    +0.000 A 
ATOM     33  F   UNL     1       5.228  17.008  22.641  0.00  0.00    +0.000 F 
ATOM     34  C   UNL     1       7.258  15.816  22.520  0.00  0.00    +0.000 A 
ATOM     35  C   UNL     1       8.193  15.044  21.788  0.00  0.00    +0.000 A 
ATOM     36  C   UNL     1       9.515  14.795  22.468  0.00  0.00    +0.000 C 
ENDBRANCH  26  29
ENDBRANCH  25  26
ENDBRANCH  19  20
ENDBRANCH   3  19
TORSDOF 9
ENDMDL
MODEL 3
REMARK VINA RESULT:      -8.5      5.734      8.810
REMARK  Name = 
REMARK  11 active torsions:
REMARK  status: ('A' for Active; 'I' for Inactive)
REMARK    1  A    between atoms: C_1  and  O_2
REMARK    2  A    between atoms: O_2  and  C_3
REMARK    3  A    between atoms: C_8  and  C_9
REMARK    4  A    between atoms: C_9  and  C_10
REMARK    5  A    between atoms: C_10  and  N_11
REMARK    6  A    between atoms: C_12  and  C_14
REMARK    7  A    between atoms: N_16  and  C_17
REMARK    8  A    between atoms: C_17  and  C_18
REMARK    9  A    between atoms: N_23  and  S_24
REMARK   10  A    between atoms: S_24  and  C_27
REMARK   11  A    between atoms: C_33  and  C_34
REMARK                            x       y       z     vdW  Elec       q    Type
REMARK                         _______ _______ _______ _____ _____    ______ ____
ROOT
ATOM      1  C   UNL     1       8.539   9.724  18.287  0.00  0.00    +0.000 C 
ATOM      2  O   UNL     1       8.086  10.392  17.369  0.00  0.00    +0.000 OA
ATOM      3  N   UNL     1       8.440   8.343  18.412  0.00  0.00    +0.000 N 
ATOM      4  H   UNL     1       8.928   7.931  19.198  0.00  0.00    +0.000 HD
ENDROOT
BRANCH   1   6
ATOM      5  N   UNL     1      10.310  11.289  19.002  0.00  0.00    +0.000 N 
ATOM      6  C   UNL     1       9.319  10.422  19.428  0.00  0.00    +0.000 C 
ATOM      7  O   UNL     1       9.037  10.167  20.593  0.00  0.00    +0.000 OA
ATOM      8  H   UNL     1      10.455  11.392  18.000  0.00  0.00    +0.000 HD
BRANCH   5   9
ATOM      9  C   UNL     1      11.148  11.957  19.974  0.00  0.00    +0.000 C 
BRANCH   9  10
ATOM     10  C   UNL     1      11.068  13.484  20.008  0.00  0.00    +0.000 C 
BRANCH  10  16
ATOM     11  C   UNL     1       8.706  14.467  19.990  0.00  0.00    +0.000 A 
ATOM     12  C   UNL     1       7.554  14.869  20.675  0.00  0.00    +0.000 A 
ATOM     13  C   UNL     1       7.502  14.801  22.067  0.00  0.00    +0.000 A 
ATOM     14  C   UNL     1       8.581  14.285  22.777  0.00  0.00    +0.000 A 
ATOM     15  C   UNL     1       9.698  13.803  22.095  0.00  0.00    +0.000 A 
ATOM     16  C   UNL     1       9.774  13.880  20.694  0.00  0.00    +0.000 A 
BRANCH  11  18
ATOM     17  C   UNL     1       7.951  13.910  17.826  0.00  0.00    +0.000 C 
ATOM     18  O   UNL     1       8.867  14.646  18.640  0.00  0.00    +0.000 OA
ENDBRANCH  11  18
ENDBRANCH  10  16
ENDBRANCH   9  10
ENDBRANCH   5   9
ENDBRANCH   1   6
BRANCH   3  19
ATOM     19  C   UNL     1       7.720   7.573  17.398  0.00  0.00    +0.000 C 
BRANCH  19  20
ATOM     20  C   UNL     1       6.984   6.226  17.729  0.00  0.00    +0.000 C 
ATOM     21  O   UNL     1       7.626   5.084  17.190  0.00  0.00    +0.000 OA
ATOM     22  C   UNL     1       7.523   4.942  15.786  0.00  0.00    +0.000 C 
ATOM     23  C   UNL     1       6.125   5.181  15.225  0.00  0.00    +0.000 C 
ATOM     24  C   UNL     1       5.277   6.194  15.989  0.00  0.00    +0.000 C 
ATOM     25  N   UNL     1       5.521   6.138  17.447  0.00  0.00    +0.000 NA
BRANCH  25  26
ATOM     26  S   UNL     1       4.793   4.779  18.269  0.00  0.00    +0.000 S 
ATOM     27  O   UNL     1       4.381   3.804  17.290  0.00  0.00    +0.000 OA
ATOM     28  O   UNL     1       5.681   4.386  19.345  0.00  0.00    +0.000 OA
BRANCH  26  29
ATOM     29  C   UNL     1       3.301   5.391  19.116  0.00  0.00    +0.000 A 
ATOM     30  C   UNL     1       3.066   6.777  18.983  0.00  0.00    +0.000 A 
ATOM     31  C   UNL     1       2.120   7.435  19.775  0.00  0.00    +0.000 A 
ATOM     32  C   UNL     1       1.376   6.709  20.686  0.00  0.00    +0.000 A 
ATOM     33  F   UNL     1       0.474   7.332  21.457  0.00  0.00    +0.000 F 
ATOM     34  C   UNL     1       1.585   5.345  20.842  0.00  0.00    +0.000 A 
ATOM     35  C   UNL     1       2.577   4.669  20.091  0.00  0.00    +0.000 A 
ATOM     36  C   UNL     1       2.813   3.227  20.460  0.00  0.00    +0.000 C 
ENDBRANCH  26  29
ENDBRANCH  25  26
ENDBRANCH  19  20
ENDBRANCH   3  19
TORSDOF 9
ENDMDL
MODEL 4
REMARK VINA RESULT:      -8.4      1.425      2.012
REMARK  Name = 
REMARK  11 active torsions:
REMARK  status: ('A' for Active; 'I' for Inactive)
REMARK    1  A    between atoms: C_1  and  O_2
REMARK    2  A    between atoms: O_2  and  C_3
REMARK    3  A    between atoms: C_8  and  C_9
REMARK    4  A    between atoms: C_9  and  C_10
REMARK    5  A    between atoms: C_10  and  N_11
REMARK    6  A    between atoms: C_12  and  C_14
REMARK    7  A    between atoms: N_16  and  C_17
REMARK    8  A    between atoms: C_17  and  C_18
REMARK    9  A    between atoms: N_23  and  S_24
REMARK   10  A    between atoms: S_24  and  C_27
REMARK   11  A    between atoms: C_33  and  C_34
REMARK                            x       y       z     vdW  Elec       q    Type
REMARK                         _______ _______ _______ _____ _____    ______ ____
ROOT
ATOM      1  C   UNL     1       1.692   7.871  20.234  0.00  0.00    +0.000 C 
ATOM      2  O   UNL     1       2.488   7.770  19.312  0.00  0.00    +0.000 OA
ATOM      3  N   UNL     1       1.375   6.872  21.148  0.00  0.00    +0.000 N 
ATOM      4  H   UNL     1       0.746   7.137  21.896  0.00  0.00    +0.000 HD
ENDROOT
BRANCH   1   6
ATOM      5  N   UNL     1       0.129   9.604  19.428  0.00  0.00    +0.000 N 
ATOM      6  C   UNL     1       0.958   9.214  20.466  0.00  0.00    +0.000 C 
ATOM      7  O   UNL     1       1.155   9.838  21.502  0.00  0.00    +0.000 OA
ATOM      8  H   UNL     1       0.074   9.001  18.610  0.00  0.00    +0.000 HD
BRANCH   5   9
ATOM      9  C   UNL     1      -0.566  10.870  19.500  0.00  0.00    +0.000 C 
BRANCH   9  10
ATOM     10  C   UNL     1      -1.003  11.485  18.168  0.00  0.00    +0.000 C 
BRANCH  10  16
ATOM     11  C   UNL     1      -3.263  11.374  16.976  0.00  0.00    +0.000 A 
ATOM     12  C   UNL     1      -4.656  11.515  16.998  0.00  0.00    +0.000 A 
ATOM     13  C   UNL     1      -5.300  11.959  18.152  0.00  0.00    +0.000 A 
ATOM     14  C   UNL     1      -4.562  12.216  19.303  0.00  0.00    +0.000 A 
ATOM     15  C   UNL     1      -3.186  11.995  19.312  0.00  0.00    +0.000 A 
ATOM     16  C   UNL     1      -2.518  11.565  18.153  0.00  0.00    +0.000 A 
BRANCH  11  18
ATOM     17  C   UNL     1      -2.955   9.868  15.187  0.00  0.00    +0.000 C 
ATOM     18  O   UNL     1      -2.566  11.083  15.831  0.00  0.00    +0.000 OA
ENDBRANCH  11  18
ENDBRANCH  10  16
ENDBRANCH   9  10
ENDBRANCH   5   9
ENDBRANCH   1   6
BRANCH   3  19
ATOM     19  C   UNL     1       2.001   5.556  21.027  0.00  0.00    +0.000 C 
BRANCH  19  20
ATOM     20  C   UNL     1       2.283   4.881  19.637  0.00  0.00    +0.000 C 
ATOM     21  O   UNL     1       1.133   4.299  19.048  0.00  0.00    +0.000 OA
ATOM     22  C   UNL     1       0.672   3.116  19.670  0.00  0.00    +0.000 C 
ATOM     23  C   UNL     1       1.767   2.108  20.005  0.00  0.00    +0.000 C 
ATOM     24  C   UNL     1       3.129   2.707  20.342  0.00  0.00    +0.000 C 
ATOM     25  N   UNL     1       3.417   3.917  19.542  0.00  0.00    +0.000 NA
BRANCH  25  26
ATOM     26  S   UNL     1       3.863   3.618  17.878  0.00  0.00    +0.000 S 
ATOM     27  O   UNL     1       4.204   2.225  17.728  0.00  0.00    +0.000 OA
ATOM     28  O   UNL     1       2.841   4.204  17.035  0.00  0.00    +0.000 OA
BRANCH  26  29
ATOM     29  C   UNL     1       5.355   4.602  17.530  0.00  0.00    +0.000 A 
ATOM     30  C   UNL     1       5.827   5.376  18.614  0.00  0.00    +0.000 A 
ATOM     31  C   UNL     1       6.795   6.368  18.434  0.00  0.00    +0.000 A 
ATOM     32  C   UNL     1       7.325   6.578  17.174  0.00  0.00    +0.000 A 
ATOM     33  F   UNL     1       8.246   7.534  16.990  0.00  0.00    +0.000 F 
ATOM     34  C   UNL     1       6.881   5.836  16.088  0.00  0.00    +0.000 A 
ATOM     35  C   UNL     1       5.860   4.865  16.237  0.00  0.00    +0.000 A 
ATOM     36  C   UNL     1       5.358   4.239  14.961  0.00  0.00    +0.000 C 
ENDBRANCH  26  29
ENDBRANCH  25  26
ENDBRANCH  19  20
ENDBRANCH   3  19
TORSDOF 9
ENDMDL
MODEL 5
REMARK VINA RESULT:      -8.4      1.385      2.096
REMARK  Name = 
REMARK  11 active torsions:
REMARK  status: ('A' for Active; 'I' for Inactive)
REMARK    1  A    between atoms: C_1  and  O_2
REMARK    2  A    between atoms: O_2  and  C_3
REMARK    3  A    between atoms: C_8  and  C_9
REMARK    4  A    between atoms: C_9  and  C_10
REMARK    5  A    between atoms: C_10  and  N_11
REMARK    6  A    between atoms: C_12  and  C_14
REMARK    7  A    between atoms: N_16  and  C_17
REMARK    8  A    between atoms: C_17  and  C_18
REMARK    9  A    between atoms: N_23  and  S_24
REMARK   10  A    between atoms: S_24  and  C_27
REMARK   11  A    between atoms: C_33  and  C_34
REMARK                            x       y       z     vdW  Elec       q    Type
REMARK                         _______ _______ _______ _____ _____    ______ ____
ROOT
ATOM      1  C   UNL     1       1.230   8.763  20.468  0.00  0.00    +0.000 C 
ATOM      2  O   UNL     1       1.223   8.839  21.688  0.00  0.00    +0.000 OA
ATOM      3  N   UNL     1       1.673   7.675  19.724  0.00  0.00    +0.000 N 
ATOM      4  H   UNL     1       1.549   7.742  18.722  0.00  0.00    +0.000 HD
ENDROOT
BRANCH   1   6
ATOM      5  N   UNL     1      -0.628  10.277  19.875  0.00  0.00    +0.000 N 
ATOM      6  C   UNL     1       0.693   9.946  19.626  0.00  0.00    +0.000 C 
ATOM      7  O   UNL     1       1.429  10.488  18.810  0.00  0.00    +0.000 OA
ATOM      8  H   UNL     1      -1.135   9.728  20.566  0.00  0.00    +0.000 HD
BRANCH   5   9
ATOM      9  C   UNL     1      -1.263  11.327  19.109  0.00  0.00    +0.000 C 
BRANCH   9  10
ATOM     10  C   UNL     1      -2.312  12.166  19.841  0.00  0.00    +0.000 C 
BRANCH  10  16
ATOM     11  C   UNL     1      -4.833  12.526  19.590  0.00  0.00    +0.000 A 
ATOM     12  C   UNL     1      -6.007  12.409  18.837  0.00  0.00    +0.000 A 
ATOM     13  C   UNL     1      -5.985  11.781  17.592  0.00  0.00    +0.000 A 
ATOM     14  C   UNL     1      -4.783  11.311  17.073  0.00  0.00    +0.000 A 
ATOM     15  C   UNL     1      -3.596  11.502  17.780  0.00  0.00    +0.000 A 
ATOM     16  C   UNL     1      -3.602  12.118  19.043  0.00  0.00    +0.000 A 
BRANCH  11  18
ATOM     17  C   UNL     1      -5.947  12.614  21.667  0.00  0.00    +0.000 C 
ATOM     18  O   UNL     1      -4.821  13.002  20.876  0.00  0.00    +0.000 OA
ENDBRANCH  11  18
ENDBRANCH  10  16
ENDBRANCH   9  10
ENDBRANCH   5   9
ENDBRANCH   1   6
BRANCH   3  19
ATOM     19  C   UNL     1       2.210   6.500  20.410  0.00  0.00    +0.000 C 
BRANCH  19  20
ATOM     20  C   UNL     1       2.636   5.198  19.640  0.00  0.00    +0.000 C 
ATOM     21  O   UNL     1       1.563   4.561  18.969  0.00  0.00    +0.000 OA
ATOM     22  C   UNL     1       0.629   3.910  19.809  0.00  0.00    +0.000 C 
ATOM     23  C   UNL     1       1.253   3.061  20.912  0.00  0.00    +0.000 C 
ATOM     24  C   UNL     1       2.593   3.560  21.445  0.00  0.00    +0.000 C 
ATOM     25  N   UNL     1       3.422   4.170  20.382  0.00  0.00    +0.000 NA
BRANCH  25  26
ATOM     26  S   UNL     1       4.180   3.035  19.291  0.00  0.00    +0.000 S 
ATOM     27  O   UNL     1       5.214   2.321  20.000  0.00  0.00    +0.000 OA
ATOM     28  O   UNL     1       3.128   2.299  18.619  0.00  0.00    +0.000 OA
BRANCH  26  29
ATOM     29  C   UNL     1       4.972   4.001  17.966  0.00  0.00    +0.000 A 
ATOM     30  C   UNL     1       4.662   3.580  16.653  0.00  0.00    +0.000 A 
ATOM     31  C   UNL     1       5.381   4.048  15.549  0.00  0.00    +0.000 A 
ATOM     32  C   UNL     1       6.398   4.965  15.741  0.00  0.00    +0.000 A 
ATOM     33  F   UNL     1       7.099   5.411  14.690  0.00  0.00    +0.000 F 
ATOM     34  C   UNL     1       6.728   5.396  17.019  0.00  0.00    +0.000 A 
ATOM     35  C   UNL     1       6.051   4.893  18.156  0.00  0.00    +0.000 A 
ATOM     36  C   UNL     1       6.603   5.319  19.492  0.00  0.00    +0.000 C 
ENDBRANCH  26  29
ENDBRANCH  25  26
ENDBRANCH  19  20
ENDBRANCH   3  19
TORSDOF 9
ENDMDL
MODEL 6
REMARK VINA RESULT:      -8.4      1.606      1.851
REMARK  Name = 
REMARK  11 active torsions:
REMARK  status: ('A' for Active; 'I' for Inactive)
REMARK    1  A    between atoms: C_1  and  O_2
REMARK    2  A    between atoms: O_2  and  C_3
REMARK    3  A    between atoms: C_8  and  C_9
REMARK    4  A    between atoms: C_9  and  C_10
REMARK    5  A    between atoms: C_10  and  N_11
REMARK    6  A    between atoms: C_12  and  C_14
REMARK    7  A    between atoms: N_16  and  C_17
REMARK    8  A    between atoms: C_17  and  C_18
REMARK    9  A    between atoms: N_23  and  S_24
REMARK   10  A    between atoms: S_24  and  C_27
REMARK   11  A    between atoms: C_33  and  C_34
REMARK                            x       y       z     vdW  Elec       q    Type
REMARK                         _______ _______ _______ _____ _____    ______ ____
ROOT
ATOM      1  C   UNL     1       1.783   7.332  20.500  0.00  0.00    +0.000 C 
ATOM      2  O   UNL     1       2.725   7.266  19.724  0.00  0.00    +0.000 OA
ATOM      3  N   UNL     1       1.119   6.249  21.066  0.00  0.00    +0.000 N 
ATOM      4  H   UNL     1       0.401   6.472  21.744  0.00  0.00    +0.000 HD
ENDROOT
BRANCH   1   6
ATOM      5  N   UNL     1       0.631   9.443  19.939  0.00  0.00    +0.000 N 
ATOM      6  C   UNL     1       1.252   8.717  20.942  0.00  0.00    +0.000 C 
ATOM      7  O   UNL     1       1.417   9.084  22.099  0.00  0.00    +0.000 OA
ATOM      8  H   UNL     1       0.581   9.028  19.012  0.00  0.00    +0.000 HD
BRANCH   5   9
ATOM      9  C   UNL     1       0.146  10.778  20.214  0.00  0.00    +0.000 C 
BRANCH   9  10
ATOM     10  C   UNL     1      -0.123  11.668  18.998  0.00  0.00    +0.000 C 
BRANCH  10  16
ATOM     11  C   UNL     1      -2.665  11.958  19.015  0.00  0.00    +0.000 A 
ATOM     12  C   UNL     1      -3.931  11.595  18.541  0.00  0.00    +0.000 A 
ATOM     13  C   UNL     1      -4.068  10.556  17.622  0.00  0.00    +0.000 A 
ATOM     14  C   UNL     1      -2.938   9.908  17.135  0.00  0.00    +0.000 A 
ATOM     15  C   UNL     1      -1.668  10.322  17.538  0.00  0.00    +0.000 A 
ATOM     16  C   UNL     1      -1.513  11.356  18.476  0.00  0.00    +0.000 A 
BRANCH  11  18
ATOM     17  C   UNL     1      -3.386  12.733  21.123  0.00  0.00    +0.000 C 
ATOM     18  O   UNL     1      -2.484  12.870  20.024  0.00  0.00    +0.000 OA
ENDBRANCH  11  18
ENDBRANCH  10  16
ENDBRANCH   9  10
ENDBRANCH   5   9
ENDBRANCH   1   6
BRANCH   3  19
ATOM     19  C   UNL     1       1.527   4.888  20.719  0.00  0.00    +0.000 C 
BRANCH  19  20
ATOM     20  C   UNL     1       2.136   4.523  19.317  0.00  0.00    +0.000 C 
ATOM     21  O   UNL     1       1.257   3.774  18.498  0.00  0.00    +0.000 OA
ATOM     22  C   UNL     1       1.054   2.433  18.899  0.00  0.00    +0.000 C 
ATOM     23  C   UNL     1       2.329   1.684  19.276  0.00  0.00    +0.000 C 
ATOM     24  C   UNL     1       3.437   2.540  19.883  0.00  0.00    +0.000 C 
ATOM     25  N   UNL     1       3.488   3.892  19.283  0.00  0.00    +0.000 NA
BRANCH  25  26
ATOM     26  S   UNL     1       4.186   3.967  17.682  0.00  0.00    +0.000 S 
ATOM     27  O   UNL     1       4.551   2.635  17.266  0.00  0.00    +0.000 OA
ATOM     28  O   UNL     1       3.305   4.764  16.853  0.00  0.00    +0.000 OA
BRANCH  26  29
ATOM     29  C   UNL     1       5.711   4.956  17.801  0.00  0.00    +0.000 A 
ATOM     30  C   UNL     1       6.370   4.889  19.048  0.00  0.00    +0.000 A 
ATOM     31  C   UNL     1       7.397   5.779  19.378  0.00  0.00    +0.000 A 
ATOM     32  C   UNL     1       7.797   6.726  18.453  0.00  0.00    +0.000 A 
ATOM     33  F   UNL     1       8.773   7.589  18.765  0.00  0.00    +0.000 F 
ATOM     34  C   UNL     1       7.168   6.818  17.220  0.00  0.00    +0.000 A 
ATOM     35  C   UNL     1       6.088   5.965  16.886  0.00  0.00    +0.000 A 
ATOM     36  C   UNL     1       5.389   6.265  15.585  0.00  0.00    +0.000 C 
ENDBRANCH  26  29
ENDBRANCH  25  26
ENDBRANCH  19  20
ENDBRANCH   3  19
TORSDOF 9
ENDMDL
MODEL 7
REMARK VINA RESULT:      -8.4      2.831      4.986
REMARK  Name = 
REMARK  11 active torsions:
REMARK  status: ('A' for Active; 'I' for Inactive)
REMARK    1  A    between atoms: C_1  and  O_2
REMARK    2  A    between atoms: O_2  and  C_3
REMARK    3  A    between atoms: C_8  and  C_9
REMARK    4  A    between atoms: C_9  and  C_10
REMARK    5  A    between atoms: C_10  and  N_11
REMARK    6  A    between atoms: C_12  and  C_14
REMARK    7  A    between atoms: N_16  and  C_17
REMARK    8  A    between atoms: C_17  and  C_18
REMARK    9  A    between atoms: N_23  and  S_24
REMARK   10  A    between atoms: S_24  and  C_27
REMARK   11  A    between atoms: C_33  and  C_34
REMARK                            x       y       z     vdW  Elec       q    Type
REMARK                         _______ _______ _______ _____ _____    ______ ____
ROOT
ATOM      1  C   UNL     1       1.883   9.418  18.021  0.00  0.00    +0.000 C 
ATOM      2  O   UNL     1       2.564  10.267  17.464  0.00  0.00    +0.000 OA
ATOM      3  N   UNL     1       2.226   8.080  18.185  0.00  0.00    +0.000 N 
ATOM      4  H   UNL     1       1.582   7.519  18.730  0.00  0.00    +0.000 HD
ENDROOT
BRANCH   1   6
ATOM      5  N   UNL     1      -0.366  10.398  17.743  0.00  0.00    +0.000 N 
ATOM      6  C   UNL     1       0.518   9.814  18.634  0.00  0.00    +0.000 C 
ATOM      7  O   UNL     1       0.311   9.612  19.825  0.00  0.00    +0.000 OA
ATOM      8  H   UNL     1      -0.058  10.529  16.782  0.00  0.00    +0.000 HD
BRANCH   5   9
ATOM      9  C   UNL     1      -1.653  10.866  18.209  0.00  0.00    +0.000 C 
BRANCH   9  10
ATOM     10  C   UNL     1      -1.791  12.375  18.427  0.00  0.00    +0.000 C 
BRANCH  10  16
ATOM     11  C   UNL     1      -0.185  13.043  20.303  0.00  0.00    +0.000 A 
ATOM     12  C   UNL     1       0.072  13.255  21.663  0.00  0.00    +0.000 A 
ATOM     13  C   UNL     1      -0.912  12.992  22.615  0.00  0.00    +0.000 A 
ATOM     14  C   UNL     1      -2.171  12.563  22.211  0.00  0.00    +0.000 A 
ATOM     15  C   UNL     1      -2.460  12.433  20.853  0.00  0.00    +0.000 A 
ATOM     16  C   UNL     1      -1.476  12.677  19.881  0.00  0.00    +0.000 A 
BRANCH  11  18
ATOM     17  C   UNL     1       2.125  13.059  19.830  0.00  0.00    +0.000 C 
ATOM     18  O   UNL     1       0.786  13.146  19.340  0.00  0.00    +0.000 OA
ENDBRANCH  11  18
ENDBRANCH  10  16
ENDBRANCH   9  10
ENDBRANCH   5   9
ENDBRANCH   1   6
BRANCH   3  19
ATOM     19  C   UNL     1       3.490   7.585  17.642  0.00  0.00    +0.000 C 
BRANCH  19  20
ATOM     20  C   UNL     1       4.141   6.237  18.120  0.00  0.00    +0.000 C 
ATOM     21  O   UNL     1       5.466   6.388  18.597  0.00  0.00    +0.000 OA
ATOM     22  C   UNL     1       6.438   6.651  17.604  0.00  0.00    +0.000 C 
ATOM     23  C   UNL     1       6.330   5.772  16.362  0.00  0.00    +0.000 C 
ATOM     24  C   UNL     1       4.918   5.324  15.997  0.00  0.00    +0.000 C 
ATOM     25  N   UNL     1       4.089   5.067  17.195  0.00  0.00    +0.000 NA
BRANCH  25  26
ATOM     26  S   UNL     1       4.439   3.574  18.034  0.00  0.00    +0.000 S 
ATOM     27  O   UNL     1       4.242   2.470  17.128  0.00  0.00    +0.000 OA
ATOM     28  O   UNL     1       5.713   3.735  18.707  0.00  0.00    +0.000 OA
BRANCH  26  29
ATOM     29  C   UNL     1       3.232   3.414  19.387  0.00  0.00    +0.000 A 
ATOM     30  C   UNL     1       3.736   2.831  20.571  0.00  0.00    +0.000 A 
ATOM     31  C   UNL     1       2.883   2.410  21.596  0.00  0.00    +0.000 A 
ATOM     32  C   UNL     1       1.519   2.595  21.462  0.00  0.00    +0.000 A 
ATOM     33  F   UNL     1       0.693   2.184  22.435  0.00  0.00    +0.000 F 
ATOM     34  C   UNL     1       0.993   3.162  20.310  0.00  0.00    +0.000 A 
ATOM     35  C   UNL     1       1.833   3.544  19.236  0.00  0.00    +0.000 A 
ATOM     36  C   UNL     1       1.132   4.003  17.983  0.00  0.00    +0.000 C 
ENDBRANCH  26  29
ENDBRANCH  25  26
ENDBRANCH  19  20
ENDBRANCH   3  19
TORSDOF 9
ENDMDL
MODEL 8
REMARK VINA RESULT:      -8.3      6.995      9.911
REMARK  Name = 
REMARK  11 active torsions:
REMARK  status: ('A' for Active; 'I' for Inactive)
REMARK    1  A    between atoms: C_1  and  O_2
REMARK    2  A    between atoms: O_2  and  C_3
REMARK    3  A    between atoms: C_8  and  C_9
REMARK    4  A    between atoms: C_9  and  C_10
REMARK    5  A    between atoms: C_10  and  N_11
REMARK    6  A    between atoms: C_12  and  C_14
REMARK    7  A    between atoms: N_16  and  C_17
REMARK    8  A    between atoms: C_17  and  C_18
REMARK    9  A    between atoms: N_23  and  S_24
REMARK   10  A    between atoms: S_24  and  C_27
REMARK   11  A    between atoms: C_33  and  C_34
REMARK                            x       y       z     vdW  Elec       q    Type
REMARK                         _______ _______ _______ _____ _____    ______ ____
ROOT
ATOM      1  C   UNL     1       8.021   7.630  18.161  0.00  0.00    +0.000 C 
ATOM      2  O   UNL     1       8.508   7.016  19.099  0.00  0.00    +0.000 OA
ATOM      3  N   UNL     1       8.216   8.979  17.884  0.00  0.00    +0.000 N 
ATOM      4  H   UNL     1       7.796   9.322  17.029  0.00  0.00    +0.000 HD
ENDROOT
BRANCH   1   6
ATOM      5  N   UNL     1       5.791   6.777  17.532  0.00  0.00    +0.000 N 
ATOM      6  C   UNL     1       7.116   6.887  17.148  0.00  0.00    +0.000 C 
ATOM      7  O   UNL     1       7.606   6.443  16.115  0.00  0.00    +0.000 OA
ATOM      8  H   UNL     1       5.521   7.173  18.430  0.00  0.00    +0.000 HD
BRANCH   5   9
ATOM      9  C   UNL     1       4.858   6.052  16.697  0.00  0.00    +0.000 C 
BRANCH   9  10
ATOM     10  C   UNL     1       3.628   5.469  17.397  0.00  0.00    +0.000 C 
BRANCH  10  16
ATOM     11  C   UNL     1       2.648   6.364  19.584  0.00  0.00    +0.000 A 
ATOM     12  C   UNL     1       2.010   7.383  20.301  0.00  0.00    +0.000 A 
ATOM     13  C   UNL     1       1.608   8.552  19.657  0.00  0.00    +0.000 A 
ATOM     14  C   UNL     1       1.884   8.729  18.305  0.00  0.00    +0.000 A 
ATOM     15  C   UNL     1       2.595   7.755  17.606  0.00  0.00    +0.000 A 
ATOM     16  C   UNL     1       2.993   6.563  18.235  0.00  0.00    +0.000 A 
BRANCH  11  18
ATOM     17  C   UNL     1       1.982   4.676  21.091  0.00  0.00    +0.000 C 
ATOM     18  O   UNL     1       2.934   5.139  20.131  0.00  0.00    +0.000 OA
ENDBRANCH  11  18
ENDBRANCH  10  16
ENDBRANCH   9  10
ENDBRANCH   5   9
ENDBRANCH   1   6
BRANCH   3  19
ATOM     19  C   UNL     1       9.047   9.788  18.774  0.00  0.00    +0.000 C 
BRANCH  19  20
ATOM     20  C   UNL     1       9.277  11.325  18.546  0.00  0.00    +0.000 C 
ATOM     21  O   UNL     1      10.431  11.616  17.778  0.00  0.00    +0.000 OA
ATOM     22  C   UNL     1      11.663  11.403  18.439  0.00  0.00    +0.000 C 
ATOM     23  C   UNL     1      11.721  11.945  19.864  0.00  0.00    +0.000 C 
ATOM     24  C   UNL     1      10.397  11.937  20.622  0.00  0.00    +0.000 C 
ATOM     25  N   UNL     1       9.247  12.223  19.737  0.00  0.00    +0.000 NA
BRANCH  25  26
ATOM     26  S   UNL     1       9.069  13.898  19.269  0.00  0.00    +0.000 S 
ATOM     27  O   UNL     1      10.013  14.195  18.220  0.00  0.00    +0.000 OA
ATOM     28  O   UNL     1       7.657  14.150  19.059  0.00  0.00    +0.000 OA
BRANCH  26  29
ATOM     29  C   UNL     1       9.499  14.916  20.716  0.00  0.00    +0.000 A 
ATOM     30  C   UNL     1      10.692  15.662  20.588  0.00  0.00    +0.000 A 
ATOM     31  C   UNL     1      11.284  16.283  21.692  0.00  0.00    +0.000 A 
ATOM     32  C   UNL     1      10.676  16.191  22.930  0.00  0.00    +0.000 A 
ATOM     33  F   UNL     1      11.242  16.774  23.995  0.00  0.00    +0.000 F 
ATOM     34  C   UNL     1       9.504  15.463  23.088  0.00  0.00    +0.000 A 
ATOM     35  C   UNL     1       8.917  14.779  21.996  0.00  0.00    +0.000 A 
ATOM     36  C   UNL     1       7.738  13.901  22.328  0.00  0.00    +0.000 C 
ENDBRANCH  26  29
ENDBRANCH  25  26
ENDBRANCH  19  20
ENDBRANCH   3  19
TORSDOF 9
ENDMDL
MODEL 9
REMARK VINA RESULT:      -8.3      2.828      3.759
REMARK  Name = 
REMARK  11 active torsions:
REMARK  status: ('A' for Active; 'I' for Inactive)
REMARK    1  A    between atoms: C_1  and  O_2
REMARK    2  A    between atoms: O_2  and  C_3
REMARK    3  A    between atoms: C_8  and  C_9
REMARK    4  A    between atoms: C_9  and  C_10
REMARK    5  A    between atoms: C_10  and  N_11
REMARK    6  A    between atoms: C_12  and  C_14
REMARK    7  A    between atoms: N_16  and  C_17
REMARK    8  A    between atoms: C_17  and  C_18
REMARK    9  A    between atoms: N_23  and  S_24
REMARK   10  A    between atoms: S_24  and  C_27
REMARK   11  A    between atoms: C_33  and  C_34
REMARK                            x       y       z     vdW  Elec       q    Type
REMARK                         _______ _______ _______ _____ _____    ______ ____
ROOT
ATOM      1  C   UNL     1       1.772   8.052  19.748  0.00  0.00    +0.000 C 
ATOM      2  O   UNL     1       2.498   7.910  18.775  0.00  0.00    +0.000 OA
ATOM      3  N   UNL     1       1.621   7.143  20.789  0.00  0.00    +0.000 N 
ATOM      4  H   UNL     1       1.032   7.440  21.558  0.00  0.00    +0.000 HD
ENDROOT
BRANCH   1   6
ATOM      5  N   UNL     1       0.209   9.432  21.071  0.00  0.00    +0.000 N 
ATOM      6  C   UNL     1       0.939   9.348  19.898  0.00  0.00    +0.000 C 
ATOM      7  O   UNL     1       0.959  10.184  19.001  0.00  0.00    +0.000 OA
ATOM      8  H   UNL     1       0.265   8.654  21.724  0.00  0.00    +0.000 HD
BRANCH   5   9
ATOM      9  C   UNL     1      -0.656  10.569  21.299  0.00  0.00    +0.000 C 
BRANCH   9  10
ATOM     10  C   UNL     1      -0.990  10.889  22.758  0.00  0.00    +0.000 C 
BRANCH  10  16
ATOM     11  C   UNL     1      -2.540  12.844  23.323  0.00  0.00    +0.000 A 
ATOM     12  C   UNL     1      -2.801  14.219  23.347  0.00  0.00    +0.000 A 
ATOM     13  C   UNL     1      -1.883  15.119  22.807  0.00  0.00    +0.000 A 
ATOM     14  C   UNL     1      -0.680  14.654  22.286  0.00  0.00    +0.000 A 
ATOM     15  C   UNL     1      -0.378  13.294  22.338  0.00  0.00    +0.000 A 
ATOM     16  C   UNL     1      -1.298  12.371  22.863  0.00  0.00    +0.000 A 
BRANCH  11  18
ATOM     17  C   UNL     1      -4.354  12.332  24.742  0.00  0.00    +0.000 C 
ATOM     18  O   UNL     1      -3.466  11.907  23.706  0.00  0.00    +0.000 OA
ENDBRANCH  11  18
ENDBRANCH  10  16
ENDBRANCH   9  10
ENDBRANCH   5   9
ENDBRANCH   1   6
BRANCH   3  19
ATOM     19  C   UNL     1       2.354   5.877  20.757  0.00  0.00    +0.000 C 
BRANCH  19  20
ATOM     20  C   UNL     1       2.294   4.901  19.527  0.00  0.00    +0.000 C 
ATOM     21  O   UNL     1       1.045   4.247  19.386  0.00  0.00    +0.000 OA
ATOM     22  C   UNL     1       0.774   3.250  20.351  0.00  0.00    +0.000 C 
ATOM     23  C   UNL     1       1.937   2.300  20.624  0.00  0.00    +0.000 C 
ATOM     24  C   UNL     1       3.329   2.906  20.472  0.00  0.00    +0.000 C 
ATOM     25  N   UNL     1       3.387   3.897  19.375  0.00  0.00    +0.000 NA
BRANCH  25  26
ATOM     26  S   UNL     1       3.411   3.220  17.764  0.00  0.00    +0.000 S 
ATOM     27  O   UNL     1       3.771   1.826  17.847  0.00  0.00    +0.000 OA
ATOM     28  O   UNL     1       2.180   3.607  17.104  0.00  0.00    +0.000 OA
BRANCH  26  29
ATOM     29  C   UNL     1       4.715   4.083  16.831  0.00  0.00    +0.000 A 
ATOM     30  C   UNL     1       4.683   3.879  15.433  0.00  0.00    +0.000 A 
ATOM     31  C   UNL     1       5.753   4.258  14.617  0.00  0.00    +0.000 A 
ATOM     32  C   UNL     1       6.853   4.873  15.184  0.00  0.00    +0.000 A 
ATOM     33  F   UNL     1       7.888   5.231  14.411  0.00  0.00    +0.000 F 
ATOM     34  C   UNL     1       6.916   5.086  16.554  0.00  0.00    +0.000 A 
ATOM     35  C   UNL     1       5.869   4.659  17.407  0.00  0.00    +0.000 A 
ATOM     36  C   UNL     1       6.123   4.806  18.885  0.00  0.00    +0.000 C 
ENDBRANCH  26  29
ENDBRANCH  25  26
ENDBRANCH  19  20
ENDBRANCH   3  19
TORSDOF 9
ENDMDL
