MODEL 1
REMARK VINA RESULT:      -9.4      0.000      0.000
REMARK  Name = 
REMARK  9 active torsions:
REMARK  status: ('A' for Active; 'I' for Inactive)
REMARK    1  A    between atoms: C_1  and  O_2
REMARK    2  A    between atoms: O_2  and  C_3
REMARK    3  A    between atoms: C_12  and  C_13
REMARK    4  A    between atoms: C_13  and  O_14
REMARK    5  A    between atoms: C_13  and  C_15
REMARK    6  A    between atoms: C_15  and  C_16
REMARK    7  A    between atoms: C_16  and  C_17
REMARK    8  A    between atoms: C_17  and  C_18
REMARK    9  A    between atoms: N_28  and  C_29
REMARK                            x       y       z     vdW  Elec       q    Type
REMARK                         _______ _______ _______ _____ _____    ______ ____
ROOT
ATOM      1  C   UNL     1       1.777   8.462  19.509  0.00  0.00    +0.000 A 
ATOM      2  C   UNL     1       1.432   7.983  20.797  0.00  0.00    +0.000 A 
ATOM      3  C   UNL     1       1.569   6.615  21.180  0.00  0.00    +0.000 A 
ATOM      4  C   UNL     1       2.025   5.694  20.250  0.00  0.00    +0.000 A 
ATOM      5  C   UNL     1       2.372   6.255  18.999  0.00  0.00    +0.000 A 
ATOM      6  C   UNL     1       2.348   7.573  18.627  0.00  0.00    +0.000 A 
ATOM      7  O   UNL     1       3.062   7.826  17.470  0.00  0.00    +0.000 OA
ATOM      8  C   UNL     1       3.603   6.539  17.010  0.00  0.00    +0.000 C 
ATOM      9  C   UNL     1       5.116   6.614  16.743  0.00  0.00    +0.000 C 
ATOM     10  C   UNL     1       6.065   6.283  17.651  0.00  0.00    +0.000 C 
ATOM     11  C   UNL     1       5.612   5.763  18.975  0.00  0.00    +0.000 C 
ATOM     12  C   UNL     1       4.277   5.043  19.023  0.00  0.00    +0.000 C 
ATOM     13  C   UNL     1       3.792   3.718  19.598  0.00  0.00    +0.000 C 
ATOM     14  C   UNL     1       2.510   4.212  20.527  0.00  0.00    +0.000 C 
ATOM     15  N   UNL     1       3.587   2.764  18.486  0.00  0.00    +0.000 NA
ATOM     16  C   UNL     1       3.500   1.354  18.845  0.00  0.00    +0.000 C 
ATOM     17  C   UNL     1       2.715   3.107  17.381  0.00  0.00    +0.000 C 
ATOM     18  C   UNL     1       2.143   4.485  17.498  0.00  0.00    +0.000 C 
ATOM     19  C   UNL     1       3.187   5.488  18.033  0.00  0.00    +0.000 C 
ENDROOT
BRANCH   1  21
ATOM     20  C   UNL     1       0.198  10.137  19.175  0.00  0.00    +0.000 C 
ATOM     21  O   UNL     1       1.584   9.788  19.249  0.00  0.00    +0.000 OA
ENDBRANCH   1  21
BRANCH  10  22
ATOM     22  C   UNL     1       7.559   6.568  17.698  0.00  0.00    +0.000 C 
BRANCH  22  23
ATOM     23  O   UNL     1       7.991   6.965  16.388  0.00  0.00    +0.000 OA
ATOM     24  H   UNL     1       8.445   7.816  16.488  0.00  0.00    +0.000 HD
ENDBRANCH  22  23
BRANCH  22  25
ATOM     25  C   UNL     1       8.207   7.521  18.697  0.00  0.00    +0.000 C 
BRANCH  25  26
ATOM     26  C   UNL     1       8.361   8.942  18.171  0.00  0.00    +0.000 C 
BRANCH  26  27
ATOM     27  C   UNL     1       9.169   9.809  19.137  0.00  0.00    +0.000 C 
BRANCH  27  28
ATOM     28  C   UNL     1       9.657  11.057  18.445  0.00  0.00    +0.000 A 
ATOM     29  C   UNL     1      11.028  11.289  18.277  0.00  0.00    +0.000 A 
ATOM     30  C   UNL     1      11.477  12.468  17.659  0.00  0.00    +0.000 A 
ATOM     31  C   UNL     1      10.568  13.411  17.215  0.00  0.00    +0.000 A 
ATOM     32  C   UNL     1       9.197  13.192  17.390  0.00  0.00    +0.000 A 
ATOM     33  C   UNL     1       8.750  12.019  17.996  0.00  0.00    +0.000 A 
ENDBRANCH  27  28
ENDBRANCH  26  27
ENDBRANCH  25  26
ENDBRANCH  22  25
ENDBRANCH  10  22
TORSDOF 7
ENDMDL
MODEL 2
REMARK VINA RESULT:      -9.2      0.934      1.261
REMARK  Name = 
REMARK  9 active torsions:
REMARK  status: ('A' for Active; 'I' for Inactive)
REMARK    1  A    between atoms: C_1  and  O_2
REMARK    2  A    between atoms: O_2  and  C_3
REMARK    3  A    between atoms: C_12  and  C_13
REMARK    4  A    between atoms: C_13  and  O_14
REMARK    5  A    between atoms: C_13  and  C_15
REMARK    6  A    between atoms: C_15  and  C_16
REMARK    7  A    between atoms: C_16  and  C_17
REMARK    8  A    between atoms: C_17  and  C_18
REMARK    9  A    between atoms: N_28  and  C_29
REMARK                            x       y       z     vdW  Elec       q    Type
REMARK                         _______ _______ _______ _____ _____    ______ ____
ROOT
ATOM      1  C   UNL     1       1.584   8.885  19.578  0.00  0.00    +0.000 A 
ATOM      2  C   UNL     1       1.206   8.497  20.887  0.00  0.00    +0.000 A 
ATOM      3  C   UNL     1       1.244   7.143  21.337  0.00  0.00    +0.000 A 
ATOM      4  C   UNL     1       1.631   6.146  20.455  0.00  0.00    +0.000 A 
ATOM      5  C   UNL     1       2.016   6.618  19.178  0.00  0.00    +0.000 A 
ATOM      6  C   UNL     1       2.087   7.915  18.743  0.00  0.00    +0.000 A 
ATOM      7  O   UNL     1       2.816   8.057  17.576  0.00  0.00    +0.000 OA
ATOM      8  C   UNL     1       3.262   6.713  17.181  0.00  0.00    +0.000 C 
ATOM      9  C   UNL     1       4.776   6.665  16.915  0.00  0.00    +0.000 C 
ATOM     10  C   UNL     1       5.699   6.311  17.841  0.00  0.00    +0.000 C 
ATOM     11  C   UNL     1       5.211   5.892  19.187  0.00  0.00    +0.000 C 
ATOM     12  C   UNL     1       3.828   5.274  19.267  0.00  0.00    +0.000 C 
ATOM     13  C   UNL     1       3.248   4.017  19.906  0.00  0.00    +0.000 C 
ATOM     14  C   UNL     1       2.008   4.648  20.806  0.00  0.00    +0.000 C 
ATOM     15  N   UNL     1       2.974   3.027  18.842  0.00  0.00    +0.000 NA
ATOM     16  C   UNL     1       2.785   1.646  19.270  0.00  0.00    +0.000 C 
ATOM     17  C   UNL     1       2.128   3.377  17.719  0.00  0.00    +0.000 C 
ATOM     18  C   UNL     1       1.657   4.798  17.767  0.00  0.00    +0.000 C 
ATOM     19  C   UNL     1       2.772   5.747  18.254  0.00  0.00    +0.000 C 
ENDROOT
BRANCH   1  21
ATOM     20  C   UNL     1       0.149  10.703  19.360  0.00  0.00    +0.000 C 
ATOM     21  O   UNL     1       1.487  10.207  19.252  0.00  0.00    +0.000 OA
ENDBRANCH   1  21
BRANCH  10  22
ATOM     22  C   UNL     1       7.211   6.489  17.876  0.00  0.00    +0.000 C 
BRANCH  22  23
ATOM     23  O   UNL     1       7.821   5.363  17.228  0.00  0.00    +0.000 OA
ATOM     24  H   UNL     1       7.524   4.572  17.703  0.00  0.00    +0.000 HD
ENDBRANCH  22  23
BRANCH  22  25
ATOM     25  C   UNL     1       7.926   7.741  17.380  0.00  0.00    +0.000 C 
BRANCH  25  26
ATOM     26  C   UNL     1       8.527   8.583  18.497  0.00  0.00    +0.000 C 
BRANCH  26  27
ATOM     27  C   UNL     1       8.393  10.077  18.203  0.00  0.00    +0.000 C 
BRANCH  27  28
ATOM     28  C   UNL     1       9.579  10.831  18.750  0.00  0.00    +0.000 A 
ATOM     29  C   UNL     1       9.661  11.141  20.113  0.00  0.00    +0.000 A 
ATOM     30  C   UNL     1      10.754  11.871  20.610  0.00  0.00    +0.000 A 
ATOM     31  C   UNL     1      11.755  12.294  19.755  0.00  0.00    +0.000 A 
ATOM     32  C   UNL     1      11.675  12.000  18.389  0.00  0.00    +0.000 A 
ATOM     33  C   UNL     1      10.595  11.268  17.897  0.00  0.00    +0.000 A 
ENDBRANCH  27  28
ENDBRANCH  26  27
ENDBRANCH  25  26
ENDBRANCH  22  25
ENDBRANCH  10  22
TORSDOF 7
ENDMDL
MODEL 3
REMARK VINA RESULT:      -7.7      3.425      4.888
REMARK  Name = 
REMARK  9 active torsions:
REMARK  status: ('A' for Active; 'I' for Inactive)
REMARK    1  A    between atoms: C_1  and  O_2
REMARK    2  A    between atoms: O_2  and  C_3
REMARK    3  A    between atoms: C_12  and  C_13
REMARK    4  A    between atoms: C_13  and  O_14
REMARK    5  A    between atoms: C_13  and  C_15
REMARK    6  A    between atoms: C_15  and  C_16
REMARK    7  A    between atoms: C_16  and  C_17
REMARK    8  A    between atoms: C_17  and  C_18
REMARK    9  A    between atoms: N_28  and  C_29
REMARK                            x       y       z     vdW  Elec       q    Type
REMARK                         _______ _______ _______ _____ _____    ______ ____
ROOT
ATOM      1  C   UNL     1       1.685   8.960  19.672  0.00  0.00    +0.000 A 
ATOM      2  C   UNL     1       1.130   8.607  20.927  0.00  0.00    +0.000 A 
ATOM      3  C   UNL     1       0.953   7.254  21.345  0.00  0.00    +0.000 A 
ATOM      4  C   UNL     1       1.301   6.227  20.481  0.00  0.00    +0.000 A 
ATOM      5  C   UNL     1       1.871   6.662  19.261  0.00  0.00    +0.000 A 
ATOM      6  C   UNL     1       2.147   7.944  18.867  0.00  0.00    +0.000 A 
ATOM      7  O   UNL     1       3.004   8.007  17.784  0.00  0.00    +0.000 OA
ATOM      8  C   UNL     1       3.316   6.623  17.402  0.00  0.00    +0.000 C 
ATOM      9  C   UNL     1       4.832   6.387  17.287  0.00  0.00    +0.000 C 
ATOM     10  C   UNL     1       5.605   5.908  18.291  0.00  0.00    +0.000 C 
ATOM     11  C   UNL     1       4.933   5.538  19.572  0.00  0.00    +0.000 C 
ATOM     12  C   UNL     1       3.482   5.098  19.498  0.00  0.00    +0.000 C 
ATOM     13  C   UNL     1       2.689   3.918  20.044  0.00  0.00    +0.000 C 
ATOM     14  C   UNL     1       1.451   4.689  20.830  0.00  0.00    +0.000 C 
ATOM     15  N   UNL     1       2.404   2.983  18.933  0.00  0.00    +0.000 NA
ATOM     16  C   UNL     1       2.001   1.632  19.306  0.00  0.00    +0.000 C 
ATOM     17  C   UNL     1       1.727   3.450  17.740  0.00  0.00    +0.000 C 
ATOM     18  C   UNL     1       1.434   4.918  17.776  0.00  0.00    +0.000 C 
ATOM     19  C   UNL     1       2.603   5.713  18.396  0.00  0.00    +0.000 C 
ENDROOT
BRANCH   1  21
ATOM     20  C   UNL     1       0.632  10.787  18.691  0.00  0.00    +0.000 C 
ATOM     21  O   UNL     1       1.788  10.287  19.372  0.00  0.00    +0.000 OA
ENDBRANCH   1  21
BRANCH  10  22
ATOM     22  C   UNL     1       7.115   5.893  18.482  0.00  0.00    +0.000 C 
BRANCH  22  23
ATOM     23  O   UNL     1       7.399   5.897  19.889  0.00  0.00    +0.000 OA
ATOM     24  H   UNL     1       7.761   5.024  20.104  0.00  0.00    +0.000 HD
ENDBRANCH  22  23
BRANCH  22  25
ATOM     25  C   UNL     1       8.038   4.866  17.836  0.00  0.00    +0.000 C 
BRANCH  25  26
ATOM     26  C   UNL     1       7.470   4.252  16.564  0.00  0.00    +0.000 C 
BRANCH  26  27
ATOM     27  C   UNL     1       7.426   5.271  15.424  0.00  0.00    +0.000 C 
BRANCH  27  28
ATOM     28  C   UNL     1       6.822   4.654  14.188  0.00  0.00    +0.000 A 
ATOM     29  C   UNL     1       5.533   4.107  14.221  0.00  0.00    +0.000 A 
ATOM     30  C   UNL     1       4.988   3.506  13.073  0.00  0.00    +0.000 A 
ATOM     31  C   UNL     1       5.723   3.445  11.904  0.00  0.00    +0.000 A 
ATOM     32  C   UNL     1       7.017   3.978  11.866  0.00  0.00    +0.000 A 
ATOM     33  C   UNL     1       7.555   4.582  13.002  0.00  0.00    +0.000 A 
ENDBRANCH  27  28
ENDBRANCH  26  27
ENDBRANCH  25  26
ENDBRANCH  22  25
ENDBRANCH  10  22
TORSDOF 7
ENDMDL
MODEL 4
REMARK VINA RESULT:      -7.7      1.150      1.515
REMARK  Name = 
REMARK  9 active torsions:
REMARK  status: ('A' for Active; 'I' for Inactive)
REMARK    1  A    between atoms: C_1  and  O_2
REMARK    2  A    between atoms: O_2  and  C_3
REMARK    3  A    between atoms: C_12  and  C_13
REMARK    4  A    between atoms: C_13  and  O_14
REMARK    5  A    between atoms: C_13  and  C_15
REMARK    6  A    between atoms: C_15  and  C_16
REMARK    7  A    between atoms: C_16  and  C_17
REMARK    8  A    between atoms: C_17  and  C_18
REMARK    9  A    between atoms: N_28  and  C_29
REMARK                            x       y       z     vdW  Elec       q    Type
REMARK                         _______ _______ _______ _____ _____    ______ ____
ROOT
ATOM      1  C   UNL     1       1.442   8.686  19.744  0.00  0.00    +0.000 A 
ATOM      2  C   UNL     1       1.202   8.165  21.040  0.00  0.00    +0.000 A 
ATOM      3  C   UNL     1       1.458   6.806  21.391  0.00  0.00    +0.000 A 
ATOM      4  C   UNL     1       1.929   5.933  20.423  0.00  0.00    +0.000 A 
ATOM      5  C   UNL     1       2.168   6.535  19.165  0.00  0.00    +0.000 A 
ATOM      6  C   UNL     1       2.028   7.853  18.819  0.00  0.00    +0.000 A 
ATOM      7  O   UNL     1       2.660   8.172  17.631  0.00  0.00    +0.000 OA
ATOM      8  C   UNL     1       3.267   6.934  17.120  0.00  0.00    +0.000 C 
ATOM      9  C   UNL     1       4.755   7.124  16.777  0.00  0.00    +0.000 C 
ATOM     10  C   UNL     1       5.772   6.851  17.628  0.00  0.00    +0.000 C 
ATOM     11  C   UNL     1       5.428   6.282  18.965  0.00  0.00    +0.000 C 
ATOM     12  C   UNL     1       4.154   5.465  19.070  0.00  0.00    +0.000 C 
ATOM     13  C   UNL     1       3.797   4.101  19.646  0.00  0.00    +0.000 C 
ATOM     14  C   UNL     1       2.534   4.487  20.649  0.00  0.00    +0.000 C 
ATOM     15  N   UNL     1       3.603   3.149  18.530  0.00  0.00    +0.000 NA
ATOM     16  C   UNL     1       3.637   1.731  18.869  0.00  0.00    +0.000 C 
ATOM     17  C   UNL     1       2.651   3.442  17.478  0.00  0.00    +0.000 C 
ATOM     18  C   UNL     1       1.987   4.773  17.648  0.00  0.00    +0.000 C 
ATOM     19  C   UNL     1       2.984   5.842  18.146  0.00  0.00    +0.000 C 
ENDROOT
BRANCH   1  21
ATOM     20  C   UNL     1       0.400  10.189  18.308  0.00  0.00    +0.000 C 
ATOM     21  O   UNL     1       1.141   9.997  19.518  0.00  0.00    +0.000 OA
ENDBRANCH   1  21
BRANCH  10  22
ATOM     22  C   UNL     1       7.242   7.244  17.602  0.00  0.00    +0.000 C 
BRANCH  22  23
ATOM     23  O   UNL     1       7.867   6.607  16.477  0.00  0.00    +0.000 OA
ATOM     24  H   UNL     1       7.155   6.226  15.941  0.00  0.00    +0.000 HD
ENDBRANCH  22  23
BRANCH  22  25
ATOM     25  C   UNL     1       7.731   8.688  17.635  0.00  0.00    +0.000 C 
BRANCH  25  26
ATOM     26  C   UNL     1       8.622   9.002  18.829  0.00  0.00    +0.000 C 
BRANCH  26  27
ATOM     27  C   UNL     1       9.633  10.100  18.497  0.00  0.00    +0.000 C 
BRANCH  27  28
ATOM     28  C   UNL     1       9.397  11.314  19.361  0.00  0.00    +0.000 A 
ATOM     29  C   UNL     1       8.795  12.461  18.830  0.00  0.00    +0.000 A 
ATOM     30  C   UNL     1       8.606  13.599  19.633  0.00  0.00    +0.000 A 
ATOM     31  C   UNL     1       9.020  13.596  20.952  0.00  0.00    +0.000 A 
ATOM     32  C   UNL     1       9.635  12.459  21.487  0.00  0.00    +0.000 A 
ATOM     33  C   UNL     1       9.814  11.326  20.693  0.00  0.00    +0.000 A 
ENDBRANCH  27  28
ENDBRANCH  26  27
ENDBRANCH  25  26
ENDBRANCH  22  25
ENDBRANCH  10  22
TORSDOF 7
ENDMDL
MODEL 5
REMARK VINA RESULT:      -7.6      6.739     11.773
REMARK  Name = 
REMARK  9 active torsions:
REMARK  status: ('A' for Active; 'I' for Inactive)
REMARK    1  A    between atoms: C_1  and  O_2
REMARK    2  A    between atoms: O_2  and  C_3
REMARK    3  A    between atoms: C_12  and  C_13
REMARK    4  A    between atoms: C_13  and  O_14
REMARK    5  A    between atoms: C_13  and  C_15
REMARK    6  A    between atoms: C_15  and  C_16
REMARK    7  A    between atoms: C_16  and  C_17
REMARK    8  A    between atoms: C_17  and  C_18
REMARK    9  A    between atoms: N_28  and  C_29
REMARK                            x       y       z     vdW  Elec       q    Type
REMARK                         _______ _______ _______ _____ _____    ______ ____
ROOT
ATOM      1  C   UNL     1      -0.287   9.314  21.419  0.00  0.00    +0.000 A 
ATOM      2  C   UNL     1      -0.572   9.666  22.763  0.00  0.00    +0.000 A 
ATOM      3  C   UNL     1      -0.895  10.996  23.165  0.00  0.00    +0.000 A 
ATOM      4  C   UNL     1      -0.899  12.008  22.218  0.00  0.00    +0.000 A 
ATOM      5  C   UNL     1      -0.631  11.572  20.900  0.00  0.00    +0.000 A 
ATOM      6  C   UNL     1      -0.415  10.293  20.461  0.00  0.00    +0.000 A 
ATOM      7  O   UNL     1      -0.523  10.163  19.088  0.00  0.00    +0.000 OA
ATOM      8  C   UNL     1      -0.822  11.500  18.553  0.00  0.00    +0.000 C 
ATOM      9  C   UNL     1      -2.050  11.485  17.626  0.00  0.00    +0.000 C 
ATOM     10  C   UNL     1      -3.313  11.755  18.033  0.00  0.00    +0.000 C 
ATOM     11  C   UNL     1      -3.518  12.141  19.459  0.00  0.00    +0.000 C 
ATOM     12  C   UNL     1      -2.364  12.822  20.172  0.00  0.00    +0.000 C 
ATOM     13  C   UNL     1      -2.218  14.077  21.023  0.00  0.00    +0.000 C 
ATOM     14  C   UNL     1      -1.486  13.470  22.381  0.00  0.00    +0.000 C 
ATOM     15  N   UNL     1      -1.552  15.123  20.217  0.00  0.00    +0.000 NA
ATOM     16  C   UNL     1      -1.664  16.493  20.704  0.00  0.00    +0.000 C 
ATOM     17  C   UNL     1      -0.267  14.862  19.599  0.00  0.00    +0.000 C 
ATOM     18  C   UNL     1       0.218  13.465  19.835  0.00  0.00    +0.000 C 
ATOM     19  C   UNL     1      -0.936  12.443  19.746  0.00  0.00    +0.000 C 
ENDROOT
BRANCH   1  21
ATOM     20  C   UNL     1       1.433   7.818  20.958  0.00  0.00    +0.000 C 
ATOM     21  O   UNL     1       0.028   8.013  21.155  0.00  0.00    +0.000 OA
ENDBRANCH   1  21
BRANCH  10  22
ATOM     22  C   UNL     1      -4.661  11.502  17.372  0.00  0.00    +0.000 C 
BRANCH  22  23
ATOM     23  O   UNL     1      -4.437  10.871  16.102  0.00  0.00    +0.000 OA
ATOM     24  H   UNL     1      -3.625  10.349  16.188  0.00  0.00    +0.000 HD
ENDBRANCH  22  23
BRANCH  22  25
ATOM     25  C   UNL     1      -5.809  10.763  18.050  0.00  0.00    +0.000 C 
BRANCH  25  26
ATOM     26  C   UNL     1      -7.045  11.626  18.266  0.00  0.00    +0.000 C 
BRANCH  26  27
ATOM     27  C   UNL     1      -7.456  11.652  19.739  0.00  0.00    +0.000 C 
BRANCH  27  28
ATOM     28  C   UNL     1      -6.779  12.794  20.456  0.00  0.00    +0.000 A 
ATOM     29  C   UNL     1      -6.345  12.648  21.779  0.00  0.00    +0.000 A 
ATOM     30  C   UNL     1      -5.743  13.726  22.451  0.00  0.00    +0.000 A 
ATOM     31  C   UNL     1      -5.580  14.941  21.811  0.00  0.00    +0.000 A 
ATOM     32  C   UNL     1      -6.023  15.099  20.493  0.00  0.00    +0.000 A 
ATOM     33  C   UNL     1      -6.612  14.027  19.823  0.00  0.00    +0.000 A 
ENDBRANCH  27  28
ENDBRANCH  26  27
ENDBRANCH  25  26
ENDBRANCH  22  25
ENDBRANCH  10  22
TORSDOF 7
ENDMDL
MODEL 6
REMARK VINA RESULT:      -7.3      5.072      9.562
REMARK  Name = 
REMARK  9 active torsions:
REMARK  status: ('A' for Active; 'I' for Inactive)
REMARK    1  A    between atoms: C_1  and  O_2
REMARK    2  A    between atoms: O_2  and  C_3
REMARK    3  A    between atoms: C_12  and  C_13
REMARK    4  A    between atoms: C_13  and  O_14
REMARK    5  A    between atoms: C_13  and  C_15
REMARK    6  A    between atoms: C_15  and  C_16
REMARK    7  A    between atoms: C_16  and  C_17
REMARK    8  A    between atoms: C_17  and  C_18
REMARK    9  A    between atoms: N_28  and  C_29
REMARK                            x       y       z     vdW  Elec       q    Type
REMARK                         _______ _______ _______ _____ _____    ______ ____
ROOT
ATOM      1  C   UNL     1       1.432  15.577  19.111  0.00  0.00    +0.000 A 
ATOM      2  C   UNL     1       1.707  16.251  20.328  0.00  0.00    +0.000 A 
ATOM      3  C   UNL     1       1.029  15.959  21.548  0.00  0.00    +0.000 A 
ATOM      4  C   UNL     1       0.027  15.001  21.554  0.00  0.00    +0.000 A 
ATOM      5  C   UNL     1      -0.169  14.358  20.310  0.00  0.00    +0.000 A 
ATOM      6  C   UNL     1       0.528  14.541  19.145  0.00  0.00    +0.000 A 
ATOM      7  O   UNL     1       0.321  13.531  18.223  0.00  0.00    +0.000 OA
ATOM      8  C   UNL     1      -0.628  12.585  18.828  0.00  0.00    +0.000 C 
ATOM      9  C   UNL     1      -0.110  11.137  18.771  0.00  0.00    +0.000 C 
ATOM     10  C   UNL     1       0.577  10.536  19.771  0.00  0.00    +0.000 C 
ATOM     11  C   UNL     1       0.801  11.311  21.027  0.00  0.00    +0.000 C 
ATOM     12  C   UNL     1      -0.223  12.373  21.384  0.00  0.00    +0.000 C 
ATOM     13  C   UNL     1      -1.014  12.723  22.639  0.00  0.00    +0.000 C 
ATOM     14  C   UNL     1      -0.650  14.330  22.819  0.00  0.00    +0.000 C 
ATOM     15  N   UNL     1      -2.415  12.288  22.453  0.00  0.00    +0.000 NA
ATOM     16  C   UNL     1      -3.230  12.181  23.658  0.00  0.00    +0.000 C 
ATOM     17  C   UNL     1      -3.179  12.750  21.312  0.00  0.00    +0.000 C 
ATOM     18  C   UNL     1      -2.379  13.620  20.392  0.00  0.00    +0.000 C 
ATOM     19  C   UNL     1      -0.936  13.097  20.231  0.00  0.00    +0.000 C 
ENDROOT
BRANCH   1  21
ATOM     20  C   UNL     1       3.410  16.510  18.320  0.00  0.00    +0.000 C 
ATOM     21  O   UNL     1       2.130  15.955  18.001  0.00  0.00    +0.000 OA
ENDBRANCH   1  21
BRANCH  10  22
ATOM     22  C   UNL     1       1.416   9.266  19.797  0.00  0.00    +0.000 C 
BRANCH  22  23
ATOM     23  O   UNL     1       0.798   8.326  20.687  0.00  0.00    +0.000 OA
ATOM     24  H   UNL     1       0.623   8.798  21.516  0.00  0.00    +0.000 HD
ENDBRANCH  22  23
BRANCH  22  25
ATOM     25  C   UNL     1       1.829   8.501  18.544  0.00  0.00    +0.000 C 
BRANCH  25  26
ATOM     26  C   UNL     1       2.772   7.339  18.824  0.00  0.00    +0.000 C 
BRANCH  26  27
ATOM     27  C   UNL     1       2.482   6.152  17.904  0.00  0.00    +0.000 C 
BRANCH  27  28
ATOM     28  C   UNL     1       1.941   4.989  18.698  0.00  0.00    +0.000 A 
ATOM     29  C   UNL     1       1.885   5.045  20.096  0.00  0.00    +0.000 A 
ATOM     30  C   UNL     1       1.408   3.947  20.831  0.00  0.00    +0.000 A 
ATOM     31  C   UNL     1       0.995   2.799  20.179  0.00  0.00    +0.000 A 
ATOM     32  C   UNL     1       1.060   2.731  18.783  0.00  0.00    +0.000 A 
ATOM     33  C   UNL     1       1.525   3.824  18.052  0.00  0.00    +0.000 A 
ENDBRANCH  27  28
ENDBRANCH  26  27
ENDBRANCH  25  26
ENDBRANCH  22  25
ENDBRANCH  10  22
TORSDOF 7
ENDMDL
MODEL 7
REMARK VINA RESULT:      -7.2      6.487     11.818
REMARK  Name = 
REMARK  9 active torsions:
REMARK  status: ('A' for Active; 'I' for Inactive)
REMARK    1  A    between atoms: C_1  and  O_2
REMARK    2  A    between atoms: O_2  and  C_3
REMARK    3  A    between atoms: C_12  and  C_13
REMARK    4  A    between atoms: C_13  and  O_14
REMARK    5  A    between atoms: C_13  and  C_15
REMARK    6  A    between atoms: C_15  and  C_16
REMARK    7  A    between atoms: C_16  and  C_17
REMARK    8  A    between atoms: C_17  and  C_18
REMARK    9  A    between atoms: N_28  and  C_29
REMARK                            x       y       z     vdW  Elec       q    Type
REMARK                         _______ _______ _______ _____ _____    ______ ____
ROOT
ATOM      1  C   UNL     1      -0.041   9.062  21.351  0.00  0.00    +0.000 A 
ATOM      2  C   UNL     1      -0.436   9.242  22.701  0.00  0.00    +0.000 A 
ATOM      3  C   UNL     1      -0.858  10.499  23.226  0.00  0.00    +0.000 A 
ATOM      4  C   UNL     1      -0.854  11.614  22.401  0.00  0.00    +0.000 A 
ATOM      5  C   UNL     1      -0.473  11.347  21.066  0.00  0.00    +0.000 A 
ATOM      6  C   UNL     1      -0.157  10.139  20.502  0.00  0.00    +0.000 A 
ATOM      7  O   UNL     1      -0.164  10.165  19.120  0.00  0.00    +0.000 OA
ATOM      8  C   UNL     1      -0.500  11.539  18.718  0.00  0.00    +0.000 C 
ATOM      9  C   UNL     1      -1.658  11.575  17.706  0.00  0.00    +0.000 C 
ATOM     10  C   UNL     1      -2.959  11.736  18.046  0.00  0.00    +0.000 C 
ATOM     11  C   UNL     1      -3.282  11.943  19.489  0.00  0.00    +0.000 C 
ATOM     12  C   UNL     1      -2.219  12.590  20.356  0.00  0.00    +0.000 C 
ATOM     13  C   UNL     1      -2.201  13.743  21.353  0.00  0.00    +0.000 C 
ATOM     14  C   UNL     1      -1.530  13.018  22.684  0.00  0.00    +0.000 C 
ATOM     15  N   UNL     1      -1.540  14.906  20.720  0.00  0.00    +0.000 NA
ATOM     16  C   UNL     1      -1.760  16.203  21.349  0.00  0.00    +0.000 C 
ATOM     17  C   UNL     1      -0.204  14.779  20.174  0.00  0.00    +0.000 C 
ATOM     18  C   UNL     1       0.340  13.388  20.287  0.00  0.00    +0.000 C 
ATOM     19  C   UNL     1      -0.746  12.331  19.997  0.00  0.00    +0.000 C 
ENDROOT
BRANCH   1  21
ATOM     20  C   UNL     1       1.748   7.777  20.604  0.00  0.00    +0.000 C 
ATOM     21  O   UNL     1       0.363   7.818  20.966  0.00  0.00    +0.000 OA
ENDBRANCH   1  21
BRANCH  10  22
ATOM     22  C   UNL     1      -4.243  11.499  17.263  0.00  0.00    +0.000 C 
BRANCH  22  23
ATOM     23  O   UNL     1      -3.983  10.524  16.242  0.00  0.00    +0.000 OA
ATOM     24  H   UNL     1      -4.809  10.035  16.105  0.00  0.00    +0.000 HD
ENDBRANCH  22  23
BRANCH  22  25
ATOM     25  C   UNL     1      -5.573  11.132  17.912  0.00  0.00    +0.000 C 
BRANCH  25  26
ATOM     26  C   UNL     1      -6.686  12.131  17.625  0.00  0.00    +0.000 C 
BRANCH  26  27
ATOM     27  C   UNL     1      -6.525  13.401  18.462  0.00  0.00    +0.000 C 
BRANCH  27  28
ATOM     28  C   UNL     1      -6.694  13.092  19.929  0.00  0.00    +0.000 A 
ATOM     29  C   UNL     1      -7.632  12.142  20.354  0.00  0.00    +0.000 A 
ATOM     30  C   UNL     1      -7.806  11.881  21.723  0.00  0.00    +0.000 A 
ATOM     31  C   UNL     1      -7.056  12.565  22.663  0.00  0.00    +0.000 A 
ATOM     32  C   UNL     1      -6.127  13.525  22.247  0.00  0.00    +0.000 A 
ATOM     33  C   UNL     1      -5.947  13.778  20.888  0.00  0.00    +0.000 A 
ENDBRANCH  27  28
ENDBRANCH  26  27
ENDBRANCH  25  26
ENDBRANCH  22  25
ENDBRANCH  10  22
TORSDOF 7
ENDMDL
MODEL 8
REMARK VINA RESULT:      -7.2      7.113     11.429
REMARK  Name = 
REMARK  9 active torsions:
REMARK  status: ('A' for Active; 'I' for Inactive)
REMARK    1  A    between atoms: C_1  and  O_2
REMARK    2  A    between atoms: O_2  and  C_3
REMARK    3  A    between atoms: C_12  and  C_13
REMARK    4  A    between atoms: C_13  and  O_14
REMARK    5  A    between atoms: C_13  and  C_15
REMARK    6  A    between atoms: C_15  and  C_16
REMARK    7  A    between atoms: C_16  and  C_17
REMARK    8  A    between atoms: C_17  and  C_18
REMARK    9  A    between atoms: N_28  and  C_29
REMARK                            x       y       z     vdW  Elec       q    Type
REMARK                         _______ _______ _______ _____ _____    ______ ____
ROOT
ATOM      1  C   UNL     1      -1.014  15.427  23.280  0.00  0.00    +0.000 A 
ATOM      2  C   UNL     1      -2.280  15.991  22.983  0.00  0.00    +0.000 A 
ATOM      3  C   UNL     1      -2.541  16.728  21.789  0.00  0.00    +0.000 A 
ATOM      4  C   UNL     1      -1.511  16.941  20.886  0.00  0.00    +0.000 A 
ATOM      5  C   UNL     1      -0.289  16.325  21.243  0.00  0.00    +0.000 A 
ATOM      6  C   UNL     1      -0.028  15.530  22.327  0.00  0.00    +0.000 A 
ATOM      7  O   UNL     1       1.150  14.816  22.206  0.00  0.00    +0.000 OA
ATOM      8  C   UNL     1       1.748  15.188  20.916  0.00  0.00    +0.000 C 
ATOM      9  C   UNL     1       2.109  13.953  20.073  0.00  0.00    +0.000 C 
ATOM     10  C   UNL     1       1.296  13.410  19.135  0.00  0.00    +0.000 C 
ATOM     11  C   UNL     1      -0.009  14.083  18.869  0.00  0.00    +0.000 C 
ATOM     12  C   UNL     1      -0.088  15.578  19.122  0.00  0.00    +0.000 C 
ATOM     13  C   UNL     1      -0.585  16.777  18.324  0.00  0.00    +0.000 C 
ATOM     14  C   UNL     1      -1.634  17.476  19.400  0.00  0.00    +0.000 C 
ATOM     15  N   UNL     1       0.584  17.530  17.820  0.00  0.00    +0.000 NA
ATOM     16  C   UNL     1       0.335  18.470  16.734  0.00  0.00    +0.000 C 
ATOM     17  C   UNL     1       1.597  18.007  18.739  0.00  0.00    +0.000 C 
ATOM     18  C   UNL     1       1.331  17.604  20.157  0.00  0.00    +0.000 C 
ATOM     19  C   UNL     1       0.788  16.162  20.242  0.00  0.00    +0.000 C 
ENDROOT
BRANCH   1  21
ATOM     20  C   UNL     1      -1.813  15.197  25.453  0.00  0.00    +0.000 C 
ATOM     21  O   UNL     1      -0.876  14.759  24.462  0.00  0.00    +0.000 OA
ENDBRANCH   1  21
BRANCH  10  22
ATOM     22  C   UNL     1       1.326  12.058  18.435  0.00  0.00    +0.000 C 
BRANCH  22  23
ATOM     23  O   UNL     1       2.498  11.998  17.607  0.00  0.00    +0.000 OA
ATOM     24  H   UNL     1       2.645  12.893  17.265  0.00  0.00    +0.000 HD
ENDBRANCH  22  23
BRANCH  22  25
ATOM     25  C   UNL     1       1.219  10.725  19.167  0.00  0.00    +0.000 C 
BRANCH  25  26
ATOM     26  C   UNL     1      -0.084  10.557  19.937  0.00  0.00    +0.000 C 
BRANCH  26  27
ATOM     27  C   UNL     1       0.021  11.142  21.345  0.00  0.00    +0.000 C 
BRANCH  27  28
ATOM     28  C   UNL     1      -1.293  11.753  21.763  0.00  0.00    +0.000 A 
ATOM     29  C   UNL     1      -1.760  11.613  23.076  0.00  0.00    +0.000 A 
ATOM     30  C   UNL     1      -3.000  12.157  23.450  0.00  0.00    +0.000 A 
ATOM     31  C   UNL     1      -3.772  12.832  22.521  0.00  0.00    +0.000 A 
ATOM     32  C   UNL     1      -3.319  12.965  21.204  0.00  0.00    +0.000 A 
ATOM     33  C   UNL     1      -2.085  12.432  20.835  0.00  0.00    +0.000 A 
ENDBRANCH  27  28
ENDBRANCH  26  27
ENDBRANCH  25  26
ENDBRANCH  22  25
ENDBRANCH  10  22
TORSDOF 7
ENDMDL
MODEL 9
REMARK VINA RESULT:      -7.2      5.005      9.777
REMARK  Name = 
REMARK  9 active torsions:
REMARK  status: ('A' for Active; 'I' for Inactive)
REMARK    1  A    between atoms: C_1  and  O_2
REMARK    2  A    between atoms: O_2  and  C_3
REMARK    3  A    between atoms: C_12  and  C_13
REMARK    4  A    between atoms: C_13  and  O_14
REMARK    5  A    between atoms: C_13  and  C_15
REMARK    6  A    between atoms: C_15  and  C_16
REMARK    7  A    between atoms: C_16  and  C_17
REMARK    8  A    between atoms: C_17  and  C_18
REMARK    9  A    between atoms: N_28  and  C_29
REMARK                            x       y       z     vdW  Elec       q    Type
REMARK                         _______ _______ _______ _____ _____    ______ ____
ROOT
ATOM      1  C   UNL     1      -2.664  14.007  22.060  0.00  0.00    +0.000 A 
ATOM      2  C   UNL     1      -3.066  15.148  21.321  0.00  0.00    +0.000 A 
ATOM      3  C   UNL     1      -2.183  15.867  20.462  0.00  0.00    +0.000 A 
ATOM      4  C   UNL     1      -0.859  15.466  20.361  0.00  0.00    +0.000 A 
ATOM      5  C   UNL     1      -0.546  14.307  21.108  0.00  0.00    +0.000 A 
ATOM      6  C   UNL     1      -1.387  13.534  21.863  0.00  0.00    +0.000 A 
ATOM      7  O   UNL     1      -0.854  12.298  22.180  0.00  0.00    +0.000 OA
ATOM      8  C   UNL     1       0.492  12.248  21.591  0.00  0.00    +0.000 C 
ATOM      9  C   UNL     1       0.700  10.981  20.742  0.00  0.00    +0.000 C 
ATOM     10  C   UNL     1       0.500  10.922  19.404  0.00  0.00    +0.000 C 
ATOM     11  C   UNL     1       0.102  12.178  18.702  0.00  0.00    +0.000 C 
ATOM     12  C   UNL     1       0.554  13.492  19.312  0.00  0.00    +0.000 C 
ATOM     13  C   UNL     1       1.243  14.742  18.779  0.00  0.00    +0.000 C 
ATOM     14  C   UNL     1       0.204  15.931  19.283  0.00  0.00    +0.000 C 
ATOM     15  N   UNL     1       2.652  14.737  19.232  0.00  0.00    +0.000 NA
ATOM     16  C   UNL     1       3.567  15.626  18.525  0.00  0.00    +0.000 C 
ATOM     17  C   UNL     1       2.965  14.633  20.643  0.00  0.00    +0.000 C 
ATOM     18  C   UNL     1       1.746  14.485  21.499  0.00  0.00    +0.000 C 
ATOM     19  C   UNL     1       0.701  13.559  20.841  0.00  0.00    +0.000 C 
ENDROOT
BRANCH   1  21
ATOM     20  C   UNL     1      -3.699  14.050  24.143  0.00  0.00    +0.000 C 
ATOM     21  O   UNL     1      -3.590  13.412  22.866  0.00  0.00    +0.000 OA
ENDBRANCH   1  21
BRANCH  10  22
ATOM     22  C   UNL     1       0.353   9.739  18.458  0.00  0.00    +0.000 C 
BRANCH  22  23
ATOM     23  O   UNL     1      -0.523  10.115  17.386  0.00  0.00    +0.000 OA
ATOM     24  H   UNL     1      -0.351  11.051  17.198  0.00  0.00    +0.000 HD
ENDBRANCH  22  23
BRANCH  22  25
ATOM     25  C   UNL     1       1.535   8.999  17.840  0.00  0.00    +0.000 C 
BRANCH  25  26
ATOM     26  C   UNL     1       2.246   8.068  18.812  0.00  0.00    +0.000 C 
BRANCH  26  27
ATOM     27  C   UNL     1       2.778   6.822  18.102  0.00  0.00    +0.000 C 
BRANCH  27  28
ATOM     28  C   UNL     1       2.157   5.577  18.685  0.00  0.00    +0.000 A 
ATOM     29  C   UNL     1       1.930   5.472  20.063  0.00  0.00    +0.000 A 
ATOM     30  C   UNL     1       1.380   4.297  20.604  0.00  0.00    +0.000 A 
ATOM     31  C   UNL     1       1.063   3.233  19.778  0.00  0.00    +0.000 A 
ATOM     32  C   UNL     1       1.298   3.326  18.402  0.00  0.00    +0.000 A 
ATOM     33  C   UNL     1       1.836   4.495  17.864  0.00  0.00    +0.000 A 
ENDBRANCH  27  28
ENDBRANCH  26  27
ENDBRANCH  25  26
ENDBRANCH  22  25
ENDBRANCH  10  22
TORSDOF 7
ENDMDL
