MODEL 1
REMARK VINA RESULT:      -6.0      0.000      0.000
REMARK  Name = 
REMARK  9 active torsions:
REMARK  status: ('A' for Active; 'I' for Inactive)
REMARK    1  A    between atoms: C_1  and  C_2
REMARK    2  A    between atoms: C_2  and  C_3
REMARK    3  A    between atoms: C_3  and  N_4
REMARK    4  A    between atoms: C_6  and  C_7
REMARK    5  A    between atoms: C_10  and  C_11
REMARK    6  A    between atoms: C_18  and  O_19
REMARK    7  A    between atoms: O_19  and  C_20
REMARK    8  A    between atoms: C_21  and  O_22
REMARK    9  A    between atoms: O_22  and  C_23
REMARK                            x       y       z     vdW  Elec       q    Type
REMARK                         _______ _______ _______ _____ _____    ______ ____
ROOT
ATOM      1  N   UNL     1      -6.046  12.564  18.848  0.00  0.00    +0.000 N 
ATOM      2  N   UNL     1      -5.801  13.149  20.032  0.00  0.00    +0.000 NA
ATOM      3  C   UNL     1      -4.504  12.886  20.288  0.00  0.00    +0.000 A 
ATOM      4  C   UNL     1      -3.932  12.065  19.246  0.00  0.00    +0.000 A 
ATOM      5  C   UNL     1      -2.687  11.433  18.942  0.00  0.00    +0.000 A 
ATOM      6  C   UNL     1      -1.526  11.441  19.751  0.00  0.00    +0.000 A 
ATOM      7  C   UNL     1      -0.297  10.841  19.415  0.00  0.00    +0.000 A 
ATOM      8  C   UNL     1      -0.249  10.141  18.225  0.00  0.00    +0.000 A 
ATOM      9  C   UNL     1      -1.427  10.098  17.432  0.00  0.00    +0.000 A 
ATOM     10  C   UNL     1      -2.618  10.719  17.747  0.00  0.00    +0.000 A 
ATOM     11  N   UNL     1      -3.643  10.593  16.893  0.00  0.00    +0.000 NA
ATOM     12  C   UNL     1      -4.825  11.168  17.162  0.00  0.00    +0.000 A 
ATOM     13  C   UNL     1      -4.972  11.897  18.331  0.00  0.00    +0.000 A 
ENDROOT
BRANCH   3  14
ATOM     14  C   UNL     1      -3.885  13.431  21.505  0.00  0.00    +0.000 A 
ATOM     15  C   UNL     1      -4.036  12.781  22.737  0.00  0.00    +0.000 A 
ATOM     16  C   UNL     1      -3.484  13.322  23.907  0.00  0.00    +0.000 A 
ATOM     17  C   UNL     1      -2.738  14.501  23.868  0.00  0.00    +0.000 A 
ATOM     18  C   UNL     1      -2.554  15.146  22.638  0.00  0.00    +0.000 A 
ATOM     19  C   UNL     1      -3.173  14.633  21.493  0.00  0.00    +0.000 A 
BRANCH  17  20
ATOM     20  C   UNL     1      -2.194  15.067  25.055  0.00  0.00    +0.000 C 
ATOM     21  N   UNL     1      -1.751  15.528  26.038  0.00  0.00    +0.000 NA
ENDBRANCH  17  20
ENDBRANCH   3  14
BRANCH   7  22
ATOM     22  O   UNL     1       0.570  11.130  20.423  0.00  0.00    +0.000 OA
ATOM     23  C   UNL     1       0.760  10.312  21.543  0.00  0.00    +0.000 C 
ENDBRANCH   7  22
BRANCH   8  24
ATOM     24  O   UNL     1       0.683   9.409  17.560  0.00  0.00    +0.000 OA
ATOM     25  C   UNL     1       1.948   9.036  18.031  0.00  0.00    +0.000 C 
ENDBRANCH   8  24
BRANCH   1  26
ATOM     26  C   UNL     1      -7.354  12.701  18.225  0.00  0.00    +0.000 C 
BRANCH  26  28
ATOM     27  C   UNL     1      -6.909  14.559  16.563  0.00  0.00    +0.000 C 
ATOM     28  C   UNL     1      -7.670  14.137  17.811  0.00  0.00    +0.000 C 
ENDBRANCH  26  28
ENDBRANCH   1  26
TORSDOF 6
ENDMDL
MODEL 2
REMARK VINA RESULT:      -5.9      3.114      5.824
REMARK  Name = 
REMARK  9 active torsions:
REMARK  status: ('A' for Active; 'I' for Inactive)
REMARK    1  A    between atoms: C_1  and  C_2
REMARK    2  A    between atoms: C_2  and  C_3
REMARK    3  A    between atoms: C_3  and  N_4
REMARK    4  A    between atoms: C_6  and  C_7
REMARK    5  A    between atoms: C_10  and  C_11
REMARK    6  A    between atoms: C_18  and  O_19
REMARK    7  A    between atoms: O_19  and  C_20
REMARK    8  A    between atoms: C_21  and  O_22
REMARK    9  A    between atoms: O_22  and  C_23
REMARK                            x       y       z     vdW  Elec       q    Type
REMARK                         _______ _______ _______ _____ _____    ______ ____
ROOT
ATOM      1  N   UNL     1      -3.641  11.482  17.483  0.00  0.00    +0.000 N 
ATOM      2  N   UNL     1      -2.348  11.779  17.691  0.00  0.00    +0.000 NA
ATOM      3  C   UNL     1      -2.291  12.221  18.962  0.00  0.00    +0.000 A 
ATOM      4  C   UNL     1      -3.609  12.247  19.554  0.00  0.00    +0.000 A 
ATOM      5  C   UNL     1      -4.222  12.626  20.789  0.00  0.00    +0.000 A 
ATOM      6  C   UNL     1      -3.567  13.195  21.907  0.00  0.00    +0.000 A 
ATOM      7  C   UNL     1      -4.187  13.528  23.127  0.00  0.00    +0.000 A 
ATOM      8  C   UNL     1      -5.552  13.334  23.209  0.00  0.00    +0.000 A 
ATOM      9  C   UNL     1      -6.216  12.802  22.070  0.00  0.00    +0.000 A 
ATOM     10  C   UNL     1      -5.600  12.442  20.889  0.00  0.00    +0.000 A 
ATOM     11  N   UNL     1      -6.361  11.945  19.905  0.00  0.00    +0.000 NA
ATOM     12  C   UNL     1      -5.810  11.593  18.733  0.00  0.00    +0.000 A 
ATOM     13  C   UNL     1      -4.444  11.744  18.555  0.00  0.00    +0.000 A 
ENDROOT
BRANCH   3  14
ATOM     14  C   UNL     1      -0.992  12.593  19.540  0.00  0.00    +0.000 A 
ATOM     15  C   UNL     1      -0.510  13.905  19.433  0.00  0.00    +0.000 A 
ATOM     16  C   UNL     1       0.749  14.251  19.945  0.00  0.00    +0.000 A 
ATOM     17  C   UNL     1       1.538  13.308  20.606  0.00  0.00    +0.000 A 
ATOM     18  C   UNL     1       1.056  12.000  20.745  0.00  0.00    +0.000 A 
ATOM     19  C   UNL     1      -0.169  11.653  20.165  0.00  0.00    +0.000 A 
BRANCH  17  20
ATOM     20  C   UNL     1       2.825  13.647  21.107  0.00  0.00    +0.000 C 
ATOM     21  N   UNL     1       3.882  13.930  21.528  0.00  0.00    +0.000 NA
ENDBRANCH  17  20
ENDBRANCH   3  14
BRANCH   7  22
ATOM     22  O   UNL     1      -3.205  13.983  23.954  0.00  0.00    +0.000 OA
ATOM     23  C   UNL     1      -3.389  15.014  24.883  0.00  0.00    +0.000 C 
ENDBRANCH   7  22
BRANCH   8  24
ATOM     24  O   UNL     1      -6.514  13.547  24.144  0.00  0.00    +0.000 OA
ATOM     25  C   UNL     1      -7.893  13.645  23.922  0.00  0.00    +0.000 C 
ENDBRANCH   8  24
BRANCH   1  26
ATOM     26  C   UNL     1      -4.061  10.907  16.214  0.00  0.00    +0.000 C 
BRANCH  26  28
ATOM     27  C   UNL     1      -3.086   9.983  14.068  0.00  0.00    +0.000 C 
ATOM     28  C   UNL     1      -3.000  10.005  15.586  0.00  0.00    +0.000 C 
ENDBRANCH  26  28
ENDBRANCH   1  26
TORSDOF 6
ENDMDL
MODEL 3
REMARK VINA RESULT:      -5.8      2.910      5.379
REMARK  Name = 
REMARK  9 active torsions:
REMARK  status: ('A' for Active; 'I' for Inactive)
REMARK    1  A    between atoms: C_1  and  C_2
REMARK    2  A    between atoms: C_2  and  C_3
REMARK    3  A    between atoms: C_3  and  N_4
REMARK    4  A    between atoms: C_6  and  C_7
REMARK    5  A    between atoms: C_10  and  C_11
REMARK    6  A    between atoms: C_18  and  O_19
REMARK    7  A    between atoms: O_19  and  C_20
REMARK    8  A    between atoms: C_21  and  O_22
REMARK    9  A    between atoms: O_22  and  C_23
REMARK                            x       y       z     vdW  Elec       q    Type
REMARK                         _______ _______ _______ _____ _____    ______ ____
ROOT
ATOM      1  N   UNL     1      -0.204  11.371  20.924  0.00  0.00    +0.000 N 
ATOM      2  N   UNL     1      -1.027  12.224  21.555  0.00  0.00    +0.000 NA
ATOM      3  C   UNL     1      -2.095  12.342  20.742  0.00  0.00    +0.000 A 
ATOM      4  C   UNL     1      -1.909  11.571  19.535  0.00  0.00    +0.000 A 
ATOM      5  C   UNL     1      -2.601  11.308  18.313  0.00  0.00    +0.000 A 
ATOM      6  C   UNL     1      -3.840  11.866  17.918  0.00  0.00    +0.000 A 
ATOM      7  C   UNL     1      -4.522  11.564  16.723  0.00  0.00    +0.000 A 
ATOM      8  C   UNL     1      -3.897  10.698  15.847  0.00  0.00    +0.000 A 
ATOM      9  C   UNL     1      -2.633  10.170  16.226  0.00  0.00    +0.000 A 
ATOM     10  C   UNL     1      -1.985  10.439  17.414  0.00  0.00    +0.000 A 
ATOM     11  N   UNL     1      -0.797   9.858  17.633  0.00  0.00    +0.000 NA
ATOM     12  C   UNL     1      -0.123  10.099  18.767  0.00  0.00    +0.000 A 
ATOM     13  C   UNL     1      -0.670  10.951  19.712  0.00  0.00    +0.000 A 
ENDROOT
BRANCH   3  14
ATOM     14  C   UNL     1      -3.230  13.179  21.159  0.00  0.00    +0.000 A 
ATOM     15  C   UNL     1      -4.428  12.595  21.592  0.00  0.00    +0.000 A 
ATOM     16  C   UNL     1      -5.527  13.390  21.948  0.00  0.00    +0.000 A 
ATOM     17  C   UNL     1      -5.444  14.783  21.915  0.00  0.00    +0.000 A 
ATOM     18  C   UNL     1      -4.242  15.381  21.510  0.00  0.00    +0.000 A 
ATOM     19  C   UNL     1      -3.181  14.574  21.089  0.00  0.00    +0.000 A 
BRANCH  17  20
ATOM     20  C   UNL     1      -6.562  15.595  22.252  0.00  0.00    +0.000 C 
ATOM     21  N   UNL     1      -7.479  16.272  22.528  0.00  0.00    +0.000 NA
ENDBRANCH  17  20
ENDBRANCH   3  14
BRANCH   7  22
ATOM     22  O   UNL     1      -5.694  12.257  16.755  0.00  0.00    +0.000 OA
ATOM     23  C   UNL     1      -6.176  12.915  17.893  0.00  0.00    +0.000 C 
ENDBRANCH   7  22
BRANCH   8  24
ATOM     24  O   UNL     1      -4.170  10.187  14.619  0.00  0.00    +0.000 OA
ATOM     25  C   UNL     1      -3.243   9.877  13.615  0.00  0.00    +0.000 C 
ENDBRANCH   8  24
BRANCH   1  26
ATOM     26  C   UNL     1       1.040  10.959  21.557  0.00  0.00    +0.000 C 
BRANCH  26  28
ATOM     27  C   UNL     1       0.019   9.431  23.299  0.00  0.00    +0.000 C 
ATOM     28  C   UNL     1       0.980   9.542  22.126  0.00  0.00    +0.000 C 
ENDBRANCH  26  28
ENDBRANCH   1  26
TORSDOF 6
ENDMDL
MODEL 4
REMARK VINA RESULT:      -5.7      1.038      1.508
REMARK  Name = 
REMARK  9 active torsions:
REMARK  status: ('A' for Active; 'I' for Inactive)
REMARK    1  A    between atoms: C_1  and  C_2
REMARK    2  A    between atoms: C_2  and  C_3
REMARK    3  A    between atoms: C_3  and  N_4
REMARK    4  A    between atoms: C_6  and  C_7
REMARK    5  A    between atoms: C_10  and  C_11
REMARK    6  A    between atoms: C_18  and  O_19
REMARK    7  A    between atoms: O_19  and  C_20
REMARK    8  A    between atoms: C_21  and  O_22
REMARK    9  A    between atoms: O_22  and  C_23
REMARK                            x       y       z     vdW  Elec       q    Type
REMARK                         _______ _______ _______ _____ _____    ______ ____
ROOT
ATOM      1  N   UNL     1      -4.790  12.154  17.978  0.00  0.00    +0.000 N 
ATOM      2  N   UNL     1      -4.892  12.781  19.161  0.00  0.00    +0.000 NA
ATOM      3  C   UNL     1      -3.732  12.520  19.795  0.00  0.00    +0.000 A 
ATOM      4  C   UNL     1      -2.895  11.656  18.995  0.00  0.00    +0.000 A 
ATOM      5  C   UNL     1      -1.626  11.003  19.090  0.00  0.00    +0.000 A 
ATOM      6  C   UNL     1      -0.753  11.033  20.203  0.00  0.00    +0.000 A 
ATOM      7  C   UNL     1       0.509  10.411  20.262  0.00  0.00    +0.000 A 
ATOM      8  C   UNL     1       0.891   9.667  19.162  0.00  0.00    +0.000 A 
ATOM      9  C   UNL     1      -0.005   9.603  18.061  0.00  0.00    +0.000 A 
ATOM     10  C   UNL     1      -1.225  10.245  17.992  0.00  0.00    +0.000 A 
ATOM     11  N   UNL     1      -1.957  10.094  16.880  0.00  0.00    +0.000 NA
ATOM     12  C   UNL     1      -3.155  10.688  16.772  0.00  0.00    +0.000 A 
ATOM     13  C   UNL     1      -3.625  11.461  17.821  0.00  0.00    +0.000 A 
ENDROOT
BRANCH   3  14
ATOM     14  C   UNL     1      -3.485  13.105  21.120  0.00  0.00    +0.000 A 
ATOM     15  C   UNL     1      -2.619  14.197  21.270  0.00  0.00    +0.000 A 
ATOM     16  C   UNL     1      -2.348  14.729  22.539  0.00  0.00    +0.000 A 
ATOM     17  C   UNL     1      -2.962  14.210  23.680  0.00  0.00    +0.000 A 
ATOM     18  C   UNL     1      -3.852  13.137  23.541  0.00  0.00    +0.000 A 
ATOM     19  C   UNL     1      -4.055  12.571  22.278  0.00  0.00    +0.000 A 
BRANCH  17  20
ATOM     20  C   UNL     1      -2.674  14.731  24.972  0.00  0.00    +0.000 C 
ATOM     21  N   UNL     1      -2.427  15.157  26.036  0.00  0.00    +0.000 NA
ENDBRANCH  17  20
ENDBRANCH   3  14
BRANCH   7  22
ATOM     22  O   UNL     1       1.049  10.733  21.469  0.00  0.00    +0.000 OA
ATOM     23  C   UNL     1       0.990   9.899  22.593  0.00  0.00    +0.000 C 
ENDBRANCH   7  22
BRANCH   8  24
ATOM     24  O   UNL     1       1.963   8.904  18.825  0.00  0.00    +0.000 OA
ATOM     25  C   UNL     1       2.224   8.332  17.574  0.00  0.00    +0.000 C 
ENDBRANCH   8  24
BRANCH   1  26
ATOM     26  C   UNL     1      -5.856  12.278  16.995  0.00  0.00    +0.000 C 
BRANCH  26  28
ATOM     27  C   UNL     1      -6.931  14.531  16.570  0.00  0.00    +0.000 C 
ATOM     28  C   UNL     1      -6.944  13.266  17.414  0.00  0.00    +0.000 C 
ENDBRANCH  26  28
ENDBRANCH   1  26
TORSDOF 6
ENDMDL
MODEL 5
REMARK VINA RESULT:      -5.7      2.217      5.779
REMARK  Name = 
REMARK  9 active torsions:
REMARK  status: ('A' for Active; 'I' for Inactive)
REMARK    1  A    between atoms: C_1  and  C_2
REMARK    2  A    between atoms: C_2  and  C_3
REMARK    3  A    between atoms: C_3  and  N_4
REMARK    4  A    between atoms: C_6  and  C_7
REMARK    5  A    between atoms: C_10  and  C_11
REMARK    6  A    between atoms: C_18  and  O_19
REMARK    7  A    between atoms: O_19  and  C_20
REMARK    8  A    between atoms: C_21  and  O_22
REMARK    9  A    between atoms: O_22  and  C_23
REMARK                            x       y       z     vdW  Elec       q    Type
REMARK                         _______ _______ _______ _____ _____    ______ ____
ROOT
ATOM      1  N   UNL     1      -5.831  12.567  18.089  0.00  0.00    +0.000 N 
ATOM      2  N   UNL     1      -4.733  11.993  17.570  0.00  0.00    +0.000 NA
ATOM      3  C   UNL     1      -3.868  11.903  18.598  0.00  0.00    +0.000 A 
ATOM      4  C   UNL     1      -4.430  12.487  19.794  0.00  0.00    +0.000 A 
ATOM      5  C   UNL     1      -4.045  12.740  21.147  0.00  0.00    +0.000 A 
ATOM      6  C   UNL     1      -2.785  12.453  21.725  0.00  0.00    +0.000 A 
ATOM      7  C   UNL     1      -2.439  12.679  23.071  0.00  0.00    +0.000 A 
ATOM      8  C   UNL     1      -3.392  13.283  23.869  0.00  0.00    +0.000 A 
ATOM      9  C   UNL     1      -4.642  13.609  23.277  0.00  0.00    +0.000 A 
ATOM     10  C   UNL     1      -4.992  13.352  21.967  0.00  0.00    +0.000 A 
ATOM     11  N   UNL     1      -6.215  13.712  21.556  0.00  0.00    +0.000 NA
ATOM     12  C   UNL     1      -6.595  13.495  20.287  0.00  0.00    +0.000 A 
ATOM     13  C   UNL     1      -5.711  12.890  19.410  0.00  0.00    +0.000 A 
ENDROOT
BRANCH   3  14
ATOM     14  C   UNL     1      -2.559  11.267  18.387  0.00  0.00    +0.000 A 
ATOM     15  C   UNL     1      -2.446  10.103  17.614  0.00  0.00    +0.000 A 
ATOM     16  C   UNL     1      -1.207   9.470  17.447  0.00  0.00    +0.000 A 
ATOM     17  C   UNL     1      -0.047  10.002  18.015  0.00  0.00    +0.000 A 
ATOM     18  C   UNL     1      -0.142  11.181  18.767  0.00  0.00    +0.000 A 
ATOM     19  C   UNL     1      -1.397  11.759  18.985  0.00  0.00    +0.000 A 
BRANCH  17  20
ATOM     20  C   UNL     1       1.209   9.352  17.869  0.00  0.00    +0.000 C 
ATOM     21  N   UNL     1       2.242   8.809  17.755  0.00  0.00    +0.000 NA
ENDBRANCH  17  20
ENDBRANCH   3  14
BRANCH   7  22
ATOM     22  O   UNL     1      -1.172  12.211  23.234  0.00  0.00    +0.000 OA
ATOM     23  C   UNL     1      -0.810  10.870  23.053  0.00  0.00    +0.000 C 
ENDBRANCH   7  22
BRANCH   8  24
ATOM     24  O   UNL     1      -3.462  13.700  25.159  0.00  0.00    +0.000 OA
ATOM     25  C   UNL     1      -2.889  14.859  25.698  0.00  0.00    +0.000 C 
ENDBRANCH   8  24
BRANCH   1  26
ATOM     26  C   UNL     1      -7.011  12.762  17.260  0.00  0.00    +0.000 C 
BRANCH  26  28
ATOM     27  C   UNL     1      -7.899  15.133  17.218  0.00  0.00    +0.000 C 
ATOM     28  C   UNL     1      -7.013  14.105  16.531  0.00  0.00    +0.000 C 
ENDBRANCH  26  28
ENDBRANCH   1  26
TORSDOF 6
ENDMDL
MODEL 6
REMARK VINA RESULT:      -5.6      3.116      5.781
REMARK  Name = 
REMARK  9 active torsions:
REMARK  status: ('A' for Active; 'I' for Inactive)
REMARK    1  A    between atoms: C_1  and  C_2
REMARK    2  A    between atoms: C_2  and  C_3
REMARK    3  A    between atoms: C_3  and  N_4
REMARK    4  A    between atoms: C_6  and  C_7
REMARK    5  A    between atoms: C_10  and  C_11
REMARK    6  A    between atoms: C_18  and  O_19
REMARK    7  A    between atoms: O_19  and  C_20
REMARK    8  A    between atoms: C_21  and  O_22
REMARK    9  A    between atoms: O_22  and  C_23
REMARK                            x       y       z     vdW  Elec       q    Type
REMARK                         _______ _______ _______ _____ _____    ______ ____
ROOT
ATOM      1  N   UNL     1      -3.366  10.659  17.050  0.00  0.00    +0.000 N 
ATOM      2  N   UNL     1      -2.102  10.991  17.361  0.00  0.00    +0.000 NA
ATOM      3  C   UNL     1      -2.201  11.711  18.496  0.00  0.00    +0.000 A 
ATOM      4  C   UNL     1      -3.584  11.874  18.881  0.00  0.00    +0.000 A 
ATOM      5  C   UNL     1      -4.343  12.525  19.903  0.00  0.00    +0.000 A 
ATOM      6  C   UNL     1      -3.824  13.330  20.944  0.00  0.00    +0.000 A 
ATOM      7  C   UNL     1      -4.589  13.933  21.962  0.00  0.00    +0.000 A 
ATOM      8  C   UNL     1      -5.958  13.767  21.897  0.00  0.00    +0.000 A 
ATOM      9  C   UNL     1      -6.482  12.992  20.826  0.00  0.00    +0.000 A 
ATOM     10  C   UNL     1      -5.727  12.372  19.852  0.00  0.00    +0.000 A 
ATOM     11  N   UNL     1      -6.367  11.667  18.909  0.00  0.00    +0.000 NA
ATOM     12  C   UNL     1      -5.677  11.057  17.934  0.00  0.00    +0.000 A 
ATOM     13  C   UNL     1      -4.296  11.160  17.915  0.00  0.00    +0.000 A 
ENDROOT
BRANCH   3  14
ATOM     14  C   UNL     1      -0.978  12.200  19.149  0.00  0.00    +0.000 A 
ATOM     15  C   UNL     1      -0.429  13.442  18.802  0.00  0.00    +0.000 A 
ATOM     16  C   UNL     1       0.761  13.890  19.390  0.00  0.00    +0.000 A 
ATOM     17  C   UNL     1       1.410  13.130  20.365  0.00  0.00    +0.000 A 
ATOM     18  C   UNL     1       0.857  11.899  20.742  0.00  0.00    +0.000 A 
ATOM     19  C   UNL     1      -0.291  11.433  20.093  0.00  0.00    +0.000 A 
BRANCH  17  20
ATOM     20  C   UNL     1       2.630  13.569  20.950  0.00  0.00    +0.000 C 
ATOM     21  N   UNL     1       3.637  13.937  21.424  0.00  0.00    +0.000 NA
ENDBRANCH  17  20
ENDBRANCH   3  14
BRANCH   7  22
ATOM     22  O   UNL     1      -3.711  14.560  22.792  0.00  0.00    +0.000 OA
ATOM     23  C   UNL     1      -3.169  13.969  23.939  0.00  0.00    +0.000 C 
ENDBRANCH   7  22
BRANCH   8  24
ATOM     24  O   UNL     1      -7.028  14.189  22.619  0.00  0.00    +0.000 OA
ATOM     25  C   UNL     1      -6.998  14.901  23.825  0.00  0.00    +0.000 C 
ENDBRANCH   8  24
BRANCH   1  26
ATOM     26  C   UNL     1      -3.633   9.813  15.897  0.00  0.00    +0.000 C 
BRANCH  26  28
ATOM     27  C   UNL     1      -3.673   9.894  13.367  0.00  0.00    +0.000 C 
ATOM     28  C   UNL     1      -2.923  10.288  14.630  0.00  0.00    +0.000 C 
ENDBRANCH  26  28
ENDBRANCH   1  26
TORSDOF 6
ENDMDL
MODEL 7
REMARK VINA RESULT:      -5.6      1.020      1.061
REMARK  Name = 
REMARK  9 active torsions:
REMARK  status: ('A' for Active; 'I' for Inactive)
REMARK    1  A    between atoms: C_1  and  C_2
REMARK    2  A    between atoms: C_2  and  C_3
REMARK    3  A    between atoms: C_3  and  N_4
REMARK    4  A    between atoms: C_6  and  C_7
REMARK    5  A    between atoms: C_10  and  C_11
REMARK    6  A    between atoms: C_18  and  O_19
REMARK    7  A    between atoms: O_19  and  C_20
REMARK    8  A    between atoms: C_21  and  O_22
REMARK    9  A    between atoms: O_22  and  C_23
REMARK                            x       y       z     vdW  Elec       q    Type
REMARK                         _______ _______ _______ _____ _____    ______ ____
ROOT
ATOM      1  N   UNL     1      -5.472  11.909  18.777  0.00  0.00    +0.000 N 
ATOM      2  N   UNL     1      -5.405  12.701  19.859  0.00  0.00    +0.000 NA
ATOM      3  C   UNL     1      -4.097  12.741  20.181  0.00  0.00    +0.000 A 
ATOM      4  C   UNL     1      -3.325  11.903  19.294  0.00  0.00    +0.000 A 
ATOM      5  C   UNL     1      -1.968  11.490  19.119  0.00  0.00    +0.000 A 
ATOM      6  C   UNL     1      -0.874  11.848  19.942  0.00  0.00    +0.000 A 
ATOM      7  C   UNL     1       0.463  11.458  19.730  0.00  0.00    +0.000 A 
ATOM      8  C   UNL     1       0.706  10.611  18.665  0.00  0.00    +0.000 A 
ATOM      9  C   UNL     1      -0.400  10.218  17.864  0.00  0.00    +0.000 A 
ATOM     10  C   UNL     1      -1.703  10.633  18.052  0.00  0.00    +0.000 A 
ATOM     11  N   UNL     1      -2.639  10.181  17.206  0.00  0.00    +0.000 NA
ATOM     12  C   UNL     1      -3.921  10.546  17.357  0.00  0.00    +0.000 A 
ATOM     13  C   UNL     1      -4.266  11.398  18.394  0.00  0.00    +0.000 A 
ENDROOT
BRANCH   3  14
ATOM     14  C   UNL     1      -3.657  13.573  21.310  0.00  0.00    +0.000 A 
ATOM     15  C   UNL     1      -3.487  13.017  22.585  0.00  0.00    +0.000 A 
ATOM     16  C   UNL     1      -3.110  13.816  23.673  0.00  0.00    +0.000 A 
ATOM     17  C   UNL     1      -2.858  15.180  23.508  0.00  0.00    +0.000 A 
ATOM     18  C   UNL     1      -2.997  15.743  22.232  0.00  0.00    +0.000 A 
ATOM     19  C   UNL     1      -3.445  14.947  21.173  0.00  0.00    +0.000 A 
BRANCH  17  20
ATOM     20  C   UNL     1      -2.498  16.001  24.612  0.00  0.00    +0.000 C 
ATOM     21  N   UNL     1      -2.197  16.670  25.526  0.00  0.00    +0.000 NA
ENDBRANCH  17  20
ENDBRANCH   3  14
BRANCH   7  22
ATOM     22  O   UNL     1       1.206  12.060  20.698  0.00  0.00    +0.000 OA
ATOM     23  C   UNL     1       0.815  13.230  21.361  0.00  0.00    +0.000 C 
ENDBRANCH   7  22
BRANCH   8  24
ATOM     24  O   UNL     1       1.793   9.986  18.144  0.00  0.00    +0.000 OA
ATOM     25  C   UNL     1       1.919   8.621  17.858  0.00  0.00    +0.000 C 
ENDBRANCH   8  24
BRANCH   1  26
ATOM     26  C   UNL     1      -6.748  11.692  18.112  0.00  0.00    +0.000 C 
BRANCH  26  28
ATOM     27  C   UNL     1      -6.855  13.839  16.775  0.00  0.00    +0.000 C 
ATOM     28  C   UNL     1      -7.514  12.987  17.849  0.00  0.00    +0.000 C 
ENDBRANCH  26  28
ENDBRANCH   1  26
TORSDOF 6
ENDMDL
MODEL 8
REMARK VINA RESULT:      -5.6      3.216      7.954
REMARK  Name = 
REMARK  9 active torsions:
REMARK  status: ('A' for Active; 'I' for Inactive)
REMARK    1  A    between atoms: C_1  and  C_2
REMARK    2  A    between atoms: C_2  and  C_3
REMARK    3  A    between atoms: C_3  and  N_4
REMARK    4  A    between atoms: C_6  and  C_7
REMARK    5  A    between atoms: C_10  and  C_11
REMARK    6  A    between atoms: C_18  and  O_19
REMARK    7  A    between atoms: O_19  and  C_20
REMARK    8  A    between atoms: C_21  and  O_22
REMARK    9  A    between atoms: O_22  and  C_23
REMARK                            x       y       z     vdW  Elec       q    Type
REMARK                         _______ _______ _______ _____ _____    ______ ____
ROOT
ATOM      1  N   UNL     1      -0.507  11.252  20.666  0.00  0.00    +0.000 N 
ATOM      2  N   UNL     1      -0.731  10.747  19.441  0.00  0.00    +0.000 NA
ATOM      3  C   UNL     1      -1.948  11.209  19.092  0.00  0.00    +0.000 A 
ATOM      4  C   UNL     1      -2.525  11.991  20.160  0.00  0.00    +0.000 A 
ATOM      5  C   UNL     1      -3.738  12.694  20.440  0.00  0.00    +0.000 A 
ATOM      6  C   UNL     1      -4.870  12.774  19.595  0.00  0.00    +0.000 A 
ATOM      7  C   UNL     1      -6.043  13.503  19.877  0.00  0.00    +0.000 A 
ATOM      8  C   UNL     1      -6.106  14.137  21.102  0.00  0.00    +0.000 A 
ATOM      9  C   UNL     1      -4.985  14.021  21.968  0.00  0.00    +0.000 A 
ATOM     10  C   UNL     1      -3.822  13.338  21.673  0.00  0.00    +0.000 A 
ATOM     11  N   UNL     1      -2.846  13.325  22.591  0.00  0.00    +0.000 NA
ATOM     12  C   UNL     1      -1.703  12.663  22.356  0.00  0.00    +0.000 A 
ATOM     13  C   UNL     1      -1.542  11.998  21.152  0.00  0.00    +0.000 A 
ENDROOT
BRANCH   3  14
ATOM     14  C   UNL     1      -2.490  10.881  17.766  0.00  0.00    +0.000 A 
ATOM     15  C   UNL     1      -1.892   9.893  16.972  0.00  0.00    +0.000 A 
ATOM     16  C   UNL     1      -2.380   9.610  15.689  0.00  0.00    +0.000 A 
ATOM     17  C   UNL     1      -3.497  10.277  15.183  0.00  0.00    +0.000 A 
ATOM     18  C   UNL     1      -4.122  11.248  15.978  0.00  0.00    +0.000 A 
ATOM     19  C   UNL     1      -3.579  11.570  17.225  0.00  0.00    +0.000 A 
BRANCH  17  20
ATOM     20  C   UNL     1      -3.983  10.010  13.873  0.00  0.00    +0.000 C 
ATOM     21  N   UNL     1      -4.393   9.792  12.797  0.00  0.00    +0.000 NA
ENDBRANCH  17  20
ENDBRANCH   3  14
BRANCH   7  22
ATOM     22  O   UNL     1      -6.854  13.375  18.791  0.00  0.00    +0.000 OA
ATOM     23  C   UNL     1      -7.115  12.154  18.157  0.00  0.00    +0.000 C 
ENDBRANCH   7  22
BRANCH   8  24
ATOM     24  O   UNL     1      -7.024  14.885  21.768  0.00  0.00    +0.000 OA
ATOM     25  C   UNL     1      -6.883  16.216  22.179  0.00  0.00    +0.000 C 
ENDBRANCH   8  24
BRANCH   1  26
ATOM     26  C   UNL     1       0.762  11.004  21.333  0.00  0.00    +0.000 C 
BRANCH  26  28
ATOM     27  C   UNL     1      -0.093   9.425  23.118  0.00  0.00    +0.000 C 
ATOM     28  C   UNL     1       0.855   9.606  21.942  0.00  0.00    +0.000 C 
ENDBRANCH  26  28
ENDBRANCH   1  26
TORSDOF 6
ENDMDL
MODEL 9
REMARK VINA RESULT:      -5.5      1.344      1.745
REMARK  Name = 
REMARK  9 active torsions:
REMARK  status: ('A' for Active; 'I' for Inactive)
REMARK    1  A    between atoms: C_1  and  C_2
REMARK    2  A    between atoms: C_2  and  C_3
REMARK    3  A    between atoms: C_3  and  N_4
REMARK    4  A    between atoms: C_6  and  C_7
REMARK    5  A    between atoms: C_10  and  C_11
REMARK    6  A    between atoms: C_18  and  O_19
REMARK    7  A    between atoms: O_19  and  C_20
REMARK    8  A    between atoms: C_21  and  O_22
REMARK    9  A    between atoms: O_22  and  C_23
REMARK                            x       y       z     vdW  Elec       q    Type
REMARK                         _______ _______ _______ _____ _____    ______ ____
ROOT
ATOM      1  N   UNL     1      -5.216  12.413  19.488  0.00  0.00    +0.000 N 
ATOM      2  N   UNL     1      -5.039  13.087  20.636  0.00  0.00    +0.000 NA
ATOM      3  C   UNL     1      -3.714  13.027  20.874  0.00  0.00    +0.000 A 
ATOM      4  C   UNL     1      -3.046  12.244  19.861  0.00  0.00    +0.000 A 
ATOM      5  C   UNL     1      -1.727  11.781  19.559  0.00  0.00    +0.000 A 
ATOM      6  C   UNL     1      -0.567  11.998  20.340  0.00  0.00    +0.000 A 
ATOM      7  C   UNL     1       0.730  11.562  20.004  0.00  0.00    +0.000 A 
ATOM      8  C   UNL     1       0.860  10.816  18.849  0.00  0.00    +0.000 A 
ATOM      9  C   UNL     1      -0.313  10.564  18.087  0.00  0.00    +0.000 A 
ATOM     10  C   UNL     1      -1.576  11.024  18.399  0.00  0.00    +0.000 A 
ATOM     11  N   UNL     1      -2.585  10.708  17.576  0.00  0.00    +0.000 NA
ATOM     12  C   UNL     1      -3.833  11.121  17.845  0.00  0.00    +0.000 A 
ATOM     13  C   UNL     1      -4.066  11.881  18.979  0.00  0.00    +0.000 A 
ENDROOT
BRANCH   3  14
ATOM     14  C   UNL     1      -3.160  13.717  22.048  0.00  0.00    +0.000 A 
ATOM     15  C   UNL     1      -3.457  13.275  23.344  0.00  0.00    +0.000 A 
ATOM     16  C   UNL     1      -2.966  13.957  24.466  0.00  0.00    +0.000 A 
ATOM     17  C   UNL     1      -2.139  15.073  24.321  0.00  0.00    +0.000 A 
ATOM     18  C   UNL     1      -1.811  15.509  23.030  0.00  0.00    +0.000 A 
ATOM     19  C   UNL     1      -2.368  14.862  21.923  0.00  0.00    +0.000 A 
BRANCH  17  20
ATOM     20  C   UNL     1      -1.657  15.784  25.455  0.00  0.00    +0.000 C 
ATOM     21  N   UNL     1      -1.255  16.361  26.393  0.00  0.00    +0.000 NA
ENDBRANCH  17  20
ENDBRANCH   3  14
BRANCH   7  22
ATOM     22  O   UNL     1       1.563  12.025  20.977  0.00  0.00    +0.000 OA
ATOM     23  C   UNL     1       2.212  13.264  20.918  0.00  0.00    +0.000 C 
ENDBRANCH   7  22
BRANCH   8  24
ATOM     24  O   UNL     1       1.876  10.192  18.200  0.00  0.00    +0.000 OA
ATOM     25  C   UNL     1       1.930   8.844  17.825  0.00  0.00    +0.000 C 
ENDBRANCH   8  24
BRANCH   1  26
ATOM     26  C   UNL     1      -6.539  12.329  18.890  0.00  0.00    +0.000 C 
BRANCH  26  28
ATOM     27  C   UNL     1      -7.167  10.110  19.936  0.00  0.00    +0.000 C 
ATOM     28  C   UNL     1      -7.542  11.574  19.761  0.00  0.00    +0.000 C 
ENDBRANCH  26  28
ENDBRANCH   1  26
TORSDOF 6
ENDMDL
