MODEL 1
REMARK VINA RESULT:      -8.4      0.000      0.000
REMARK  Name = 
REMARK  15 active torsions:
REMARK  status: ('A' for Active; 'I' for Inactive)
REMARK    1  A    between atoms: C_1  and  C_2
REMARK    2  A    between atoms: C_2  and  O_3
REMARK    3  A    between atoms: O_3  and  C_4
REMARK    4  A    between atoms: C_4  and  C_6
REMARK    5  A    between atoms: C_6  and  C_7
REMARK    6  A    between atoms: C_7  and  C_8
REMARK    7  A    between atoms: C_8  and  N_9
REMARK    8  A    between atoms: C_8  and  C_32
REMARK    9  A    between atoms: C_10  and  C_12
REMARK   10  A    between atoms: C_15  and  N_16
REMARK   11  A    between atoms: N_16  and  C_17
REMARK   12  A    between atoms: C_17  and  C_18
REMARK   13  A    between atoms: C_32  and  O_34
REMARK   14  A    between atoms: O_34  and  C_35
REMARK   15  A    between atoms: C_35  and  C_36
REMARK                            x       y       z     vdW  Elec       q    Type
REMARK                         _______ _______ _______ _____ _____    ______ ____
ROOT
ATOM      1  C   UNL     1       2.804   7.188  18.966  0.00  0.00    +0.000 A 
ATOM      2  C   UNL     1       2.536   8.107  17.951  0.00  0.00    +0.000 A 
ATOM      3  C   UNL     1       1.667   9.174  18.195  0.00  0.00    +0.000 A 
ATOM      4  C   UNL     1       1.019   9.319  19.430  0.00  0.00    +0.000 A 
ATOM      5  C   UNL     1       1.305   8.391  20.438  0.00  0.00    +0.000 A 
ATOM      6  C   UNL     1       2.176   7.322  20.205  0.00  0.00    +0.000 A 
ENDROOT
BRANCH   1   8
ATOM      7  N   UNL     1       4.182   5.847  17.483  0.00  0.00    +0.000 N 
ATOM      8  C   UNL     1       3.736   6.053  18.763  0.00  0.00    +0.000 C 
ATOM      9  O   UNL     1       4.092   5.366  19.714  0.00  0.00    +0.000 OA
ATOM     10  H   UNL     1       3.941   6.491  16.734  0.00  0.00    +0.000 HD
BRANCH   7  11
ATOM     11  C   UNL     1       5.083   4.732  17.145  0.00  0.00    +0.000 C 
BRANCH  11  12
ATOM     12  C   UNL     1       6.126   5.321  16.185  0.00  0.00    +0.000 C 
ATOM     13  O   UNL     1       5.863   5.785  15.082  0.00  0.00    +0.000 OA
BRANCH  12  14
ATOM     14  O   UNL     1       7.371   5.257  16.736  0.00  0.00    +0.000 OA
BRANCH  14  15
ATOM     15  C   UNL     1       7.547   5.993  17.948  0.00  0.00    +0.000 C 
ATOM     16  C   UNL     1       7.644   7.482  17.661  0.00  0.00    +0.000 C 
ENDBRANCH  14  15
ENDBRANCH  12  14
ENDBRANCH  11  12
BRANCH  11  17
ATOM     17  C   UNL     1       4.281   3.611  16.502  0.00  0.00    +0.000 C 
BRANCH  17  18
ATOM     18  C   UNL     1       2.825   3.520  16.958  0.00  0.00    +0.000 C 
BRANCH  18  19
ATOM     19  C   UNL     1       2.750   2.432  18.001  0.00  0.00    +0.000 C 
ATOM     20  O   UNL     1       3.660   1.643  18.222  0.00  0.00    +0.000 OA
BRANCH  19  21
ATOM     21  O   UNL     1       1.502   2.372  18.535  0.00  0.00    +0.000 OA
BRANCH  21  23
ATOM     22  C   UNL     1       1.005   3.843  20.343  0.00  0.00    +0.000 C 
ATOM     23  C   UNL     1       1.444   2.438  19.967  0.00  0.00    +0.000 C 
ENDBRANCH  21  23
ENDBRANCH  19  21
ENDBRANCH  18  19
ENDBRANCH  17  18
ENDBRANCH  11  17
ENDBRANCH   7  11
ENDBRANCH   1   8
BRANCH   4  24
ATOM     24  N   UNL     1       0.231  10.450  19.633  0.00  0.00    +0.000 N 
ATOM     25  H   UNL     1       0.574  11.032  20.393  0.00  0.00    +0.000 HD
BRANCH  24  26
ATOM     26  C   UNL     1      -0.167  11.258  18.489  0.00  0.00    +0.000 C 
BRANCH  26  27
ATOM     27  C   UNL     1      -1.658  11.116  18.306  0.00  0.00    +0.000 A 
ATOM     28  C   UNL     1      -2.228  10.086  17.557  0.00  0.00    +0.000 A 
ATOM     29  C   UNL     1      -3.620   9.929  17.534  0.00  0.00    +0.000 A 
ATOM     30  C   UNL     1      -4.467  10.779  18.242  0.00  0.00    +0.000 A 
ATOM     31  N   UNL     1      -5.771  10.501  18.338  0.00  0.00    +0.000 NA
ATOM     32  C   UNL     1      -6.519  11.342  19.056  0.00  0.00    +0.000 A 
ATOM     33  N   UNL     1      -7.700  10.871  19.615  0.00  0.00    +0.000 N 
ATOM     34  N   UNL     1      -6.109  12.486  19.593  0.00  0.00    +0.000 NA
ATOM     35  C   UNL     1      -4.802  12.723  19.546  0.00  0.00    +0.000 A 
ATOM     36  N   UNL     1      -4.389  13.811  20.316  0.00  0.00    +0.000 N 
ATOM     37  C   UNL     1      -3.903  11.866  18.913  0.00  0.00    +0.000 A 
ATOM     38  C   UNL     1      -2.506  12.013  18.962  0.00  0.00    +0.000 A 
ATOM     39  H   UNL     1      -7.374  10.172  20.280  0.00  0.00    +0.000 HD
ATOM     40  H   UNL     1      -8.051  11.667  20.140  0.00  0.00    +0.000 HD
ATOM     41  H   UNL     1      -5.228  14.308  20.612  0.00  0.00    +0.000 HD
ATOM     42  H   UNL     1      -3.721  14.407  19.849  0.00  0.00    +0.000 HD
ENDBRANCH  26  27
ENDBRANCH  24  26
ENDBRANCH   4  24
TORSDOF 13
ENDMDL
MODEL 2
REMARK VINA RESULT:      -8.3      1.687      3.308
REMARK  Name = 
REMARK  15 active torsions:
REMARK  status: ('A' for Active; 'I' for Inactive)
REMARK    1  A    between atoms: C_1  and  C_2
REMARK    2  A    between atoms: C_2  and  O_3
REMARK    3  A    between atoms: O_3  and  C_4
REMARK    4  A    between atoms: C_4  and  C_6
REMARK    5  A    between atoms: C_6  and  C_7
REMARK    6  A    between atoms: C_7  and  C_8
REMARK    7  A    between atoms: C_8  and  N_9
REMARK    8  A    between atoms: C_8  and  C_32
REMARK    9  A    between atoms: C_10  and  C_12
REMARK   10  A    between atoms: C_15  and  N_16
REMARK   11  A    between atoms: N_16  and  C_17
REMARK   12  A    between atoms: C_17  and  C_18
REMARK   13  A    between atoms: C_32  and  O_34
REMARK   14  A    between atoms: O_34  and  C_35
REMARK   15  A    between atoms: C_35  and  C_36
REMARK                            x       y       z     vdW  Elec       q    Type
REMARK                         _______ _______ _______ _____ _____    ______ ____
ROOT
ATOM      1  C   UNL     1       2.033   7.672  19.209  0.00  0.00    +0.000 A 
ATOM      2  C   UNL     1       1.549   7.970  20.484  0.00  0.00    +0.000 A 
ATOM      3  C   UNL     1       0.985   9.223  20.735  0.00  0.00    +0.000 A 
ATOM      4  C   UNL     1       0.931  10.212  19.741  0.00  0.00    +0.000 A 
ATOM      5  C   UNL     1       1.414   9.892  18.468  0.00  0.00    +0.000 A 
ATOM      6  C   UNL     1       1.978   8.640  18.205  0.00  0.00    +0.000 A 
ENDROOT
BRANCH   1   8
ATOM      7  N   UNL     1       3.773   6.353  18.148  0.00  0.00    +0.000 N 
ATOM      8  C   UNL     1       2.620   6.349  18.888  0.00  0.00    +0.000 C 
ATOM      9  O   UNL     1       2.093   5.322  19.300  0.00  0.00    +0.000 OA
ATOM     10  H   UNL     1       4.235   7.225  17.901  0.00  0.00    +0.000 HD
BRANCH   7  11
ATOM     11  C   UNL     1       4.435   5.104  17.735  0.00  0.00    +0.000 C 
BRANCH  11  12
ATOM     12  C   UNL     1       5.377   4.735  18.888  0.00  0.00    +0.000 C 
ATOM     13  O   UNL     1       5.485   3.608  19.357  0.00  0.00    +0.000 OA
BRANCH  12  14
ATOM     14  O   UNL     1       6.072   5.831  19.305  0.00  0.00    +0.000 OA
BRANCH  14  15
ATOM     15  C   UNL     1       7.488   5.773  19.117  0.00  0.00    +0.000 C 
ATOM     16  C   UNL     1       7.967   6.956  18.294  0.00  0.00    +0.000 C 
ENDBRANCH  14  15
ENDBRANCH  12  14
ENDBRANCH  11  12
BRANCH  11  17
ATOM     17  C   UNL     1       5.186   5.336  16.432  0.00  0.00    +0.000 C 
BRANCH  17  18
ATOM     18  C   UNL     1       6.126   4.203  16.022  0.00  0.00    +0.000 C 
BRANCH  18  19
ATOM     19  C   UNL     1       6.582   4.489  14.612  0.00  0.00    +0.000 C 
ATOM     20  O   UNL     1       7.576   5.153  14.344  0.00  0.00    +0.000 OA
BRANCH  19  21
ATOM     21  O   UNL     1       5.665   4.037  13.716  0.00  0.00    +0.000 OA
BRANCH  21  23
ATOM     22  C   UNL     1       5.051   3.066  11.629  0.00  0.00    +0.000 C 
ATOM     23  C   UNL     1       6.210   3.401  12.551  0.00  0.00    +0.000 C 
ENDBRANCH  21  23
ENDBRANCH  19  21
ENDBRANCH  18  19
ENDBRANCH  17  18
ENDBRANCH  11  17
ENDBRANCH   7  11
ENDBRANCH   1   8
BRANCH   4  24
ATOM     24  N   UNL     1       0.279  11.408  20.035  0.00  0.00    +0.000 N 
ATOM     25  H   UNL     1       0.736  11.927  20.781  0.00  0.00    +0.000 HD
BRANCH  24  26
ATOM     26  C   UNL     1      -0.122  12.289  18.948  0.00  0.00    +0.000 C 
BRANCH  26  27
ATOM     27  C   UNL     1      -1.586  12.056  18.667  0.00  0.00    +0.000 A 
ATOM     28  C   UNL     1      -2.038  11.435  17.503  0.00  0.00    +0.000 A 
ATOM     29  C   UNL     1      -3.397  11.127  17.360  0.00  0.00    +0.000 A 
ATOM     30  C   UNL     1      -4.327  11.426  18.354  0.00  0.00    +0.000 A 
ATOM     31  N   UNL     1      -5.579  10.968  18.262  0.00  0.00    +0.000 NA
ATOM     32  C   UNL     1      -6.409  11.267  19.263  0.00  0.00    +0.000 A 
ATOM     33  N   UNL     1      -7.501  10.439  19.494  0.00  0.00    +0.000 N 
ATOM     34  N   UNL     1      -6.138  12.067  20.289  0.00  0.00    +0.000 NA
ATOM     35  C   UNL     1      -4.876  12.466  20.405  0.00  0.00    +0.000 A 
ATOM     36  N   UNL     1      -4.586  13.108  21.609  0.00  0.00    +0.000 N 
ATOM     37  C   UNL     1      -3.891  12.133  19.475  0.00  0.00    +0.000 A 
ATOM     38  C   UNL     1      -2.525  12.421  19.638  0.00  0.00    +0.000 A 
ATOM     39  H   UNL     1      -7.066   9.559  19.764  0.00  0.00    +0.000 HD
ATOM     40  H   UNL     1      -7.938  10.842  20.318  0.00  0.00    +0.000 HD
ATOM     41  H   UNL     1      -5.474  13.294  22.074  0.00  0.00    +0.000 HD
ATOM     42  H   UNL     1      -4.017  13.935  21.502  0.00  0.00    +0.000 HD
ENDBRANCH  26  27
ENDBRANCH  24  26
ENDBRANCH   4  24
TORSDOF 13
ENDMDL
MODEL 3
REMARK VINA RESULT:      -8.2      1.991      2.761
REMARK  Name = 
REMARK  15 active torsions:
REMARK  status: ('A' for Active; 'I' for Inactive)
REMARK    1  A    between atoms: C_1  and  C_2
REMARK    2  A    between atoms: C_2  and  O_3
REMARK    3  A    between atoms: O_3  and  C_4
REMARK    4  A    between atoms: C_4  and  C_6
REMARK    5  A    between atoms: C_6  and  C_7
REMARK    6  A    between atoms: C_7  and  C_8
REMARK    7  A    between atoms: C_8  and  N_9
REMARK    8  A    between atoms: C_8  and  C_32
REMARK    9  A    between atoms: C_10  and  C_12
REMARK   10  A    between atoms: C_15  and  N_16
REMARK   11  A    between atoms: N_16  and  C_17
REMARK   12  A    between atoms: C_17  and  C_18
REMARK   13  A    between atoms: C_32  and  O_34
REMARK   14  A    between atoms: O_34  and  C_35
REMARK   15  A    between atoms: C_35  and  C_36
REMARK                            x       y       z     vdW  Elec       q    Type
REMARK                         _______ _______ _______ _____ _____    ______ ____
ROOT
ATOM      1  C   UNL     1       2.830   7.185  18.926  0.00  0.00    +0.000 A 
ATOM      2  C   UNL     1       2.094   7.493  20.071  0.00  0.00    +0.000 A 
ATOM      3  C   UNL     1       1.260   8.614  20.076  0.00  0.00    +0.000 A 
ATOM      4  C   UNL     1       1.177   9.468  18.966  0.00  0.00    +0.000 A 
ATOM      5  C   UNL     1       1.917   9.138  17.825  0.00  0.00    +0.000 A 
ATOM      6  C   UNL     1       2.753   8.017  17.808  0.00  0.00    +0.000 A 
ENDROOT
BRANCH   1   8
ATOM      7  N   UNL     1       3.946   5.467  17.621  0.00  0.00    +0.000 N 
ATOM      8  C   UNL     1       3.712   5.994  18.864  0.00  0.00    +0.000 C 
ATOM      9  O   UNL     1       4.213   5.542  19.888  0.00  0.00    +0.000 OA
ATOM     10  H   UNL     1       3.590   5.921  16.784  0.00  0.00    +0.000 HD
BRANCH   7  11
ATOM     11  C   UNL     1       4.775   4.265  17.431  0.00  0.00    +0.000 C 
BRANCH  11  12
ATOM     12  C   UNL     1       5.590   4.523  16.157  0.00  0.00    +0.000 C 
ATOM     13  O   UNL     1       5.235   4.192  15.032  0.00  0.00    +0.000 OA
BRANCH  12  14
ATOM     14  O   UNL     1       6.750   5.173  16.457  0.00  0.00    +0.000 OA
BRANCH  14  15
ATOM     15  C   UNL     1       7.368   4.797  17.690  0.00  0.00    +0.000 C 
ATOM     16  C   UNL     1       7.649   6.022  18.543  0.00  0.00    +0.000 C 
ENDBRANCH  14  15
ENDBRANCH  12  14
ENDBRANCH  11  12
BRANCH  11  17
ATOM     17  C   UNL     1       3.875   3.045  17.298  0.00  0.00    +0.000 C 
BRANCH  17  18
ATOM     18  C   UNL     1       2.388   3.359  17.142  0.00  0.00    +0.000 C 
BRANCH  18  19
ATOM     19  C   UNL     1       1.700   2.904  18.406  0.00  0.00    +0.000 C 
ATOM     20  O   UNL     1       1.440   1.733  18.651  0.00  0.00    +0.000 OA
BRANCH  19  21
ATOM     21  O   UNL     1       1.295   3.976  19.138  0.00  0.00    +0.000 OA
BRANCH  21  23
ATOM     22  C   UNL     1       2.017   3.595  21.376  0.00  0.00    +0.000 C 
ATOM     23  C   UNL     1       0.812   3.671  20.455  0.00  0.00    +0.000 C 
ENDBRANCH  21  23
ENDBRANCH  19  21
ENDBRANCH  18  19
ENDBRANCH  17  18
ENDBRANCH  11  17
ENDBRANCH   7  11
ENDBRANCH   1   8
BRANCH   4  24
ATOM     24  N   UNL     1       0.263  10.518  19.009  0.00  0.00    +0.000 N 
ATOM     25  H   UNL     1      -0.700  10.195  19.061  0.00  0.00    +0.000 HD
BRANCH  24  26
ATOM     26  C   UNL     1       0.495  11.632  19.918  0.00  0.00    +0.000 C 
BRANCH  26  27
ATOM     27  C   UNL     1      -0.620  11.654  20.933  0.00  0.00    +0.000 A 
ATOM     28  C   UNL     1      -0.483  11.114  22.211  0.00  0.00    +0.000 A 
ATOM     29  C   UNL     1      -1.507  11.283  23.153  0.00  0.00    +0.000 A 
ATOM     30  C   UNL     1      -2.674  11.982  22.852  0.00  0.00    +0.000 A 
ATOM     31  N   UNL     1      -3.551  12.272  23.818  0.00  0.00    +0.000 NA
ATOM     32  C   UNL     1      -4.633  12.969  23.464  0.00  0.00    +0.000 A 
ATOM     33  N   UNL     1      -5.285  13.724  24.431  0.00  0.00    +0.000 N 
ATOM     34  N   UNL     1      -4.973  13.308  22.225  0.00  0.00    +0.000 NA
ATOM     35  C   UNL     1      -4.067  13.070  21.281  0.00  0.00    +0.000 A 
ATOM     36  N   UNL     1      -4.363  13.644  20.045  0.00  0.00    +0.000 N 
ATOM     37  C   UNL     1      -2.852  12.439  21.545  0.00  0.00    +0.000 A 
ATOM     38  C   UNL     1      -1.818  12.296  20.603  0.00  0.00    +0.000 A 
ATOM     39  H   UNL     1      -4.589  14.424  24.681  0.00  0.00    +0.000 HD
ATOM     40  H   UNL     1      -6.027  14.188  23.915  0.00  0.00    +0.000 HD
ATOM     41  H   UNL     1      -5.325  13.979  20.090  0.00  0.00    +0.000 HD
ATOM     42  H   UNL     1      -4.196  13.029  19.262  0.00  0.00    +0.000 HD
ENDBRANCH  26  27
ENDBRANCH  24  26
ENDBRANCH   4  24
TORSDOF 13
ENDMDL
MODEL 4
REMARK VINA RESULT:      -8.2      1.313      2.259
REMARK  Name = 
REMARK  15 active torsions:
REMARK  status: ('A' for Active; 'I' for Inactive)
REMARK    1  A    between atoms: C_1  and  C_2
REMARK    2  A    between atoms: C_2  and  O_3
REMARK    3  A    between atoms: O_3  and  C_4
REMARK    4  A    between atoms: C_4  and  C_6
REMARK    5  A    between atoms: C_6  and  C_7
REMARK    6  A    between atoms: C_7  and  C_8
REMARK    7  A    between atoms: C_8  and  N_9
REMARK    8  A    between atoms: C_8  and  C_32
REMARK    9  A    between atoms: C_10  and  C_12
REMARK   10  A    between atoms: C_15  and  N_16
REMARK   11  A    between atoms: N_16  and  C_17
REMARK   12  A    between atoms: C_17  and  C_18
REMARK   13  A    between atoms: C_32  and  O_34
REMARK   14  A    between atoms: O_34  and  C_35
REMARK   15  A    between atoms: C_35  and  C_36
REMARK                            x       y       z     vdW  Elec       q    Type
REMARK                         _______ _______ _______ _____ _____    ______ ____
ROOT
ATOM      1  C   UNL     1       2.202   7.642  19.268  0.00  0.00    +0.000 A 
ATOM      2  C   UNL     1       1.427   8.243  20.261  0.00  0.00    +0.000 A 
ATOM      3  C   UNL     1       0.717   9.411  19.972  0.00  0.00    +0.000 A 
ATOM      4  C   UNL     1       0.798  10.022  18.713  0.00  0.00    +0.000 A 
ATOM      5  C   UNL     1       1.574   9.401  17.728  0.00  0.00    +0.000 A 
ATOM      6  C   UNL     1       2.286   8.230  18.005  0.00  0.00    +0.000 A 
ENDROOT
BRANCH   1   8
ATOM      7  N   UNL     1       3.824   5.988  18.538  0.00  0.00    +0.000 N 
ATOM      8  C   UNL     1       2.956   6.390  19.519  0.00  0.00    +0.000 C 
ATOM      9  O   UNL     1       2.808   5.780  20.573  0.00  0.00    +0.000 OA
ATOM     10  H   UNL     1       3.991   6.565  17.718  0.00  0.00    +0.000 HD
BRANCH   7  11
ATOM     11  C   UNL     1       4.604   4.744  18.653  0.00  0.00    +0.000 C 
BRANCH  11  12
ATOM     12  C   UNL     1       6.068   5.187  18.781  0.00  0.00    +0.000 C 
ATOM     13  O   UNL     1       6.693   5.206  19.835  0.00  0.00    +0.000 OA
BRANCH  12  14
ATOM     14  O   UNL     1       6.566   5.545  17.564  0.00  0.00    +0.000 OA
BRANCH  14  15
ATOM     15  C   UNL     1       6.546   6.944  17.276  0.00  0.00    +0.000 C 
ATOM     16  C   UNL     1       7.838   7.603  17.729  0.00  0.00    +0.000 C 
ENDBRANCH  14  15
ENDBRANCH  12  14
ENDBRANCH  11  12
BRANCH  11  17
ATOM     17  C   UNL     1       4.370   3.885  17.420  0.00  0.00    +0.000 C 
BRANCH  17  18
ATOM     18  C   UNL     1       3.577   2.604  17.671  0.00  0.00    +0.000 C 
BRANCH  18  19
ATOM     19  C   UNL     1       2.152   3.009  17.961  0.00  0.00    +0.000 C 
ATOM     20  O   UNL     1       1.575   3.915  17.374  0.00  0.00    +0.000 OA
BRANCH  19  21
ATOM     21  O   UNL     1       1.677   2.334  19.040  0.00  0.00    +0.000 OA
BRANCH  21  23
ATOM     22  C   UNL     1       1.339   2.730  21.365  0.00  0.00    +0.000 C 
ATOM     23  C   UNL     1       0.906   3.118  19.962  0.00  0.00    +0.000 C 
ENDBRANCH  21  23
ENDBRANCH  19  21
ENDBRANCH  18  19
ENDBRANCH  17  18
ENDBRANCH  11  17
ENDBRANCH   7  11
ENDBRANCH   1   8
BRANCH   4  24
ATOM     24  N   UNL     1      -0.001  11.137  18.467  0.00  0.00    +0.000 N 
ATOM     25  H   UNL     1      -0.815  10.915  17.900  0.00  0.00    +0.000 HD
BRANCH  24  26
ATOM     26  C   UNL     1      -0.352  12.021  19.569  0.00  0.00    +0.000 C 
BRANCH  26  27
ATOM     27  C   UNL     1      -1.856  12.090  19.661  0.00  0.00    +0.000 A 
ATOM     28  C   UNL     1      -2.518  12.614  20.771  0.00  0.00    +0.000 A 
ATOM     29  C   UNL     1      -3.910  12.773  20.742  0.00  0.00    +0.000 A 
ATOM     30  C   UNL     1      -4.667  12.419  19.626  0.00  0.00    +0.000 A 
ATOM     31  N   UNL     1      -5.962  12.741  19.564  0.00  0.00    +0.000 NA
ATOM     32  C   UNL     1      -6.620  12.398  18.454  0.00  0.00    +0.000 A 
ATOM     33  N   UNL     1      -7.756  13.116  18.104  0.00  0.00    +0.000 N 
ATOM     34  N   UNL     1      -6.134  11.672  17.453  0.00  0.00    +0.000 NA
ATOM     35  C   UNL     1      -4.831  11.410  17.494  0.00  0.00    +0.000 A 
ATOM     36  N   UNL     1      -4.322  10.851  16.322  0.00  0.00    +0.000 N 
ATOM     37  C   UNL     1      -4.017  11.807  18.554  0.00  0.00    +0.000 A 
ATOM     38  C   UNL     1      -2.618  11.669  18.566  0.00  0.00    +0.000 A 
ATOM     39  H   UNL     1      -7.387  14.047  17.916  0.00  0.00    +0.000 HD
ATOM     40  H   UNL     1      -8.037  12.704  17.219  0.00  0.00    +0.000 HD
ATOM     41  H   UNL     1      -5.118  10.593  15.740  0.00  0.00    +0.000 HD
ATOM     42  H   UNL     1      -3.686  10.084  16.482  0.00  0.00    +0.000 HD
ENDBRANCH  26  27
ENDBRANCH  24  26
ENDBRANCH   4  24
TORSDOF 13
ENDMDL
MODEL 5
REMARK VINA RESULT:      -8.1      2.040      2.977
REMARK  Name = 
REMARK  15 active torsions:
REMARK  status: ('A' for Active; 'I' for Inactive)
REMARK    1  A    between atoms: C_1  and  C_2
REMARK    2  A    between atoms: C_2  and  O_3
REMARK    3  A    between atoms: O_3  and  C_4
REMARK    4  A    between atoms: C_4  and  C_6
REMARK    5  A    between atoms: C_6  and  C_7
REMARK    6  A    between atoms: C_7  and  C_8
REMARK    7  A    between atoms: C_8  and  N_9
REMARK    8  A    between atoms: C_8  and  C_32
REMARK    9  A    between atoms: C_10  and  C_12
REMARK   10  A    between atoms: C_15  and  N_16
REMARK   11  A    between atoms: N_16  and  C_17
REMARK   12  A    between atoms: C_17  and  C_18
REMARK   13  A    between atoms: C_32  and  O_34
REMARK   14  A    between atoms: O_34  and  C_35
REMARK   15  A    between atoms: C_35  and  C_36
REMARK                            x       y       z     vdW  Elec       q    Type
REMARK                         _______ _______ _______ _____ _____    ______ ____
ROOT
ATOM      1  C   UNL     1       2.788   7.310  18.829  0.00  0.00    +0.000 A 
ATOM      2  C   UNL     1       2.095   7.551  20.017  0.00  0.00    +0.000 A 
ATOM      3  C   UNL     1       1.214   8.633  20.095  0.00  0.00    +0.000 A 
ATOM      4  C   UNL     1       1.039   9.513  19.018  0.00  0.00    +0.000 A 
ATOM      5  C   UNL     1       1.737   9.251  17.834  0.00  0.00    +0.000 A 
ATOM      6  C   UNL     1       2.620   8.170  17.742  0.00  0.00    +0.000 A 
ENDROOT
BRANCH   1   8
ATOM      7  N   UNL     1       4.049   5.795  17.412  0.00  0.00    +0.000 N 
ATOM      8  C   UNL     1       3.717   6.163  18.689  0.00  0.00    +0.000 C 
ATOM      9  O   UNL     1       4.170   5.609  19.685  0.00  0.00    +0.000 OA
ATOM     10  H   UNL     1       3.730   6.333  16.611  0.00  0.00    +0.000 HD
BRANCH   7  11
ATOM     11  C   UNL     1       4.935   4.649  17.140  0.00  0.00    +0.000 C 
BRANCH  11  12
ATOM     12  C   UNL     1       5.865   5.107  16.008  0.00  0.00    +0.000 C 
ATOM     13  O   UNL     1       6.239   6.263  15.849  0.00  0.00    +0.000 OA
BRANCH  12  14
ATOM     14  O   UNL     1       6.213   4.052  15.220  0.00  0.00    +0.000 OA
BRANCH  14  15
ATOM     15  C   UNL     1       6.701   4.387  13.920  0.00  0.00    +0.000 C 
ATOM     16  C   UNL     1       5.952   3.610  12.850  0.00  0.00    +0.000 C 
ENDBRANCH  14  15
ENDBRANCH  12  14
ENDBRANCH  11  12
BRANCH  11  17
ATOM     17  C   UNL     1       4.096   3.445  16.741  0.00  0.00    +0.000 C 
BRANCH  17  18
ATOM     18  C   UNL     1       2.619   3.537  17.119  0.00  0.00    +0.000 C 
BRANCH  18  19
ATOM     19  C   UNL     1       2.380   2.548  18.234  0.00  0.00    +0.000 C 
ATOM     20  O   UNL     1       3.252   1.819  18.689  0.00  0.00    +0.000 OA
BRANCH  19  21
ATOM     21  O   UNL     1       1.057   2.489  18.540  0.00  0.00    +0.000 OA
BRANCH  21  23
ATOM     22  C   UNL     1       1.036   4.019  20.367  0.00  0.00    +0.000 C 
ATOM     23  C   UNL     1       0.747   2.591  19.937  0.00  0.00    +0.000 C 
ENDBRANCH  21  23
ENDBRANCH  19  21
ENDBRANCH  18  19
ENDBRANCH  17  18
ENDBRANCH  11  17
ENDBRANCH   7  11
ENDBRANCH   1   8
BRANCH   4  24
ATOM     24  N   UNL     1       0.083  10.519  19.136  0.00  0.00    +0.000 N 
ATOM     25  H   UNL     1      -0.855  10.151  19.277  0.00  0.00    +0.000 HD
BRANCH  24  26
ATOM     26  C   UNL     1       0.342  11.652  20.012  0.00  0.00    +0.000 C 
BRANCH  26  27
ATOM     27  C   UNL     1      -0.791  11.753  21.002  0.00  0.00    +0.000 A 
ATOM     28  C   UNL     1      -0.694  11.271  22.308  0.00  0.00    +0.000 A 
ATOM     29  C   UNL     1      -1.730  11.513  23.220  0.00  0.00    +0.000 A 
ATOM     30  C   UNL     1      -2.872  12.227  22.862  0.00  0.00    +0.000 A 
ATOM     31  N   UNL     1      -3.759  12.587  23.795  0.00  0.00    +0.000 NA
ATOM     32  C   UNL     1      -4.815  13.295  23.386  0.00  0.00    +0.000 A 
ATOM     33  N   UNL     1      -5.463  14.112  24.304  0.00  0.00    +0.000 N 
ATOM     34  N   UNL     1      -5.121  13.582  22.126  0.00  0.00    +0.000 NA
ATOM     35  C   UNL     1      -4.204  13.275  21.214  0.00  0.00    +0.000 A 
ATOM     36  N   UNL     1      -4.461  13.796  19.945  0.00  0.00    +0.000 N 
ATOM     37  C   UNL     1      -3.013  12.626  21.531  0.00  0.00    +0.000 A 
ATOM     38  C   UNL     1      -1.965  12.410  20.619  0.00  0.00    +0.000 A 
ATOM     39  H   UNL     1      -4.753  14.804  24.533  0.00  0.00    +0.000 HD
ATOM     40  H   UNL     1      -6.182  14.570  23.751  0.00  0.00    +0.000 HD
ATOM     41  H   UNL     1      -5.414  14.158  19.955  0.00  0.00    +0.000 HD
ATOM     42  H   UNL     1      -4.297  13.140  19.196  0.00  0.00    +0.000 HD
ENDBRANCH  26  27
ENDBRANCH  24  26
ENDBRANCH   4  24
TORSDOF 13
ENDMDL
MODEL 6
REMARK VINA RESULT:      -8.1      1.298      1.778
REMARK  Name = 
REMARK  15 active torsions:
REMARK  status: ('A' for Active; 'I' for Inactive)
REMARK    1  A    between atoms: C_1  and  C_2
REMARK    2  A    between atoms: C_2  and  O_3
REMARK    3  A    between atoms: O_3  and  C_4
REMARK    4  A    between atoms: C_4  and  C_6
REMARK    5  A    between atoms: C_6  and  C_7
REMARK    6  A    between atoms: C_7  and  C_8
REMARK    7  A    between atoms: C_8  and  N_9
REMARK    8  A    between atoms: C_8  and  C_32
REMARK    9  A    between atoms: C_10  and  C_12
REMARK   10  A    between atoms: C_15  and  N_16
REMARK   11  A    between atoms: N_16  and  C_17
REMARK   12  A    between atoms: C_17  and  C_18
REMARK   13  A    between atoms: C_32  and  O_34
REMARK   14  A    between atoms: O_34  and  C_35
REMARK   15  A    between atoms: C_35  and  C_36
REMARK                            x       y       z     vdW  Elec       q    Type
REMARK                         _______ _______ _______ _____ _____    ______ ____
ROOT
ATOM      1  C   UNL     1       1.746   7.949  19.797  0.00  0.00    +0.000 A 
ATOM      2  C   UNL     1       1.099   8.496  20.907  0.00  0.00    +0.000 A 
ATOM      3  C   UNL     1       0.465   9.736  20.795  0.00  0.00    +0.000 A 
ATOM      4  C   UNL     1       0.500  10.470  19.601  0.00  0.00    +0.000 A 
ATOM      5  C   UNL     1       1.147   9.902  18.498  0.00  0.00    +0.000 A 
ATOM      6  C   UNL     1       1.782   8.660  18.597  0.00  0.00    +0.000 A 
ENDROOT
BRANCH   1   8
ATOM      7  N   UNL     1       3.422   6.405  18.958  0.00  0.00    +0.000 N 
ATOM      8  C   UNL     1       2.413   6.627  19.860  0.00  0.00    +0.000 C 
ATOM      9  O   UNL     1       2.076   5.802  20.702  0.00  0.00    +0.000 OA
ATOM     10  H   UNL     1       3.739   7.143  18.334  0.00  0.00    +0.000 HD
BRANCH   7  11
ATOM     11  C   UNL     1       4.139   5.120  18.895  0.00  0.00    +0.000 C 
BRANCH  11  12
ATOM     12  C   UNL     1       5.627   5.482  18.808  0.00  0.00    +0.000 C 
ATOM     13  O   UNL     1       6.492   5.025  19.546  0.00  0.00    +0.000 OA
BRANCH  12  14
ATOM     14  O   UNL     1       5.844   6.372  17.799  0.00  0.00    +0.000 OA
BRANCH  14  15
ATOM     15  C   UNL     1       7.198   6.486  17.357  0.00  0.00    +0.000 C 
ATOM     16  C   UNL     1       7.720   7.894  17.588  0.00  0.00    +0.000 C 
ENDBRANCH  14  15
ENDBRANCH  12  14
ENDBRANCH  11  12
BRANCH  11  17
ATOM     17  C   UNL     1       3.667   4.337  17.679  0.00  0.00    +0.000 C 
BRANCH  17  18
ATOM     18  C   UNL     1       4.137   2.884  17.630  0.00  0.00    +0.000 C 
BRANCH  18  19
ATOM     19  C   UNL     1       3.876   2.283  18.990  0.00  0.00    +0.000 C 
ATOM     20  O   UNL     1       4.739   2.155  19.849  0.00  0.00    +0.000 OA
BRANCH  19  21
ATOM     21  O   UNL     1       2.613   1.787  19.055  0.00  0.00    +0.000 OA
BRANCH  21  23
ATOM     22  C   UNL     1       0.595   3.012  19.384  0.00  0.00    +0.000 C 
ATOM     23  C   UNL     1       1.781   2.361  20.074  0.00  0.00    +0.000 C 
ENDBRANCH  21  23
ENDBRANCH  19  21
ENDBRANCH  18  19
ENDBRANCH  17  18
ENDBRANCH  11  17
ENDBRANCH   7  11
ENDBRANCH   1   8
BRANCH   4  24
ATOM     24  N   UNL     1      -0.224  11.659  19.535  0.00  0.00    +0.000 N 
ATOM     25  H   UNL     1       0.231  12.419  20.034  0.00  0.00    +0.000 HD
BRANCH  24  26
ATOM     26  C   UNL     1      -0.747  12.107  18.253  0.00  0.00    +0.000 C 
BRANCH  26  27
ATOM     27  C   UNL     1      -2.238  11.881  18.245  0.00  0.00    +0.000 A 
ATOM     28  C   UNL     1      -2.894  11.237  17.196  0.00  0.00    +0.000 A 
ATOM     29  C   UNL     1      -4.259  10.939  17.306  0.00  0.00    +0.000 A 
ATOM     30  C   UNL     1      -4.994  11.268  18.443  0.00  0.00    +0.000 A 
ATOM     31  N   UNL     1      -6.244  10.819  18.589  0.00  0.00    +0.000 NA
ATOM     32  C   UNL     1      -6.879  11.149  19.716  0.00  0.00    +0.000 A 
ATOM     33  N   UNL     1      -7.916  10.336  20.158  0.00  0.00    +0.000 N 
ATOM     34  N   UNL     1      -6.424  11.969  20.656  0.00  0.00    +0.000 NA
ATOM     35  C   UNL     1      -5.160  12.360  20.534  0.00  0.00    +0.000 A 
ATOM     36  N   UNL     1      -4.655  13.026  21.651  0.00  0.00    +0.000 N 
ATOM     37  C   UNL     1      -4.360  11.997  19.451  0.00  0.00    +0.000 A 
ATOM     38  C   UNL     1      -2.985  12.276  19.359  0.00  0.00    +0.000 A 
ATOM     39  H   UNL     1      -7.443   9.458  20.367  0.00  0.00    +0.000 HD
ATOM     40  H   UNL     1      -8.195  10.760  21.038  0.00  0.00    +0.000 HD
ATOM     41  H   UNL     1      -5.445  13.230  22.263  0.00  0.00    +0.000 HD
ATOM     42  H   UNL     1      -4.111  13.845  21.424  0.00  0.00    +0.000 HD
ENDBRANCH  26  27
ENDBRANCH  24  26
ENDBRANCH   4  24
TORSDOF 13
ENDMDL
MODEL 7
REMARK VINA RESULT:      -7.9      1.367      1.996
REMARK  Name = 
REMARK  15 active torsions:
REMARK  status: ('A' for Active; 'I' for Inactive)
REMARK    1  A    between atoms: C_1  and  C_2
REMARK    2  A    between atoms: C_2  and  O_3
REMARK    3  A    between atoms: O_3  and  C_4
REMARK    4  A    between atoms: C_4  and  C_6
REMARK    5  A    between atoms: C_6  and  C_7
REMARK    6  A    between atoms: C_7  and  C_8
REMARK    7  A    between atoms: C_8  and  N_9
REMARK    8  A    between atoms: C_8  and  C_32
REMARK    9  A    between atoms: C_10  and  C_12
REMARK   10  A    between atoms: C_15  and  N_16
REMARK   11  A    between atoms: N_16  and  C_17
REMARK   12  A    between atoms: C_17  and  C_18
REMARK   13  A    between atoms: C_32  and  O_34
REMARK   14  A    between atoms: O_34  and  C_35
REMARK   15  A    between atoms: C_35  and  C_36
REMARK                            x       y       z     vdW  Elec       q    Type
REMARK                         _______ _______ _______ _____ _____    ______ ____
ROOT
ATOM      1  C   UNL     1       1.641   8.087  19.836  0.00  0.00    +0.000 A 
ATOM      2  C   UNL     1       0.972   8.606  20.946  0.00  0.00    +0.000 A 
ATOM      3  C   UNL     1       0.416   9.886  20.882  0.00  0.00    +0.000 A 
ATOM      4  C   UNL     1       0.552  10.685  19.738  0.00  0.00    +0.000 A 
ATOM      5  C   UNL     1       1.220  10.146  18.633  0.00  0.00    +0.000 A 
ATOM      6  C   UNL     1       1.778   8.865  18.685  0.00  0.00    +0.000 A 
ENDROOT
BRANCH   1   8
ATOM      7  N   UNL     1       3.134   6.441  18.859  0.00  0.00    +0.000 N 
ATOM      8  C   UNL     1       2.229   6.726  19.847  0.00  0.00    +0.000 C 
ATOM      9  O   UNL     1       1.921   5.927  20.724  0.00  0.00    +0.000 OA
ATOM     10  H   UNL     1       3.437   7.156  18.202  0.00  0.00    +0.000 HD
BRANCH   7  11
ATOM     11  C   UNL     1       3.762   5.113  18.741  0.00  0.00    +0.000 C 
BRANCH  11  12
ATOM     12  C   UNL     1       5.274   5.374  18.702  0.00  0.00    +0.000 C 
ATOM     13  O   UNL     1       5.991   5.417  19.695  0.00  0.00    +0.000 OA
BRANCH  12  14
ATOM     14  O   UNL     1       5.696   5.543  17.418  0.00  0.00    +0.000 OA
BRANCH  14  15
ATOM     15  C   UNL     1       6.893   4.847  17.065  0.00  0.00    +0.000 C 
ATOM     16  C   UNL     1       7.027   4.743  15.555  0.00  0.00    +0.000 C 
ENDBRANCH  14  15
ENDBRANCH  12  14
ENDBRANCH  11  12
BRANCH  11  17
ATOM     17  C   UNL     1       3.265   4.430  17.475  0.00  0.00    +0.000 C 
BRANCH  17  18
ATOM     18  C   UNL     1       3.119   2.913  17.580  0.00  0.00    +0.000 C 
BRANCH  18  19
ATOM     19  C   UNL     1       1.829   2.638  18.314  0.00  0.00    +0.000 C 
ATOM     20  O   UNL     1       0.739   3.051  17.943  0.00  0.00    +0.000 OA
BRANCH  19  21
ATOM     21  O   UNL     1       2.080   2.006  19.492  0.00  0.00    +0.000 OA
BRANCH  21  23
ATOM     22  C   UNL     1       2.441   2.589  21.774  0.00  0.00    +0.000 C 
ATOM     23  C   UNL     1       1.431   2.572  20.640  0.00  0.00    +0.000 C 
ENDBRANCH  21  23
ENDBRANCH  19  21
ENDBRANCH  18  19
ENDBRANCH  17  18
ENDBRANCH  11  17
ENDBRANCH   7  11
ENDBRANCH   1   8
BRANCH   4  24
ATOM     24  N   UNL     1      -0.099  11.917  19.713  0.00  0.00    +0.000 N 
ATOM     25  H   UNL     1       0.419  12.642  20.202  0.00  0.00    +0.000 HD
BRANCH  24  26
ATOM     26  C   UNL     1      -0.641  12.413  18.456  0.00  0.00    +0.000 C 
BRANCH  26  27
ATOM     27  C   UNL     1      -2.117  12.105  18.423  0.00  0.00    +0.000 A 
ATOM     28  C   UNL     1      -2.729  11.475  17.339  0.00  0.00    +0.000 A 
ATOM     29  C   UNL     1      -4.076  11.096  17.422  0.00  0.00    +0.000 A 
ATOM     30  C   UNL     1      -4.836  11.330  18.566  0.00  0.00    +0.000 A 
ATOM     31  N   UNL     1      -6.060  10.806  18.678  0.00  0.00    +0.000 NA
ATOM     32  C   UNL     1      -6.721  11.047  19.813  0.00  0.00    +0.000 A 
ATOM     33  N   UNL     1      -7.713  10.157  20.208  0.00  0.00    +0.000 N 
ATOM     34  N   UNL     1      -6.320  11.846  20.795  0.00  0.00    +0.000 NA
ATOM     35  C   UNL     1      -5.078  12.312  20.703  0.00  0.00    +0.000 A 
ATOM     36  N   UNL     1      -4.620  12.953  21.855  0.00  0.00    +0.000 N 
ATOM     37  C   UNL     1      -4.251  12.045  19.613  0.00  0.00    +0.000 A 
ATOM     38  C   UNL     1      -2.894  12.405  19.547  0.00  0.00    +0.000 A 
ATOM     39  H   UNL     1      -7.194   9.299  20.380  0.00  0.00    +0.000 HD
ATOM     40  H   UNL     1      -8.022  10.524  21.103  0.00  0.00    +0.000 HD
ATOM     41  H   UNL     1      -5.424  13.084  22.468  0.00  0.00    +0.000 HD
ATOM     42  H   UNL     1      -4.121  13.811  21.671  0.00  0.00    +0.000 HD
ENDBRANCH  26  27
ENDBRANCH  24  26
ENDBRANCH   4  24
TORSDOF 13
ENDMDL
MODEL 8
REMARK VINA RESULT:      -7.9      1.473      3.849
REMARK  Name = 
REMARK  15 active torsions:
REMARK  status: ('A' for Active; 'I' for Inactive)
REMARK    1  A    between atoms: C_1  and  C_2
REMARK    2  A    between atoms: C_2  and  O_3
REMARK    3  A    between atoms: O_3  and  C_4
REMARK    4  A    between atoms: C_4  and  C_6
REMARK    5  A    between atoms: C_6  and  C_7
REMARK    6  A    between atoms: C_7  and  C_8
REMARK    7  A    between atoms: C_8  and  N_9
REMARK    8  A    between atoms: C_8  and  C_32
REMARK    9  A    between atoms: C_10  and  C_12
REMARK   10  A    between atoms: C_15  and  N_16
REMARK   11  A    between atoms: N_16  and  C_17
REMARK   12  A    between atoms: C_17  and  C_18
REMARK   13  A    between atoms: C_32  and  O_34
REMARK   14  A    between atoms: O_34  and  C_35
REMARK   15  A    between atoms: C_35  and  C_36
REMARK                            x       y       z     vdW  Elec       q    Type
REMARK                         _______ _______ _______ _____ _____    ______ ____
ROOT
ATOM      1  C   UNL     1       2.234   7.392  19.383  0.00  0.00    +0.000 A 
ATOM      2  C   UNL     1       1.747   7.291  20.687  0.00  0.00    +0.000 A 
ATOM      3  C   UNL     1       1.053   8.365  21.251  0.00  0.00    +0.000 A 
ATOM      4  C   UNL     1       0.871   9.565  20.550  0.00  0.00    +0.000 A 
ATOM      5  C   UNL     1       1.361   9.645  19.242  0.00  0.00    +0.000 A 
ATOM      6  C   UNL     1       2.054   8.576  18.667  0.00  0.00    +0.000 A 
ENDROOT
BRANCH   1   8
ATOM      7  N   UNL     1       3.985   5.710  19.446  0.00  0.00    +0.000 N 
ATOM      8  C   UNL     1       2.958   6.272  18.734  0.00  0.00    +0.000 C 
ATOM      9  O   UNL     1       2.615   5.874  17.626  0.00  0.00    +0.000 OA
ATOM     10  H   UNL     1       4.184   6.003  20.400  0.00  0.00    +0.000 HD
BRANCH   7  11
ATOM     11  C   UNL     1       4.803   4.615  18.897  0.00  0.00    +0.000 C 
BRANCH  11  12
ATOM     12  C   UNL     1       4.312   3.342  19.599  0.00  0.00    +0.000 C 
ATOM     13  O   UNL     1       5.011   2.641  20.322  0.00  0.00    +0.000 OA
BRANCH  12  14
ATOM     14  O   UNL     1       3.001   3.112  19.309  0.00  0.00    +0.000 OA
BRANCH  14  15
ATOM     15  C   UNL     1       2.171   2.780  20.424  0.00  0.00    +0.000 C 
ATOM     16  C   UNL     1       0.901   3.615  20.414  0.00  0.00    +0.000 C 
ENDBRANCH  14  15
ENDBRANCH  12  14
ENDBRANCH  11  12
BRANCH  11  17
ATOM     17  C   UNL     1       6.272   4.893  19.174  0.00  0.00    +0.000 C 
BRANCH  17  18
ATOM     18  C   UNL     1       6.925   5.900  18.229  0.00  0.00    +0.000 C 
BRANCH  18  19
ATOM     19  C   UNL     1       7.511   5.118  17.078  0.00  0.00    +0.000 C 
ATOM     20  O   UNL     1       8.183   4.104  17.222  0.00  0.00    +0.000 OA
BRANCH  19  21
ATOM     21  O   UNL     1       7.308   5.775  15.906  0.00  0.00    +0.000 OA
BRANCH  21  23
ATOM     22  C   UNL     1       5.483   4.568  14.962  0.00  0.00    +0.000 C 
ATOM     23  C   UNL     1       6.945   4.944  14.793  0.00  0.00    +0.000 C 
ENDBRANCH  21  23
ENDBRANCH  19  21
ENDBRANCH  18  19
ENDBRANCH  17  18
ENDBRANCH  11  17
ENDBRANCH   7  11
ENDBRANCH   1   8
BRANCH   4  24
ATOM     24  N   UNL     1       0.097  10.563  21.140  0.00  0.00    +0.000 N 
ATOM     25  H   UNL     1       0.266  10.647  22.139  0.00  0.00    +0.000 HD
BRANCH  24  26
ATOM     26  C   UNL     1       0.014  11.871  20.507  0.00  0.00    +0.000 C 
BRANCH  26  27
ATOM     27  C   UNL     1      -1.251  11.921  19.688  0.00  0.00    +0.000 A 
ATOM     28  C   UNL     1      -1.289  11.558  18.342  0.00  0.00    +0.000 A 
ATOM     29  C   UNL     1      -2.518  11.498  17.670  0.00  0.00    +0.000 A 
ATOM     30  C   UNL     1      -3.720  11.793  18.310  0.00  0.00    +0.000 A 
ATOM     31  N   UNL     1      -4.883  11.561  17.694  0.00  0.00    +0.000 NA
ATOM     32  C   UNL     1      -5.996  11.841  18.376  0.00  0.00    +0.000 A 
ATOM     33  N   UNL     1      -7.168  11.175  18.039  0.00  0.00    +0.000 N 
ATOM     34  N   UNL     1      -6.055  12.427  19.566  0.00  0.00    +0.000 NA
ATOM     35  C   UNL     1      -4.897  12.597  20.196  0.00  0.00    +0.000 A 
ATOM     36  N   UNL     1      -5.022  13.000  21.526  0.00  0.00    +0.000 N 
ATOM     37  C   UNL     1      -3.672  12.249  19.628  0.00  0.00    +0.000 A 
ATOM     38  C   UNL     1      -2.447  12.286  20.315  0.00  0.00    +0.000 A 
ATOM     39  H   UNL     1      -6.953  10.206  18.268  0.00  0.00    +0.000 HD
ATOM     40  H   UNL     1      -7.842  11.517  18.718  0.00  0.00    +0.000 HD
ATOM     41  H   UNL     1      -5.997  13.256  21.674  0.00  0.00    +0.000 HD
ATOM     42  H   UNL     1      -4.378  13.731  21.790  0.00  0.00    +0.000 HD
ENDBRANCH  26  27
ENDBRANCH  24  26
ENDBRANCH   4  24
TORSDOF 13
ENDMDL
MODEL 9
REMARK VINA RESULT:      -7.9      1.677      3.972
REMARK  Name = 
REMARK  15 active torsions:
REMARK  status: ('A' for Active; 'I' for Inactive)
REMARK    1  A    between atoms: C_1  and  C_2
REMARK    2  A    between atoms: C_2  and  O_3
REMARK    3  A    between atoms: O_3  and  C_4
REMARK    4  A    between atoms: C_4  and  C_6
REMARK    5  A    between atoms: C_6  and  C_7
REMARK    6  A    between atoms: C_7  and  C_8
REMARK    7  A    between atoms: C_8  and  N_9
REMARK    8  A    between atoms: C_8  and  C_32
REMARK    9  A    between atoms: C_10  and  C_12
REMARK   10  A    between atoms: C_15  and  N_16
REMARK   11  A    between atoms: N_16  and  C_17
REMARK   12  A    between atoms: C_17  and  C_18
REMARK   13  A    between atoms: C_32  and  O_34
REMARK   14  A    between atoms: O_34  and  C_35
REMARK   15  A    between atoms: C_35  and  C_36
REMARK                            x       y       z     vdW  Elec       q    Type
REMARK                         _______ _______ _______ _____ _____    ______ ____
ROOT
ATOM      1  C   UNL     1       2.262   7.629  18.641  0.00  0.00    +0.000 A 
ATOM      2  C   UNL     1       1.808   7.719  19.958  0.00  0.00    +0.000 A 
ATOM      3  C   UNL     1       1.189   8.892  20.397  0.00  0.00    +0.000 A 
ATOM      4  C   UNL     1       1.050  10.004  19.554  0.00  0.00    +0.000 A 
ATOM      5  C   UNL     1       1.504   9.892  18.235  0.00  0.00    +0.000 A 
ATOM      6  C   UNL     1       2.122   8.722  17.784  0.00  0.00    +0.000 A 
ENDROOT
BRANCH   1   8
ATOM      7  N   UNL     1       4.275   6.389  18.089  0.00  0.00    +0.000 N 
ATOM      8  C   UNL     1       2.905   6.398  18.122  0.00  0.00    +0.000 C 
ATOM      9  O   UNL     1       2.221   5.442  17.772  0.00  0.00    +0.000 OA
ATOM     10  H   UNL     1       4.814   7.161  18.473  0.00  0.00    +0.000 HD
BRANCH   7  11
ATOM     11  C   UNL     1       5.032   5.239  17.563  0.00  0.00    +0.000 C 
BRANCH  11  12
ATOM     12  C   UNL     1       5.336   4.355  18.779  0.00  0.00    +0.000 C 
ATOM     13  O   UNL     1       6.151   4.637  19.650  0.00  0.00    +0.000 OA
BRANCH  12  14
ATOM     14  O   UNL     1       4.573   3.226  18.752  0.00  0.00    +0.000 OA
BRANCH  14  15
ATOM     15  C   UNL     1       3.760   3.003  19.906  0.00  0.00    +0.000 C 
ATOM     16  C   UNL     1       2.413   2.423  19.508  0.00  0.00    +0.000 C 
ENDBRANCH  14  15
ENDBRANCH  12  14
ENDBRANCH  11  12
BRANCH  11  17
ATOM     17  C   UNL     1       6.299   5.736  16.884  0.00  0.00    +0.000 C 
BRANCH  17  18
ATOM     18  C   UNL     1       7.216   4.636  16.353  0.00  0.00    +0.000 C 
BRANCH  18  19
ATOM     19  C   UNL     1       7.099   4.643  14.848  0.00  0.00    +0.000 C 
ATOM     20  O   UNL     1       7.614   5.494  14.134  0.00  0.00    +0.000 OA
BRANCH  19  21
ATOM     21  O   UNL     1       6.238   3.676  14.435  0.00  0.00    +0.000 OA
BRANCH  21  23
ATOM     22  C   UNL     1       6.184   3.018  12.146  0.00  0.00    +0.000 C 
ATOM     23  C   UNL     1       5.575   3.938  13.189  0.00  0.00    +0.000 C 
ENDBRANCH  21  23
ENDBRANCH  19  21
ENDBRANCH  18  19
ENDBRANCH  17  18
ENDBRANCH  11  17
ENDBRANCH   7  11
ENDBRANCH   1   8
BRANCH   4  24
ATOM     24  N   UNL     1       0.348  11.109  20.030  0.00  0.00    +0.000 N 
ATOM     25  H   UNL     1       0.849  11.601  20.766  0.00  0.00    +0.000 HD
BRANCH  24  26
ATOM     26  C   UNL     1      -0.246  12.042  19.083  0.00  0.00    +0.000 C 
BRANCH  26  27
ATOM     27  C   UNL     1      -1.733  12.084  19.331  0.00  0.00    +0.000 A 
ATOM     28  C   UNL     1      -2.283  12.562  20.520  0.00  0.00    +0.000 A 
ATOM     29  C   UNL     1      -3.673  12.701  20.640  0.00  0.00    +0.000 A 
ATOM     30  C   UNL     1      -4.536  12.373  19.597  0.00  0.00    +0.000 A 
ATOM     31  N   UNL     1      -5.835  12.677  19.680  0.00  0.00    +0.000 NA
ATOM     32  C   UNL     1      -6.600  12.359  18.632  0.00  0.00    +0.000 A 
ATOM     33  N   UNL     1      -7.774  13.072  18.425  0.00  0.00    +0.000 N 
ATOM     34  N   UNL     1      -6.212  11.674  17.562  0.00  0.00    +0.000 NA
ATOM     35  C   UNL     1      -4.909  11.431  17.460  0.00  0.00    +0.000 A 
ATOM     36  N   UNL     1      -4.517  10.917  16.224  0.00  0.00    +0.000 N 
ATOM     37  C   UNL     1      -3.994  11.805  18.443  0.00  0.00    +0.000 A 
ATOM     38  C   UNL     1      -2.599  11.688  18.306  0.00  0.00    +0.000 A 
ATOM     39  H   UNL     1      -7.438  14.013  18.232  0.00  0.00    +0.000 HD
ATOM     40  H   UNL     1      -8.140  12.685  17.560  0.00  0.00    +0.000 HD
ATOM     41  H   UNL     1      -5.365  10.667  15.718  0.00  0.00    +0.000 HD
ATOM     42  H   UNL     1      -3.859  10.155  16.292  0.00  0.00    +0.000 HD
ENDBRANCH  26  27
ENDBRANCH  24  26
ENDBRANCH   4  24
TORSDOF 13
ENDMDL
