MODEL 1
REMARK VINA RESULT:      -7.7      0.000      0.000
REMARK  Name = 
REMARK  8 active torsions:
REMARK  status: ('A' for Active; 'I' for Inactive)
REMARK    1  A    between atoms: C_2  and  C_3
REMARK    2  A    between atoms: C_3  and  C_24
REMARK    3  A    between atoms: C_4  and  N_5
REMARK    4  A    between atoms: N_5  and  C_6
REMARK    5  A    between atoms: C_9  and  O_10
REMARK    6  A    between atoms: O_10  and  C_11
REMARK    7  A    between atoms: C_14  and  C_15
REMARK    8  A    between atoms: C_24  and  C_26
REMARK                            x       y       z     vdW  Elec       q    Type
REMARK                         _______ _______ _______ _____ _____    ______ ____
ROOT
ATOM      1  C   UNL     1       7.942   8.042  18.105  0.00  0.00    +0.000 A 
ATOM      2  C   UNL     1       8.364   7.070  19.020  0.00  0.00    +0.000 A 
ATOM      3  C   UNL     1       7.879   5.759  18.952  0.00  0.00    +0.000 A 
ATOM      4  C   UNL     1       6.980   5.395  17.951  0.00  0.00    +0.000 A 
ATOM      5  C   UNL     1       6.605   6.338  16.992  0.00  0.00    +0.000 A 
ATOM      6  C   UNL     1       7.067   7.652  17.083  0.00  0.00    +0.000 A 
ENDROOT
BRANCH   1   7
ATOM      7  N   UNL     1       8.422   9.362  18.104  0.00  0.00    +0.000 N 
ATOM      8  H   UNL     1       8.123   9.913  17.302  0.00  0.00    +0.000 HD
BRANCH   7  10
ATOM      9  C   UNL     1       9.488  11.298  19.161  0.00  0.00    +0.000 C 
ATOM     10  C   UNL     1       9.179   9.990  19.066  0.00  0.00    +0.000 C 
BRANCH   9  12
ATOM     11  N   UNL     1       8.623  13.030  17.459  0.00  0.00    +0.000 NA
ATOM     12  C   UNL     1       9.007  12.244  18.222  0.00  0.00    +0.000 C 
ENDBRANCH   9  12
BRANCH   9  13
ATOM     13  C   UNL     1      10.363  11.748  20.288  0.00  0.00    +0.000 C 
ATOM     14  O   UNL     1      11.591  11.681  20.196  0.00  0.00    +0.000 OA
BRANCH  13  15
ATOM     15  C   UNL     1       9.712  12.316  21.533  0.00  0.00    +0.000 C 
ATOM     16 CL   UNL     1       9.969  14.069  21.591  0.00  0.00    +0.000 Cl
ENDBRANCH  13  15
ENDBRANCH   9  13
ENDBRANCH   7  10
ENDBRANCH   1   7
BRANCH   4  17
ATOM     17  O   UNL     1       6.574   4.078  17.940  0.00  0.00    +0.000 OA
BRANCH  17  18
ATOM     18  C   UNL     1       5.270   3.794  18.319  0.00  0.00    +0.000 A 
ATOM     19  N   UNL     1       5.016   3.545  19.631  0.00  0.00    +0.000 NA
ATOM     20  C   UNL     1       3.731   3.351  19.993  0.00  0.00    +0.000 A 
ATOM     21  C   UNL     1       2.670   3.368  19.101  0.00  0.00    +0.000 A 
ATOM     22  C   UNL     1       2.962   3.563  17.744  0.00  0.00    +0.000 A 
ATOM     23  C   UNL     1       4.282   3.771  17.340  0.00  0.00    +0.000 A 
ATOM     24 CL   UNL     1       4.622   4.012  15.670  0.00  0.00    +0.000 Cl
BRANCH  21  25
ATOM     25  C   UNL     1       1.269   3.194  19.597  0.00  0.00    +0.000 C 
ATOM     26  F   UNL     1       1.181   2.412  20.708  0.00  0.00    +0.000 F 
ATOM     27  F   UNL     1       0.687   4.379  19.928  0.00  0.00    +0.000 F 
ATOM     28  F   UNL     1       0.456   2.620  18.668  0.00  0.00    +0.000 F 
ENDBRANCH  21  25
ENDBRANCH  17  18
ENDBRANCH   4  17
TORSDOF 8
ENDMDL
MODEL 2
REMARK VINA RESULT:      -7.5      7.355      9.132
REMARK  Name = 
REMARK  8 active torsions:
REMARK  status: ('A' for Active; 'I' for Inactive)
REMARK    1  A    between atoms: C_2  and  C_3
REMARK    2  A    between atoms: C_3  and  C_24
REMARK    3  A    between atoms: C_4  and  N_5
REMARK    4  A    between atoms: N_5  and  C_6
REMARK    5  A    between atoms: C_9  and  O_10
REMARK    6  A    between atoms: O_10  and  C_11
REMARK    7  A    between atoms: C_14  and  C_15
REMARK    8  A    between atoms: C_24  and  C_26
REMARK                            x       y       z     vdW  Elec       q    Type
REMARK                         _______ _______ _______ _____ _____    ______ ____
ROOT
ATOM      1  C   UNL     1      -0.222  10.503  18.547  0.00  0.00    +0.000 A 
ATOM      2  C   UNL     1      -0.246  10.136  19.897  0.00  0.00    +0.000 A 
ATOM      3  C   UNL     1       0.637   9.170  20.395  0.00  0.00    +0.000 A 
ATOM      4  C   UNL     1       1.572   8.573  19.553  0.00  0.00    +0.000 A 
ATOM      5  C   UNL     1       1.650   8.980  18.219  0.00  0.00    +0.000 A 
ATOM      6  C   UNL     1       0.747   9.921  17.720  0.00  0.00    +0.000 A 
ENDROOT
BRANCH   1   7
ATOM      7  N   UNL     1      -1.059  11.490  18.001  0.00  0.00    +0.000 N 
ATOM      8  H   UNL     1      -0.569  12.193  17.451  0.00  0.00    +0.000 HD
BRANCH   7  10
ATOM      9  C   UNL     1      -3.336  11.299  17.119  0.00  0.00    +0.000 C 
ATOM     10  C   UNL     1      -2.430  11.577  18.076  0.00  0.00    +0.000 C 
BRANCH   9  12
ATOM     11  N   UNL     1      -2.639  10.429  14.794  0.00  0.00    +0.000 NA
ATOM     12  C   UNL     1      -2.945  10.826  15.842  0.00  0.00    +0.000 C 
ENDBRANCH   9  12
BRANCH   9  13
ATOM     13  C   UNL     1      -4.787  11.502  17.424  0.00  0.00    +0.000 C 
ATOM     14  O   UNL     1      -5.468  12.275  16.746  0.00  0.00    +0.000 OA
BRANCH  13  15
ATOM     15  C   UNL     1      -5.408  10.718  18.561  0.00  0.00    +0.000 C 
ATOM     16 CL   UNL     1      -7.108  11.188  18.747  0.00  0.00    +0.000 Cl
ENDBRANCH  13  15
ENDBRANCH   9  13
ENDBRANCH   7  10
ENDBRANCH   1   7
BRANCH   4  17
ATOM     17  O   UNL     1       2.420   7.653  20.130  0.00  0.00    +0.000 OA
BRANCH  17  18
ATOM     18  C   UNL     1       2.249   6.315  19.805  0.00  0.00    +0.000 A 
ATOM     19  N   UNL     1       1.400   5.568  20.560  0.00  0.00    +0.000 NA
ATOM     20  C   UNL     1       1.185   4.291  20.180  0.00  0.00    +0.000 A 
ATOM     21  C   UNL     1       1.799   3.701  19.087  0.00  0.00    +0.000 A 
ATOM     22  C   UNL     1       2.719   4.470  18.361  0.00  0.00    +0.000 A 
ATOM     23  C   UNL     1       2.959   5.795  18.727  0.00  0.00    +0.000 A 
ATOM     24 CL   UNL     1       4.091   6.726  17.823  0.00  0.00    +0.000 Cl
BRANCH  21  25
ATOM     25  C   UNL     1       1.464   2.293  18.706  0.00  0.00    +0.000 C 
ATOM     26  F   UNL     1       0.137   2.095  18.475  0.00  0.00    +0.000 F 
ATOM     27  F   UNL     1       2.103   1.899  17.571  0.00  0.00    +0.000 F 
ATOM     28  F   UNL     1       1.816   1.397  19.668  0.00  0.00    +0.000 F 
ENDBRANCH  21  25
ENDBRANCH  17  18
ENDBRANCH   4  17
TORSDOF 8
ENDMDL
MODEL 3
REMARK VINA RESULT:      -7.5      0.797      1.153
REMARK  Name = 
REMARK  8 active torsions:
REMARK  status: ('A' for Active; 'I' for Inactive)
REMARK    1  A    between atoms: C_2  and  C_3
REMARK    2  A    between atoms: C_3  and  C_24
REMARK    3  A    between atoms: C_4  and  N_5
REMARK    4  A    between atoms: N_5  and  C_6
REMARK    5  A    between atoms: C_9  and  O_10
REMARK    6  A    between atoms: O_10  and  C_11
REMARK    7  A    between atoms: C_14  and  C_15
REMARK    8  A    between atoms: C_24  and  C_26
REMARK                            x       y       z     vdW  Elec       q    Type
REMARK                         _______ _______ _______ _____ _____    ______ ____
ROOT
ATOM      1  C   UNL     1       8.009   8.343  18.069  0.00  0.00    +0.000 A 
ATOM      2  C   UNL     1       8.481   7.438  19.027  0.00  0.00    +0.000 A 
ATOM      3  C   UNL     1       8.035   6.111  19.044  0.00  0.00    +0.000 A 
ATOM      4  C   UNL     1       7.126   5.664  18.087  0.00  0.00    +0.000 A 
ATOM      5  C   UNL     1       6.701   6.539  17.086  0.00  0.00    +0.000 A 
ATOM      6  C   UNL     1       7.124   7.870  17.091  0.00  0.00    +0.000 A 
ENDROOT
BRANCH   1   7
ATOM      7  N   UNL     1       8.448   9.674  17.982  0.00  0.00    +0.000 N 
ATOM      8  H   UNL     1       7.911  10.248  17.334  0.00  0.00    +0.000 HD
BRANCH   7  10
ATOM      9  C   UNL     1       9.706  11.602  18.817  0.00  0.00    +0.000 C 
ATOM     10  C   UNL     1       9.452  10.285  18.695  0.00  0.00    +0.000 C 
BRANCH   9  12
ATOM     11  N   UNL     1       8.208  13.363  17.678  0.00  0.00    +0.000 NA
ATOM     12  C   UNL     1       8.886  12.576  18.196  0.00  0.00    +0.000 C 
ENDBRANCH   9  12
BRANCH   9  13
ATOM     13  C   UNL     1      10.887  12.033  19.629  0.00  0.00    +0.000 C 
ATOM     14  O   UNL     1      12.007  11.568  19.403  0.00  0.00    +0.000 OA
BRANCH  13  15
ATOM     15  C   UNL     1      10.686  13.071  20.714  0.00  0.00    +0.000 C 
ATOM     16 CL   UNL     1       9.489  12.483  21.883  0.00  0.00    +0.000 Cl
ENDBRANCH  13  15
ENDBRANCH   9  13
ENDBRANCH   7  10
ENDBRANCH   1   7
BRANCH   4  17
ATOM     17  O   UNL     1       6.761   4.337  18.160  0.00  0.00    +0.000 OA
BRANCH  17  18
ATOM     18  C   UNL     1       5.409   4.036  18.245  0.00  0.00    +0.000 A 
ATOM     19  N   UNL     1       4.813   4.073  19.466  0.00  0.00    +0.000 NA
ATOM     20  C   UNL     1       3.482   3.857  19.518  0.00  0.00    +0.000 A 
ATOM     21  C   UNL     1       2.705   3.578  18.405  0.00  0.00    +0.000 A 
ATOM     22  C   UNL     1       3.352   3.482  17.165  0.00  0.00    +0.000 A 
ATOM     23  C   UNL     1       4.727   3.705  17.080  0.00  0.00    +0.000 A 
ATOM     24 CL   UNL     1       5.504   3.585  15.548  0.00  0.00    +0.000 Cl
BRANCH  21  25
ATOM     25  C   UNL     1       1.225   3.401  18.547  0.00  0.00    +0.000 C 
ATOM     26  F   UNL     1       0.512   3.978  17.541  0.00  0.00    +0.000 F 
ATOM     27  F   UNL     1       0.861   2.090  18.557  0.00  0.00    +0.000 F 
ATOM     28  F   UNL     1       0.746   3.936  19.702  0.00  0.00    +0.000 F 
ENDBRANCH  21  25
ENDBRANCH  17  18
ENDBRANCH   4  17
TORSDOF 8
ENDMDL
MODEL 4
REMARK VINA RESULT:      -7.5      6.978      9.934
REMARK  Name = 
REMARK  8 active torsions:
REMARK  status: ('A' for Active; 'I' for Inactive)
REMARK    1  A    between atoms: C_2  and  C_3
REMARK    2  A    between atoms: C_3  and  C_24
REMARK    3  A    between atoms: C_4  and  N_5
REMARK    4  A    between atoms: N_5  and  C_6
REMARK    5  A    between atoms: C_9  and  O_10
REMARK    6  A    between atoms: O_10  and  C_11
REMARK    7  A    between atoms: C_14  and  C_15
REMARK    8  A    between atoms: C_24  and  C_26
REMARK                            x       y       z     vdW  Elec       q    Type
REMARK                         _______ _______ _______ _____ _____    ______ ____
ROOT
ATOM      1  C   UNL     1       1.953   7.246  20.232  0.00  0.00    +0.000 A 
ATOM      2  C   UNL     1       1.189   8.162  20.964  0.00  0.00    +0.000 A 
ATOM      3  C   UNL     1       0.812   9.390  20.408  0.00  0.00    +0.000 A 
ATOM      4  C   UNL     1       1.176   9.710  19.102  0.00  0.00    +0.000 A 
ATOM      5  C   UNL     1       1.879   8.776  18.339  0.00  0.00    +0.000 A 
ATOM      6  C   UNL     1       2.281   7.565  18.908  0.00  0.00    +0.000 A 
ENDROOT
BRANCH   1   7
ATOM      7  N   UNL     1       2.329   5.985  20.725  0.00  0.00    +0.000 N 
ATOM      8  H   UNL     1       1.971   5.779  21.656  0.00  0.00    +0.000 HD
BRANCH   7  10
ATOM      9  C   UNL     1       3.064   3.682  20.333  0.00  0.00    +0.000 C 
ATOM     10  C   UNL     1       3.054   5.006  20.087  0.00  0.00    +0.000 C 
BRANCH   9  12
ATOM     11  N   UNL     1       1.564   2.629  22.147  0.00  0.00    +0.000 NA
ATOM     12  C   UNL     1       2.244   3.108  21.336  0.00  0.00    +0.000 C 
ENDBRANCH   9  12
BRANCH   9  13
ATOM     13  C   UNL     1       3.968   2.808  19.522  0.00  0.00    +0.000 C 
ATOM     14  O   UNL     1       5.190   2.852  19.679  0.00  0.00    +0.000 OA
BRANCH  13  15
ATOM     15  C   UNL     1       3.351   1.848  18.525  0.00  0.00    +0.000 C 
ATOM     16 CL   UNL     1       2.473   2.763  17.285  0.00  0.00    +0.000 Cl
ENDBRANCH  13  15
ENDBRANCH   9  13
ENDBRANCH   7  10
ENDBRANCH   1   7
BRANCH   4  17
ATOM     17  O   UNL     1       0.741  10.927  18.623  0.00  0.00    +0.000 OA
BRANCH  17  18
ATOM     18  C   UNL     1      -0.627  11.146  18.545  0.00  0.00    +0.000 A 
ATOM     19  N   UNL     1      -1.360  10.371  17.704  0.00  0.00    +0.000 NA
ATOM     20  C   UNL     1      -2.699  10.544  17.701  0.00  0.00    +0.000 A 
ATOM     21  C   UNL     1      -3.354  11.480  18.486  0.00  0.00    +0.000 A 
ATOM     22  C   UNL     1      -2.572  12.312  19.299  0.00  0.00    +0.000 A 
ATOM     23  C   UNL     1      -1.185  12.153  19.326  0.00  0.00    +0.000 A 
ATOM     24 CL   UNL     1      -0.240  13.183  20.331  0.00  0.00    +0.000 Cl
BRANCH  21  25
ATOM     25  C   UNL     1      -4.848  11.570  18.458  0.00  0.00    +0.000 C 
ATOM     26  F   UNL     1      -5.395  11.858  19.671  0.00  0.00    +0.000 F 
ATOM     27  F   UNL     1      -5.290  12.539  17.611  0.00  0.00    +0.000 F 
ATOM     28  F   UNL     1      -5.431  10.413  18.047  0.00  0.00    +0.000 F 
ENDBRANCH  21  25
ENDBRANCH  17  18
ENDBRANCH   4  17
TORSDOF 8
ENDMDL
MODEL 5
REMARK VINA RESULT:      -7.4      6.851      9.668
REMARK  Name = 
REMARK  8 active torsions:
REMARK  status: ('A' for Active; 'I' for Inactive)
REMARK    1  A    between atoms: C_2  and  C_3
REMARK    2  A    between atoms: C_3  and  C_24
REMARK    3  A    between atoms: C_4  and  N_5
REMARK    4  A    between atoms: N_5  and  C_6
REMARK    5  A    between atoms: C_9  and  O_10
REMARK    6  A    between atoms: O_10  and  C_11
REMARK    7  A    between atoms: C_14  and  C_15
REMARK    8  A    between atoms: C_24  and  C_26
REMARK                            x       y       z     vdW  Elec       q    Type
REMARK                         _______ _______ _______ _____ _____    ______ ____
ROOT
ATOM      1  C   UNL     1       2.216   7.093  19.920  0.00  0.00    +0.000 A 
ATOM      2  C   UNL     1       2.468   7.516  18.611  0.00  0.00    +0.000 A 
ATOM      3  C   UNL     1       1.940   8.720  18.129  0.00  0.00    +0.000 A 
ATOM      4  C   UNL     1       1.169   9.529  18.961  0.00  0.00    +0.000 A 
ATOM      5  C   UNL     1       0.967   9.151  20.289  0.00  0.00    +0.000 A 
ATOM      6  C   UNL     1       1.470   7.934  20.756  0.00  0.00    +0.000 A 
ENDROOT
BRANCH   1   7
ATOM      7  N   UNL     1       2.749   5.914  20.467  0.00  0.00    +0.000 N 
ATOM      8  H   UNL     1       3.174   6.036  21.385  0.00  0.00    +0.000 HD
BRANCH   7  10
ATOM      9  C   UNL     1       3.710   3.948  19.367  0.00  0.00    +0.000 C 
ATOM     10  C   UNL     1       2.710   4.643  19.943  0.00  0.00    +0.000 C 
BRANCH   9  12
ATOM     11  N   UNL     1       6.090   4.914  19.146  0.00  0.00    +0.000 NA
ATOM     12  C   UNL     1       5.017   4.483  19.253  0.00  0.00    +0.000 C 
ENDBRANCH   9  12
BRANCH   9  13
ATOM     13  C   UNL     1       3.419   2.579  18.836  0.00  0.00    +0.000 C 
ATOM     14  O   UNL     1       4.063   1.603  19.231  0.00  0.00    +0.000 OA
BRANCH  13  15
ATOM     15  C   UNL     1       2.301   2.411  17.828  0.00  0.00    +0.000 C 
ATOM     16 CL   UNL     1       0.758   2.215  18.679  0.00  0.00    +0.000 Cl
ENDBRANCH  13  15
ENDBRANCH   9  13
ENDBRANCH   7  10
ENDBRANCH   1   7
BRANCH   4  17
ATOM     17  O   UNL     1       0.710  10.709  18.416  0.00  0.00    +0.000 OA
BRANCH  17  18
ATOM     18  C   UNL     1      -0.661  10.889  18.308  0.00  0.00    +0.000 A 
ATOM     19  N   UNL     1      -1.360  10.064  17.485  0.00  0.00    +0.000 NA
ATOM     20  C   UNL     1      -2.702  10.201  17.455  0.00  0.00    +0.000 A 
ATOM     21  C   UNL     1      -3.394  11.147  18.194  0.00  0.00    +0.000 A 
ATOM     22  C   UNL     1      -2.648  12.029  18.988  0.00  0.00    +0.000 A 
ATOM     23  C   UNL     1      -1.259  11.908  19.042  0.00  0.00    +0.000 A 
ATOM     24 CL   UNL     1      -0.358  12.999  20.023  0.00  0.00    +0.000 Cl
BRANCH  21  25
ATOM     25  C   UNL     1      -4.890  11.196  18.140  0.00  0.00    +0.000 C 
ATOM     26  F   UNL     1      -5.432  12.121  18.979  0.00  0.00    +0.000 F 
ATOM     27  F   UNL     1      -5.351  11.506  16.897  0.00  0.00    +0.000 F 
ATOM     28  F   UNL     1      -5.462  10.007  18.470  0.00  0.00    +0.000 F 
ENDBRANCH  21  25
ENDBRANCH  17  18
ENDBRANCH   4  17
TORSDOF 8
ENDMDL
MODEL 6
REMARK VINA RESULT:      -7.4      1.704      2.077
REMARK  Name = 
REMARK  8 active torsions:
REMARK  status: ('A' for Active; 'I' for Inactive)
REMARK    1  A    between atoms: C_2  and  C_3
REMARK    2  A    between atoms: C_3  and  C_24
REMARK    3  A    between atoms: C_4  and  N_5
REMARK    4  A    between atoms: N_5  and  C_6
REMARK    5  A    between atoms: C_9  and  O_10
REMARK    6  A    between atoms: O_10  and  C_11
REMARK    7  A    between atoms: C_14  and  C_15
REMARK    8  A    between atoms: C_24  and  C_26
REMARK                            x       y       z     vdW  Elec       q    Type
REMARK                         _______ _______ _______ _____ _____    ______ ____
ROOT
ATOM      1  C   UNL     1       8.337   7.917  18.514  0.00  0.00    +0.000 A 
ATOM      2  C   UNL     1       7.604   7.743  17.335  0.00  0.00    +0.000 A 
ATOM      3  C   UNL     1       7.076   6.492  16.995  0.00  0.00    +0.000 A 
ATOM      4  C   UNL     1       7.254   5.401  17.843  0.00  0.00    +0.000 A 
ATOM      5  C   UNL     1       7.925   5.579  19.055  0.00  0.00    +0.000 A 
ATOM      6  C   UNL     1       8.477   6.821  19.374  0.00  0.00    +0.000 A 
ENDROOT
BRANCH   1   7
ATOM      7  N   UNL     1       8.859   9.156  18.923  0.00  0.00    +0.000 N 
ATOM      8  H   UNL     1       9.579   9.088  19.640  0.00  0.00    +0.000 HD
BRANCH   7  10
ATOM      9  C   UNL     1       9.343  11.499  18.401  0.00  0.00    +0.000 C 
ATOM     10  C   UNL     1       8.557  10.406  18.436  0.00  0.00    +0.000 C 
BRANCH   9  12
ATOM     11  N   UNL     1      11.769  11.429  19.271  0.00  0.00    +0.000 NA
ATOM     12  C   UNL     1      10.677  11.469  18.877  0.00  0.00    +0.000 C 
ENDBRANCH   9  12
BRANCH   9  13
ATOM     13  C   UNL     1       8.780  12.771  17.847  0.00  0.00    +0.000 C 
ATOM     14  O   UNL     1       7.855  12.744  17.031  0.00  0.00    +0.000 OA
BRANCH  13  15
ATOM     15  C   UNL     1       9.348  14.090  18.329  0.00  0.00    +0.000 C 
ATOM     16 CL   UNL     1      10.628  14.624  17.223  0.00  0.00    +0.000 Cl
ENDBRANCH  13  15
ENDBRANCH   9  13
ENDBRANCH   7  10
ENDBRANCH   1   7
BRANCH   4  17
ATOM     17  O   UNL     1       6.679   4.213  17.446  0.00  0.00    +0.000 OA
BRANCH  17  18
ATOM     18  C   UNL     1       5.387   3.939  17.873  0.00  0.00    +0.000 A 
ATOM     19  N   UNL     1       5.194   3.597  19.174  0.00  0.00    +0.000 NA
ATOM     20  C   UNL     1       3.923   3.413  19.589  0.00  0.00    +0.000 A 
ATOM     21  C   UNL     1       2.819   3.530  18.760  0.00  0.00    +0.000 A 
ATOM     22  C   UNL     1       3.047   3.820  17.407  0.00  0.00    +0.000 A 
ATOM     23  C   UNL     1       4.350   4.020  16.950  0.00  0.00    +0.000 A 
ATOM     24 CL   UNL     1       4.611   4.378  15.286  0.00  0.00    +0.000 Cl
BRANCH  21  25
ATOM     25  C   UNL     1       1.440   3.359  19.316  0.00  0.00    +0.000 C 
ATOM     26  F   UNL     1       1.344   2.350  20.225  0.00  0.00    +0.000 F 
ATOM     27  F   UNL     1       0.998   4.477  19.953  0.00  0.00    +0.000 F 
ATOM     28  F   UNL     1       0.521   3.085  18.352  0.00  0.00    +0.000 F 
ENDBRANCH  21  25
ENDBRANCH  17  18
ENDBRANCH   4  17
TORSDOF 8
ENDMDL
MODEL 7
REMARK VINA RESULT:      -7.4      7.268      9.616
REMARK  Name = 
REMARK  8 active torsions:
REMARK  status: ('A' for Active; 'I' for Inactive)
REMARK    1  A    between atoms: C_2  and  C_3
REMARK    2  A    between atoms: C_3  and  C_24
REMARK    3  A    between atoms: C_4  and  N_5
REMARK    4  A    between atoms: N_5  and  C_6
REMARK    5  A    between atoms: C_9  and  O_10
REMARK    6  A    between atoms: O_10  and  C_11
REMARK    7  A    between atoms: C_14  and  C_15
REMARK    8  A    between atoms: C_24  and  C_26
REMARK                            x       y       z     vdW  Elec       q    Type
REMARK                         _______ _______ _______ _____ _____    ______ ____
ROOT
ATOM      1  C   UNL     1       1.987   7.682  19.695  0.00  0.00    +0.000 A 
ATOM      2  C   UNL     1       2.119   8.252  18.424  0.00  0.00    +0.000 A 
ATOM      3  C   UNL     1       1.531   9.487  18.125  0.00  0.00    +0.000 A 
ATOM      4  C   UNL     1       0.819  10.180  19.101  0.00  0.00    +0.000 A 
ATOM      5  C   UNL     1       0.737   9.653  20.392  0.00  0.00    +0.000 A 
ATOM      6  C   UNL     1       1.299   8.407  20.677  0.00  0.00    +0.000 A 
ENDROOT
BRANCH   1   7
ATOM      7  N   UNL     1       2.585   6.465  20.062  0.00  0.00    +0.000 N 
ATOM      8  H   UNL     1       2.128   5.995  20.841  0.00  0.00    +0.000 HD
BRANCH   7  10
ATOM      9  C   UNL     1       3.627   4.876  18.517  0.00  0.00    +0.000 C 
ATOM     10  C   UNL     1       3.650   5.830  19.467  0.00  0.00    +0.000 C 
BRANCH   9  12
ATOM     11  N   UNL     1       1.402   4.032  17.525  0.00  0.00    +0.000 NA
ATOM     12  C   UNL     1       2.409   4.405  17.968  0.00  0.00    +0.000 C 
ENDBRANCH   9  12
BRANCH   9  13
ATOM     13  C   UNL     1       4.926   4.305  18.041  0.00  0.00    +0.000 C 
ATOM     14  O   UNL     1       5.757   3.879  18.847  0.00  0.00    +0.000 OA
BRANCH  13  15
ATOM     15  C   UNL     1       5.188   4.235  16.550  0.00  0.00    +0.000 C 
ATOM     16 CL   UNL     1       5.164   5.871  15.866  0.00  0.00    +0.000 Cl
ENDBRANCH  13  15
ENDBRANCH   9  13
ENDBRANCH   7  10
ENDBRANCH   1   7
BRANCH   4  17
ATOM     17  O   UNL     1       0.295  11.399  18.730  0.00  0.00    +0.000 OA
BRANCH  17  18
ATOM     18  C   UNL     1      -1.082  11.504  18.594  0.00  0.00    +0.000 A 
ATOM     19  N   UNL     1      -1.669  10.949  17.502  0.00  0.00    +0.000 NA
ATOM     20  C   UNL     1      -3.016  10.990  17.427  0.00  0.00    +0.000 A 
ATOM     21  C   UNL     1      -3.821  11.585  18.385  0.00  0.00    +0.000 A 
ATOM     22  C   UNL     1      -3.190  12.208  19.472  0.00  0.00    +0.000 A 
ATOM     23  C   UNL     1      -1.799  12.177  19.578  0.00  0.00    +0.000 A 
ATOM     24 CL   UNL     1      -1.041  12.945  20.920  0.00  0.00    +0.000 Cl
BRANCH  21  25
ATOM     25  C   UNL     1      -5.310  11.541  18.249  0.00  0.00    +0.000 C 
ATOM     26  F   UNL     1      -5.751  11.894  17.010  0.00  0.00    +0.000 F 
ATOM     27  F   UNL     1      -5.814  10.298  18.482  0.00  0.00    +0.000 F 
ATOM     28  F   UNL     1      -5.938  12.373  19.123  0.00  0.00    +0.000 F 
ENDBRANCH  21  25
ENDBRANCH  17  18
ENDBRANCH   4  17
TORSDOF 8
ENDMDL
MODEL 8
REMARK VINA RESULT:      -7.3      7.274      8.974
REMARK  Name = 
REMARK  8 active torsions:
REMARK  status: ('A' for Active; 'I' for Inactive)
REMARK    1  A    between atoms: C_2  and  C_3
REMARK    2  A    between atoms: C_3  and  C_24
REMARK    3  A    between atoms: C_4  and  N_5
REMARK    4  A    between atoms: N_5  and  C_6
REMARK    5  A    between atoms: C_9  and  O_10
REMARK    6  A    between atoms: O_10  and  C_11
REMARK    7  A    between atoms: C_14  and  C_15
REMARK    8  A    between atoms: C_24  and  C_26
REMARK                            x       y       z     vdW  Elec       q    Type
REMARK                         _______ _______ _______ _____ _____    ______ ____
ROOT
ATOM      1  C   UNL     1       0.534  10.140  18.734  0.00  0.00    +0.000 A 
ATOM      2  C   UNL     1       0.728   9.597  20.009  0.00  0.00    +0.000 A 
ATOM      3  C   UNL     1       1.486   8.433  20.187  0.00  0.00    +0.000 A 
ATOM      4  C   UNL     1       2.081   7.809  19.093  0.00  0.00    +0.000 A 
ATOM      5  C   UNL     1       1.951   8.380  17.826  0.00  0.00    +0.000 A 
ATOM      6  C   UNL     1       1.168   9.522  17.648  0.00  0.00    +0.000 A 
ENDROOT
BRANCH   1   7
ATOM      7  N   UNL     1      -0.186  11.323  18.500  0.00  0.00    +0.000 N 
ATOM      8  H   UNL     1       0.347  12.047  18.020  0.00  0.00    +0.000 HD
BRANCH   7  10
ATOM      9  C   UNL     1      -2.591  11.308  18.036  0.00  0.00    +0.000 C 
ATOM     10  C   UNL     1      -1.506  11.584  18.785  0.00  0.00    +0.000 C 
BRANCH   9  12
ATOM     11  N   UNL     1      -2.400  10.089  15.772  0.00  0.00    +0.000 NA
ATOM     12  C   UNL     1      -2.482  10.645  16.788  0.00  0.00    +0.000 C 
ENDBRANCH   9  12
BRANCH   9  13
ATOM     13  C   UNL     1      -3.937  11.718  18.544  0.00  0.00    +0.000 C 
ATOM     14  O   UNL     1      -4.062  12.202  19.672  0.00  0.00    +0.000 OA
BRANCH  13  15
ATOM     15  C   UNL     1      -5.139  11.555  17.636  0.00  0.00    +0.000 C 
ATOM     16 CL   UNL     1      -6.417  10.676  18.496  0.00  0.00    +0.000 Cl
ENDBRANCH  13  15
ENDBRANCH   9  13
ENDBRANCH   7  10
ENDBRANCH   1   7
BRANCH   4  17
ATOM     17  O   UNL     1       2.832   6.685  19.361  0.00  0.00    +0.000 OA
BRANCH  17  18
ATOM     18  C   UNL     1       3.528   6.101  18.312  0.00  0.00    +0.000 A 
ATOM     19  N   UNL     1       4.588   6.770  17.786  0.00  0.00    +0.000 NA
ATOM     20  C   UNL     1       5.302   6.151  16.823  0.00  0.00    +0.000 A 
ATOM     21  C   UNL     1       4.998   4.892  16.331  0.00  0.00    +0.000 A 
ATOM     22  C   UNL     1       3.864   4.247  16.843  0.00  0.00    +0.000 A 
ATOM     23  C   UNL     1       3.108   4.861  17.843  0.00  0.00    +0.000 A 
ATOM     24 CL   UNL     1       1.719   4.054  18.462  0.00  0.00    +0.000 Cl
BRANCH  21  25
ATOM     25  C   UNL     1       5.875   4.258  15.296  0.00  0.00    +0.000 C 
ATOM     26  F   UNL     1       7.120   4.805  15.232  0.00  0.00    +0.000 F 
ATOM     27  F   UNL     1       6.063   2.929  15.523  0.00  0.00    +0.000 F 
ATOM     28  F   UNL     1       5.356   4.358  14.043  0.00  0.00    +0.000 F 
ENDBRANCH  21  25
ENDBRANCH  17  18
ENDBRANCH   4  17
TORSDOF 8
ENDMDL
MODEL 9
REMARK VINA RESULT:      -7.3      7.371      9.183
REMARK  Name = 
REMARK  8 active torsions:
REMARK  status: ('A' for Active; 'I' for Inactive)
REMARK    1  A    between atoms: C_2  and  C_3
REMARK    2  A    between atoms: C_3  and  C_24
REMARK    3  A    between atoms: C_4  and  N_5
REMARK    4  A    between atoms: N_5  and  C_6
REMARK    5  A    between atoms: C_9  and  O_10
REMARK    6  A    between atoms: O_10  and  C_11
REMARK    7  A    between atoms: C_14  and  C_15
REMARK    8  A    between atoms: C_24  and  C_26
REMARK                            x       y       z     vdW  Elec       q    Type
REMARK                         _______ _______ _______ _____ _____    ______ ____
ROOT
ATOM      1  C   UNL     1      -0.214  10.380  18.548  0.00  0.00    +0.000 A 
ATOM      2  C   UNL     1       0.764   9.759  17.764  0.00  0.00    +0.000 A 
ATOM      3  C   UNL     1       1.669   8.852  18.327  0.00  0.00    +0.000 A 
ATOM      4  C   UNL     1       1.593   8.536  19.682  0.00  0.00    +0.000 A 
ATOM      5  C   UNL     1       0.578   9.097  20.460  0.00  0.00    +0.000 A 
ATOM      6  C   UNL     1      -0.302  10.026  19.900  0.00  0.00    +0.000 A 
ENDROOT
BRANCH   1   7
ATOM      7  N   UNL     1      -1.170  11.271  18.030  0.00  0.00    +0.000 N 
ATOM      8  H   UNL     1      -0.887  11.727  17.165  0.00  0.00    +0.000 HD
BRANCH   7  10
ATOM      9  C   UNL     1      -3.608  11.445  17.870  0.00  0.00    +0.000 C 
ATOM     10  C   UNL     1      -2.429  11.540  18.514  0.00  0.00    +0.000 C 
BRANCH   9  12
ATOM     11  N   UNL     1      -3.766  10.635  15.428  0.00  0.00    +0.000 NA
ATOM     12  C   UNL     1      -3.686  10.997  16.528  0.00  0.00    +0.000 C 
ENDBRANCH   9  12
BRANCH   9  13
ATOM     13  C   UNL     1      -4.857  11.827  18.600  0.00  0.00    +0.000 C 
ATOM     14  O   UNL     1      -4.801  12.505  19.628  0.00  0.00    +0.000 OA
BRANCH  13  15
ATOM     15  C   UNL     1      -6.193  11.389  18.035  0.00  0.00    +0.000 C 
ATOM     16 CL   UNL     1      -6.803  10.004  18.959  0.00  0.00    +0.000 Cl
ENDBRANCH  13  15
ENDBRANCH   9  13
ENDBRANCH   7  10
ENDBRANCH   1   7
BRANCH   4  17
ATOM     17  O   UNL     1       2.504   7.614  20.149  0.00  0.00    +0.000 OA
BRANCH  17  18
ATOM     18  C   UNL     1       2.317   6.281  19.810  0.00  0.00    +0.000 A 
ATOM     19  N   UNL     1       1.459   5.537  20.557  0.00  0.00    +0.000 NA
ATOM     20  C   UNL     1       1.229   4.267  20.163  0.00  0.00    +0.000 A 
ATOM     21  C   UNL     1       1.834   3.682  19.062  0.00  0.00    +0.000 A 
ATOM     22  C   UNL     1       2.763   4.448  18.344  0.00  0.00    +0.000 A 
ATOM     23  C   UNL     1       3.019   5.766  18.725  0.00  0.00    +0.000 A 
ATOM     24 CL   UNL     1       4.161   6.693  17.831  0.00  0.00    +0.000 Cl
BRANCH  21  25
ATOM     25  C   UNL     1       1.482   2.282  18.666  0.00  0.00    +0.000 C 
ATOM     26  F   UNL     1       1.853   1.350  19.586  0.00  0.00    +0.000 F 
ATOM     27  F   UNL     1       0.142   2.117  18.489  0.00  0.00    +0.000 F 
ATOM     28  F   UNL     1       2.067   1.910  17.496  0.00  0.00    +0.000 F 
ENDBRANCH  21  25
ENDBRANCH  17  18
ENDBRANCH   4  17
TORSDOF 8
ENDMDL
