MODEL 1
REMARK VINA RESULT:      -6.7      0.000      0.000
REMARK  Name = 
REMARK  4 active torsions:
REMARK  status: ('A' for Active; 'I' for Inactive)
REMARK    1  A    between atoms: C_1  and  C_2
REMARK    2  A    between atoms: C_2  and  O_4
REMARK    3  A    between atoms: O_4  and  C_5
REMARK    4  A    between atoms: C_10  and  C_11
REMARK                            x       y       z     vdW  Elec       q    Type
REMARK                         _______ _______ _______ _____ _____    ______ ____
ROOT
ATOM      1  C   UNL     1       6.112   4.300  18.051  0.00  0.00    +0.000 A 
ATOM      2  C   UNL     1       5.675   4.324  16.664  0.00  0.00    +0.000 A 
ATOM      3  C   UNL     1       4.399   4.012  16.379  0.00  0.00    +0.000 A 
ATOM      4  N   UNL     1       3.519   3.648  17.402  0.00  0.00    +0.000 N 
ATOM      5  N   UNL     1       2.208   3.310  17.270  0.00  0.00    +0.000 NA
ATOM      6  C   UNL     1       1.791   3.028  18.513  0.00  0.00    +0.000 A 
ATOM      7  C   UNL     1       0.384   2.622  18.752  0.00  0.00    +0.000 C 
ATOM      8  C   UNL     1       2.832   3.173  19.449  0.00  0.00    +0.000 A 
ATOM      9 BR   UNL     1       2.701   2.871  21.291  0.00  0.00    +0.000 Br
ATOM     10  C   UNL     1       3.930   3.577  18.736  0.00  0.00    +0.000 A 
ATOM     11  C   UNL     1       5.282   3.911  19.042  0.00  0.00    +0.000 A 
ENDROOT
BRANCH   1  12
ATOM     12  O   UNL     1       7.465   4.620  18.240  0.00  0.00    +0.000 OA
BRANCH  12  14
ATOM     13  C   UNL     1       7.879   6.925  18.391  0.00  0.00    +0.000 C 
ATOM     14  C   UNL     1       7.715   5.632  19.134  0.00  0.00    +0.000 C 
ATOM     15  O   UNL     1       7.803   5.533  20.350  0.00  0.00    +0.000 OA
ENDBRANCH  12  14
ENDBRANCH   1  12
TORSDOF 2
ENDMDL
MODEL 2
REMARK VINA RESULT:      -6.5      2.540      3.134
REMARK  Name = 
REMARK  4 active torsions:
REMARK  status: ('A' for Active; 'I' for Inactive)
REMARK    1  A    between atoms: C_1  and  C_2
REMARK    2  A    between atoms: C_2  and  O_4
REMARK    3  A    between atoms: O_4  and  C_5
REMARK    4  A    between atoms: C_10  and  C_11
REMARK                            x       y       z     vdW  Elec       q    Type
REMARK                         _______ _______ _______ _____ _____    ______ ____
ROOT
ATOM      1  C   UNL     1       5.040   5.776  16.378  0.00  0.00    +0.000 A 
ATOM      2  C   UNL     1       4.523   7.040  16.881  0.00  0.00    +0.000 A 
ATOM      3  C   UNL     1       3.608   7.022  17.866  0.00  0.00    +0.000 A 
ATOM      4  N   UNL     1       3.146   5.805  18.375  0.00  0.00    +0.000 N 
ATOM      5  N   UNL     1       2.230   5.628  19.365  0.00  0.00    +0.000 NA
ATOM      6  C   UNL     1       2.103   4.300  19.493  0.00  0.00    +0.000 A 
ATOM      7  C   UNL     1       1.176   3.735  20.504  0.00  0.00    +0.000 C 
ATOM      8  C   UNL     1       2.928   3.615  18.581  0.00  0.00    +0.000 A 
ATOM      9 BR   UNL     1       3.059   1.757  18.403  0.00  0.00    +0.000 Br
ATOM     10  C   UNL     1       3.597   4.580  17.877  0.00  0.00    +0.000 A 
ATOM     11  C   UNL     1       4.572   4.595  16.835  0.00  0.00    +0.000 A 
ENDROOT
BRANCH   1  12
ATOM     12  O   UNL     1       5.973   5.902  15.339  0.00  0.00    +0.000 OA
BRANCH  12  14
ATOM     13  C   UNL     1       6.491   4.058  13.984  0.00  0.00    +0.000 C 
ATOM     14  C   UNL     1       6.852   4.856  15.202  0.00  0.00    +0.000 C 
ATOM     15  O   UNL     1       7.791   4.584  15.938  0.00  0.00    +0.000 OA
ENDBRANCH  12  14
ENDBRANCH   1  12
TORSDOF 2
ENDMDL
MODEL 3
REMARK VINA RESULT:      -6.4      1.772      1.928
REMARK  Name = 
REMARK  4 active torsions:
REMARK  status: ('A' for Active; 'I' for Inactive)
REMARK    1  A    between atoms: C_1  and  C_2
REMARK    2  A    between atoms: C_2  and  O_4
REMARK    3  A    between atoms: O_4  and  C_5
REMARK    4  A    between atoms: C_10  and  C_11
REMARK                            x       y       z     vdW  Elec       q    Type
REMARK                         _______ _______ _______ _____ _____    ______ ____
ROOT
ATOM      1  C   UNL     1       5.560   6.211  16.849  0.00  0.00    +0.000 A 
ATOM      2  C   UNL     1       5.686   5.084  15.937  0.00  0.00    +0.000 A 
ATOM      3  C   UNL     1       4.820   4.062  16.044  0.00  0.00    +0.000 A 
ATOM      4  N   UNL     1       3.833   4.077  17.034  0.00  0.00    +0.000 N 
ATOM      5  N   UNL     1       2.892   3.122  17.263  0.00  0.00    +0.000 NA
ATOM      6  C   UNL     1       2.188   3.568  18.313  0.00  0.00    +0.000 A 
ATOM      7  C   UNL     1       1.054   2.770  18.842  0.00  0.00    +0.000 C 
ATOM      8  C   UNL     1       2.678   4.805  18.771  0.00  0.00    +0.000 A 
ATOM      9 BR   UNL     1       2.005   5.783  20.218  0.00  0.00    +0.000 Br
ATOM     10  C   UNL     1       3.722   5.129  17.946  0.00  0.00    +0.000 A 
ATOM     11  C   UNL     1       4.636   6.218  17.833  0.00  0.00    +0.000 A 
ENDROOT
BRANCH   1  12
ATOM     12  O   UNL     1       6.523   7.215  16.669  0.00  0.00    +0.000 OA
BRANCH  12  14
ATOM     13  C   UNL     1       7.935   8.735  17.765  0.00  0.00    +0.000 C 
ATOM     14  C   UNL     1       7.468   7.313  17.660  0.00  0.00    +0.000 C 
ATOM     15  O   UNL     1       7.892   6.407  18.364  0.00  0.00    +0.000 OA
ENDBRANCH  12  14
ENDBRANCH   1  12
TORSDOF 2
ENDMDL
MODEL 4
REMARK VINA RESULT:      -6.3      2.439      3.282
REMARK  Name = 
REMARK  4 active torsions:
REMARK  status: ('A' for Active; 'I' for Inactive)
REMARK    1  A    between atoms: C_1  and  C_2
REMARK    2  A    between atoms: C_2  and  O_4
REMARK    3  A    between atoms: O_4  and  C_5
REMARK    4  A    between atoms: C_10  and  C_11
REMARK                            x       y       z     vdW  Elec       q    Type
REMARK                         _______ _______ _______ _____ _____    ______ ____
ROOT
ATOM      1  C   UNL     1       6.299   5.145  16.783  0.00  0.00    +0.000 A 
ATOM      2  C   UNL     1       5.776   6.477  16.517  0.00  0.00    +0.000 A 
ATOM      3  C   UNL     1       4.707   6.905  17.211  0.00  0.00    +0.000 A 
ATOM      4  N   UNL     1       4.098   6.070  18.152  0.00  0.00    +0.000 N 
ATOM      5  N   UNL     1       3.018   6.362  18.926  0.00  0.00    +0.000 NA
ATOM      6  C   UNL     1       2.798   5.256  19.652  0.00  0.00    +0.000 A 
ATOM      7  C   UNL     1       1.682   5.219  20.630  0.00  0.00    +0.000 C 
ATOM      8  C   UNL     1       3.726   4.245  19.343  0.00  0.00    +0.000 A 
ATOM      9 BR   UNL     1       3.783   2.538  20.106  0.00  0.00    +0.000 Br
ATOM     10  C   UNL     1       4.559   4.773  18.392  0.00  0.00    +0.000 A 
ATOM     11  C   UNL     1       5.696   4.317  17.661  0.00  0.00    +0.000 A 
ENDROOT
BRANCH   1  12
ATOM     12  O   UNL     1       7.401   4.786  15.994  0.00  0.00    +0.000 OA
BRANCH  12  14
ATOM     13  C   UNL     1       6.149   3.903  14.216  0.00  0.00    +0.000 C 
ATOM     14  C   UNL     1       7.212   4.875  14.636  0.00  0.00    +0.000 C 
ATOM     15  O   UNL     1       7.800   5.614  13.859  0.00  0.00    +0.000 OA
ENDBRANCH  12  14
ENDBRANCH   1  12
TORSDOF 2
ENDMDL
MODEL 5
REMARK VINA RESULT:      -6.3      2.739      3.679
REMARK  Name = 
REMARK  4 active torsions:
REMARK  status: ('A' for Active; 'I' for Inactive)
REMARK    1  A    between atoms: C_1  and  C_2
REMARK    2  A    between atoms: C_2  and  O_4
REMARK    3  A    between atoms: O_4  and  C_5
REMARK    4  A    between atoms: C_10  and  C_11
REMARK                            x       y       z     vdW  Elec       q    Type
REMARK                         _______ _______ _______ _____ _____    ______ ____
ROOT
ATOM      1  C   UNL     1       5.899   5.258  15.999  0.00  0.00    +0.000 A 
ATOM      2  C   UNL     1       7.039   5.050  16.879  0.00  0.00    +0.000 A 
ATOM      3  C   UNL     1       6.836   4.487  18.083  0.00  0.00    +0.000 A 
ATOM      4  N   UNL     1       5.545   4.134  18.486  0.00  0.00    +0.000 N 
ATOM      5  N   UNL     1       5.186   3.559  19.665  0.00  0.00    +0.000 NA
ATOM      6  C   UNL     1       3.854   3.424  19.599  0.00  0.00    +0.000 A 
ATOM      7  C   UNL     1       3.111   2.815  20.730  0.00  0.00    +0.000 C 
ATOM      8  C   UNL     1       3.348   3.921  18.384  0.00  0.00    +0.000 A 
ATOM      9 BR   UNL     1       1.547   3.946  17.875  0.00  0.00    +0.000 Br
ATOM     10  C   UNL     1       4.432   4.364  17.674  0.00  0.00    +0.000 A 
ATOM     11  C   UNL     1       4.644   4.956  16.394  0.00  0.00    +0.000 A 
ENDROOT
BRANCH   1  12
ATOM     12  O   UNL     1       6.212   5.870  14.777  0.00  0.00    +0.000 OA
BRANCH  12  14
ATOM     13  C   UNL     1       6.396   3.923  13.479  0.00  0.00    +0.000 C 
ATOM     14  C   UNL     1       7.073   5.170  13.967  0.00  0.00    +0.000 C 
ATOM     15  O   UNL     1       8.219   5.480  13.671  0.00  0.00    +0.000 OA
ENDBRANCH  12  14
ENDBRANCH   1  12
TORSDOF 2
ENDMDL
MODEL 6
REMARK VINA RESULT:      -6.3      2.481      2.830
REMARK  Name = 
REMARK  4 active torsions:
REMARK  status: ('A' for Active; 'I' for Inactive)
REMARK    1  A    between atoms: C_1  and  C_2
REMARK    2  A    between atoms: C_2  and  O_4
REMARK    3  A    between atoms: O_4  and  C_5
REMARK    4  A    between atoms: C_10  and  C_11
REMARK                            x       y       z     vdW  Elec       q    Type
REMARK                         _______ _______ _______ _____ _____    ______ ____
ROOT
ATOM      1  C   UNL     1       4.609   6.251  17.017  0.00  0.00    +0.000 A 
ATOM      2  C   UNL     1       3.788   7.300  17.601  0.00  0.00    +0.000 A 
ATOM      3  C   UNL     1       2.844   6.963  18.497  0.00  0.00    +0.000 A 
ATOM      4  N   UNL     1       2.644   5.622  18.837  0.00  0.00    +0.000 N 
ATOM      5  N   UNL     1       1.735   5.130  19.722  0.00  0.00    +0.000 NA
ATOM      6  C   UNL     1       1.910   3.801  19.702  0.00  0.00    +0.000 A 
ATOM      7  C   UNL     1       1.078   2.929  20.567  0.00  0.00    +0.000 C 
ATOM      8  C   UNL     1       2.923   3.430  18.798  0.00  0.00    +0.000 A 
ATOM      9 BR   UNL     1       3.487   1.682  18.443  0.00  0.00    +0.000 Br
ATOM     10  C   UNL     1       3.393   4.596  18.256  0.00  0.00    +0.000 A 
ATOM     11  C   UNL     1       4.399   4.950  17.309  0.00  0.00    +0.000 A 
ENDROOT
BRANCH   1  12
ATOM     12  O   UNL     1       5.549   6.704  16.079  0.00  0.00    +0.000 OA
BRANCH  12  14
ATOM     13  C   UNL     1       7.394   7.089  17.478  0.00  0.00    +0.000 C 
ATOM     14  C   UNL     1       6.848   6.322  16.310  0.00  0.00    +0.000 C 
ATOM     15  O   UNL     1       7.493   5.493  15.682  0.00  0.00    +0.000 OA
ENDBRANCH  12  14
ENDBRANCH   1  12
TORSDOF 2
ENDMDL
MODEL 7
REMARK VINA RESULT:      -6.3      1.749      1.904
REMARK  Name = 
REMARK  4 active torsions:
REMARK  status: ('A' for Active; 'I' for Inactive)
REMARK    1  A    between atoms: C_1  and  C_2
REMARK    2  A    between atoms: C_2  and  O_4
REMARK    3  A    between atoms: O_4  and  C_5
REMARK    4  A    between atoms: C_10  and  C_11
REMARK                            x       y       z     vdW  Elec       q    Type
REMARK                         _______ _______ _______ _____ _____    ______ ____
ROOT
ATOM      1  C   UNL     1       5.010   6.077  17.425  0.00  0.00    +0.000 A 
ATOM      2  C   UNL     1       5.166   5.133  16.329  0.00  0.00    +0.000 A 
ATOM      3  C   UNL     1       4.334   4.078  16.258  0.00  0.00    +0.000 A 
ATOM      4  N   UNL     1       3.357   3.886  17.237  0.00  0.00    +0.000 N 
ATOM      5  N   UNL     1       2.449   2.874  17.298  0.00  0.00    +0.000 NA
ATOM      6  C   UNL     1       1.740   3.105  18.412  0.00  0.00    +0.000 A 
ATOM      7  C   UNL     1       0.638   2.189  18.795  0.00  0.00    +0.000 C 
ATOM      8  C   UNL     1       2.193   4.258  19.079  0.00  0.00    +0.000 A 
ATOM      9 BR   UNL     1       1.502   4.943  20.677  0.00  0.00    +0.000 Br
ATOM     10  C   UNL     1       3.218   4.757  18.321  0.00  0.00    +0.000 A 
ATOM     11  C   UNL     1       4.095   5.879  18.398  0.00  0.00    +0.000 A 
ENDROOT
BRANCH   1  12
ATOM     12  O   UNL     1       5.938   7.129  17.422  0.00  0.00    +0.000 OA
BRANCH  12  14
ATOM     13  C   UNL     1       7.761   6.341  18.673  0.00  0.00    +0.000 C 
ATOM     14  C   UNL     1       7.256   6.756  17.322  0.00  0.00    +0.000 C 
ATOM     15  O   UNL     1       7.945   6.753  16.311  0.00  0.00    +0.000 OA
ENDBRANCH  12  14
ENDBRANCH   1  12
TORSDOF 2
ENDMDL
MODEL 8
REMARK VINA RESULT:      -6.1      3.650      5.607
REMARK  Name = 
REMARK  4 active torsions:
REMARK  status: ('A' for Active; 'I' for Inactive)
REMARK    1  A    between atoms: C_1  and  C_2
REMARK    2  A    between atoms: C_2  and  O_4
REMARK    3  A    between atoms: O_4  and  C_5
REMARK    4  A    between atoms: C_10  and  C_11
REMARK                            x       y       z     vdW  Elec       q    Type
REMARK                         _______ _______ _______ _____ _____    ______ ____
ROOT
ATOM      1  C   UNL     1       4.745   4.251  17.613  0.00  0.00    +0.000 A 
ATOM      2  C   UNL     1       5.831   5.032  18.185  0.00  0.00    +0.000 A 
ATOM      3  C   UNL     1       6.796   5.495  17.371  0.00  0.00    +0.000 A 
ATOM      4  N   UNL     1       6.763   5.204  16.004  0.00  0.00    +0.000 N 
ATOM      5  N   UNL     1       7.661   5.601  15.063  0.00  0.00    +0.000 NA
ATOM      6  C   UNL     1       7.220   5.072  13.912  0.00  0.00    +0.000 A 
ATOM      7  C   UNL     1       7.964   5.310  12.651  0.00  0.00    +0.000 C 
ATOM      8  C   UNL     1       6.044   4.325  14.108  0.00  0.00    +0.000 A 
ATOM      9 BR   UNL     1       5.095   3.406  12.783  0.00  0.00    +0.000 Br
ATOM     10  C   UNL     1       5.752   4.420  15.443  0.00  0.00    +0.000 A 
ATOM     11  C   UNL     1       4.724   3.931  16.302  0.00  0.00    +0.000 A 
ENDROOT
BRANCH   1  12
ATOM     12  O   UNL     1       3.801   3.798  18.547  0.00  0.00    +0.000 OA
BRANCH  12  14
ATOM     13  C   UNL     1       3.327   1.500  18.499  0.00  0.00    +0.000 C 
ATOM     14  C   UNL     1       4.098   2.604  19.159  0.00  0.00    +0.000 C 
ATOM     15  O   UNL     1       4.863   2.430  20.098  0.00  0.00    +0.000 OA
ENDBRANCH  12  14
ENDBRANCH   1  12
TORSDOF 2
ENDMDL
MODEL 9
REMARK VINA RESULT:      -6.1      2.177      2.330
REMARK  Name = 
REMARK  4 active torsions:
REMARK  status: ('A' for Active; 'I' for Inactive)
REMARK    1  A    between atoms: C_1  and  C_2
REMARK    2  A    between atoms: C_2  and  O_4
REMARK    3  A    between atoms: O_4  and  C_5
REMARK    4  A    between atoms: C_10  and  C_11
REMARK                            x       y       z     vdW  Elec       q    Type
REMARK                         _______ _______ _______ _____ _____    ______ ____
ROOT
ATOM      1  C   UNL     1       5.395   5.936  17.179  0.00  0.00    +0.000 A 
ATOM      2  C   UNL     1       4.443   7.019  17.368  0.00  0.00    +0.000 A 
ATOM      3  C   UNL     1       3.230   6.737  17.876  0.00  0.00    +0.000 A 
ATOM      4  N   UNL     1       2.888   5.418  18.189  0.00  0.00    +0.000 N 
ATOM      5  N   UNL     1       1.709   4.981  18.707  0.00  0.00    +0.000 NA
ATOM      6  C   UNL     1       1.846   3.652  18.821  0.00  0.00    +0.000 A 
ATOM      7  C   UNL     1       0.736   2.834  19.368  0.00  0.00    +0.000 C 
ATOM      8  C   UNL     1       3.109   3.226  18.368  0.00  0.00    +0.000 A 
ATOM      9 BR   UNL     1       3.722   1.459  18.333  0.00  0.00    +0.000 Br
ATOM     10  C   UNL     1       3.772   4.358  17.975  0.00  0.00    +0.000 A 
ATOM     11  C   UNL     1       5.061   4.654  17.441  0.00  0.00    +0.000 A 
ENDROOT
BRANCH   1  12
ATOM     12  O   UNL     1       6.622   6.331  16.625  0.00  0.00    +0.000 OA
BRANCH  12  14
ATOM     13  C   UNL     1       7.851   6.371  18.624  0.00  0.00    +0.000 C 
ATOM     14  C   UNL     1       7.397   7.140  17.419  0.00  0.00    +0.000 C 
ATOM     15  O   UNL     1       7.689   8.310  17.212  0.00  0.00    +0.000 OA
ENDBRANCH  12  14
ENDBRANCH   1  12
TORSDOF 2
ENDMDL
