MODEL 1
REMARK VINA RESULT:      -9.3      0.000      0.000
REMARK  Name = 
REMARK  5 active torsions:
REMARK  status: ('A' for Active; 'I' for Inactive)
REMARK    1  A    between atoms: C_2  and  C_26
REMARK    2  A    between atoms: N_3  and  C_4
REMARK    3  A    between atoms: C_9  and  S_10
REMARK    4  A    between atoms: S_10  and  C_11
REMARK    5  A    between atoms: C_11  and  C_12
REMARK                            x       y       z     vdW  Elec       q    Type
REMARK                         _______ _______ _______ _____ _____    ______ ____
ROOT
ATOM      1  C   UNL     1       4.004   5.087  17.492  0.00  0.00    +0.000 A 
ATOM      2  C   UNL     1       3.815   4.263  18.602  0.00  0.00    +0.000 A 
ATOM      3  C   UNL     1       3.113   4.697  19.727  0.00  0.00    +0.000 A 
ATOM      4  C   UNL     1       2.585   5.995  19.758  0.00  0.00    +0.000 A 
ATOM      5  N   UNL     1       1.833   6.520  20.794  0.00  0.00    +0.000 NA
ATOM      6  C   UNL     1       1.505   7.755  20.512  0.00  0.00    +0.000 A 
ATOM      7  S   UNL     1       2.041   8.351  18.995  0.00  0.00    +0.000 S 
ATOM      8  C   UNL     1       2.816   6.838  18.670  0.00  0.00    +0.000 A 
ATOM      9  C   UNL     1       3.551   6.417  17.536  0.00  0.00    +0.000 A 
ENDROOT
BRANCH   1  12
ATOM     10  O   UNL     1       5.698   6.573  15.638  0.00  0.00    +0.000 OA
ATOM     11  C   UNL     1       5.404   5.397  15.468  0.00  0.00    +0.000 C 
ATOM     12  N   UNL     1       4.619   4.610  16.305  0.00  0.00    +0.000 N 
ATOM     13  H   UNL     1       4.639   3.605  16.167  0.00  0.00    +0.000 HD
BRANCH  11  14
ATOM     14  C   UNL     1       6.009   4.733  14.290  0.00  0.00    +0.000 A 
ATOM     15  C   UNL     1       7.256   5.219  13.850  0.00  0.00    +0.000 A 
ATOM     16  C   UNL     1       7.837   4.726  12.683  0.00  0.00    +0.000 A 
ATOM     17  C   UNL     1       7.168   3.756  11.943  0.00  0.00    +0.000 A 
ATOM     18  C   UNL     1       5.932   3.284  12.383  0.00  0.00    +0.000 A 
ATOM     19  F   UNL     1       5.284   2.370  11.648  0.00  0.00    +0.000 F 
ATOM     20  C   UNL     1       5.344   3.753  13.555  0.00  0.00    +0.000 A 
ENDBRANCH  11  14
ENDBRANCH   1  12
BRANCH   6  21
ATOM     21  S   UNL     1       0.533   8.706  21.623  0.00  0.00    +0.000 S 
BRANCH  21  22
ATOM     22  C   UNL     1       0.711  10.375  20.897  0.00  0.00    +0.000 C 
BRANCH  22  23
ATOM     23  C   UNL     1      -0.376  11.341  21.353  0.00  0.00    +0.000 C 
ATOM     24  O   UNL     1      -0.308  11.923  22.443  0.00  0.00    +0.000 OA
ATOM     25  N   UNL     1      -1.442  11.609  20.508  0.00  0.00    +0.000 N 
ATOM     26  C   UNL     1      -2.400  12.658  20.902  0.00  0.00    +0.000 C 
ATOM     27  C   UNL     1      -3.527  12.676  19.873  0.00  0.00    +0.000 C 
ATOM     28  C   UNL     1      -2.980  11.776  18.812  0.00  0.00    +0.000 A 
ATOM     29  C   UNL     1      -3.570  11.510  17.583  0.00  0.00    +0.000 A 
ATOM     30  C   UNL     1      -2.973  10.562  16.757  0.00  0.00    +0.000 A 
ATOM     31  C   UNL     1      -1.815   9.894  17.177  0.00  0.00    +0.000 A 
ATOM     32  C   UNL     1      -1.228  10.177  18.418  0.00  0.00    +0.000 A 
ATOM     33  C   UNL     1      -1.808  11.133  19.234  0.00  0.00    +0.000 A 
ENDBRANCH  22  23
ENDBRANCH  21  22
ENDBRANCH   6  21
TORSDOF 5
ENDMDL
MODEL 2
REMARK VINA RESULT:      -9.0      1.060      1.148
REMARK  Name = 
REMARK  5 active torsions:
REMARK  status: ('A' for Active; 'I' for Inactive)
REMARK    1  A    between atoms: C_2  and  C_26
REMARK    2  A    between atoms: N_3  and  C_4
REMARK    3  A    between atoms: C_9  and  S_10
REMARK    4  A    between atoms: S_10  and  C_11
REMARK    5  A    between atoms: C_11  and  C_12
REMARK                            x       y       z     vdW  Elec       q    Type
REMARK                         _______ _______ _______ _____ _____    ______ ____
ROOT
ATOM      1  C   UNL     1       4.204   6.345  17.325  0.00  0.00    +0.000 A 
ATOM      2  C   UNL     1       4.167   5.563  18.480  0.00  0.00    +0.000 A 
ATOM      3  C   UNL     1       3.366   5.903  19.571  0.00  0.00    +0.000 A 
ATOM      4  C   UNL     1       2.580   7.062  19.521  0.00  0.00    +0.000 A 
ATOM      5  N   UNL     1       1.714   7.475  20.518  0.00  0.00    +0.000 NA
ATOM      6  C   UNL     1       1.142   8.597  20.161  0.00  0.00    +0.000 A 
ATOM      7  S   UNL     1       1.574   9.206  18.616  0.00  0.00    +0.000 S 
ATOM      8  C   UNL     1       2.653   7.872  18.387  0.00  0.00    +0.000 A 
ATOM      9  C   UNL     1       3.483   7.551  17.287  0.00  0.00    +0.000 A 
ENDROOT
BRANCH   1  12
ATOM     10  O   UNL     1       4.801   3.624  16.456  0.00  0.00    +0.000 OA
ATOM     11  C   UNL     1       5.180   4.613  15.842  0.00  0.00    +0.000 C 
ATOM     12  N   UNL     1       4.929   5.941  16.173  0.00  0.00    +0.000 N 
ATOM     13  H   UNL     1       5.106   6.647  15.467  0.00  0.00    +0.000 HD
BRANCH  11  14
ATOM     14  C   UNL     1       5.916   4.360  14.581  0.00  0.00    +0.000 A 
ATOM     15  C   UNL     1       7.053   5.152  14.333  0.00  0.00    +0.000 A 
ATOM     16  C   UNL     1       7.733   5.057  13.120  0.00  0.00    +0.000 A 
ATOM     17  C   UNL     1       7.269   4.179  12.144  0.00  0.00    +0.000 A 
ATOM     18  C   UNL     1       6.139   3.403  12.396  0.00  0.00    +0.000 A 
ATOM     19  F   UNL     1       5.685   2.582  11.439  0.00  0.00    +0.000 F 
ATOM     20  C   UNL     1       5.457   3.474  13.608  0.00  0.00    +0.000 A 
ENDBRANCH  11  14
ENDBRANCH   1  12
BRANCH   6  21
ATOM     21  S   UNL     1      -0.030   9.384  21.205  0.00  0.00    +0.000 S 
BRANCH  21  22
ATOM     22  C   UNL     1      -0.087  11.055  20.463  0.00  0.00    +0.000 C 
BRANCH  22  23
ATOM     23  C   UNL     1      -1.365  11.812  20.801  0.00  0.00    +0.000 C 
ATOM     24  O   UNL     1      -1.481  12.449  21.856  0.00  0.00    +0.000 OA
ATOM     25  N   UNL     1      -2.406  11.828  19.884  0.00  0.00    +0.000 N 
ATOM     26  C   UNL     1      -3.569  12.688  20.163  0.00  0.00    +0.000 C 
ATOM     27  C   UNL     1      -4.610  12.437  19.075  0.00  0.00    +0.000 C 
ATOM     28  C   UNL     1      -3.834  11.611  18.101  0.00  0.00    +0.000 A 
ATOM     29  C   UNL     1      -4.281  11.176  16.860  0.00  0.00    +0.000 A 
ATOM     30  C   UNL     1      -3.462  10.324  16.126  0.00  0.00    +0.000 A 
ATOM     31  C   UNL     1      -2.228   9.914  16.647  0.00  0.00    +0.000 A 
ATOM     32  C   UNL     1      -1.787  10.365  17.899  0.00  0.00    +0.000 A 
ATOM     33  C   UNL     1      -2.590  11.229  18.623  0.00  0.00    +0.000 A 
ENDBRANCH  22  23
ENDBRANCH  21  22
ENDBRANCH   6  21
TORSDOF 5
ENDMDL
MODEL 3
REMARK VINA RESULT:      -9.0      2.218      3.524
REMARK  Name = 
REMARK  5 active torsions:
REMARK  status: ('A' for Active; 'I' for Inactive)
REMARK    1  A    between atoms: C_2  and  C_26
REMARK    2  A    between atoms: N_3  and  C_4
REMARK    3  A    between atoms: C_9  and  S_10
REMARK    4  A    between atoms: S_10  and  C_11
REMARK    5  A    between atoms: C_11  and  C_12
REMARK                            x       y       z     vdW  Elec       q    Type
REMARK                         _______ _______ _______ _____ _____    ______ ____
ROOT
ATOM      1  C   UNL     1       2.458   8.010  18.500  0.00  0.00    +0.000 A 
ATOM      2  C   UNL     1       1.685   8.854  17.702  0.00  0.00    +0.000 A 
ATOM      3  C   UNL     1       0.722   9.702  18.249  0.00  0.00    +0.000 A 
ATOM      4  C   UNL     1       0.510   9.710  19.635  0.00  0.00    +0.000 A 
ATOM      5  N   UNL     1      -0.381  10.537  20.295  0.00  0.00    +0.000 NA
ATOM      6  C   UNL     1      -0.340  10.285  21.579  0.00  0.00    +0.000 A 
ATOM      7  S   UNL     1       0.774   9.079  22.076  0.00  0.00    +0.000 S 
ATOM      8  C   UNL     1       1.246   8.830  20.429  0.00  0.00    +0.000 A 
ATOM      9  C   UNL     1       2.206   7.946  19.881  0.00  0.00    +0.000 A 
ENDROOT
BRANCH   1  12
ATOM     10  O   UNL     1       2.542   5.114  18.151  0.00  0.00    +0.000 OA
ATOM     11  C   UNL     1       3.474   5.845  17.841  0.00  0.00    +0.000 C 
ATOM     12  N   UNL     1       3.514   7.231  17.957  0.00  0.00    +0.000 N 
ATOM     13  H   UNL     1       4.246   7.727  17.462  0.00  0.00    +0.000 HD
BRANCH  11  14
ATOM     14  C   UNL     1       4.643   5.187  17.211  0.00  0.00    +0.000 A 
ATOM     15  C   UNL     1       5.861   5.234  17.916  0.00  0.00    +0.000 A 
ATOM     16  C   UNL     1       7.031   4.740  17.343  0.00  0.00    +0.000 A 
ATOM     17  C   UNL     1       6.991   4.212  16.056  0.00  0.00    +0.000 A 
ATOM     18  C   UNL     1       5.782   4.174  15.363  0.00  0.00    +0.000 A 
ATOM     19  F   UNL     1       5.760   3.689  14.114  0.00  0.00    +0.000 F 
ATOM     20  C   UNL     1       4.600   4.648  15.927  0.00  0.00    +0.000 A 
ENDBRANCH  11  14
ENDBRANCH   1  12
BRANCH   6  21
ATOM     21  S   UNL     1      -1.347  11.178  22.706  0.00  0.00    +0.000 S 
BRANCH  21  22
ATOM     22  C   UNL     1      -2.031  12.472  21.609  0.00  0.00    +0.000 C 
BRANCH  22  23
ATOM     23  C   UNL     1      -3.516  12.723  21.839  0.00  0.00    +0.000 C 
ATOM     24  O   UNL     1      -3.947  13.093  22.939  0.00  0.00    +0.000 OA
ATOM     25  N   UNL     1      -4.400  12.579  20.780  0.00  0.00    +0.000 N 
ATOM     26  C   UNL     1      -5.805  12.973  20.985  0.00  0.00    +0.000 C 
ATOM     27  C   UNL     1      -6.583  12.611  19.723  0.00  0.00    +0.000 C 
ATOM     28  C   UNL     1      -5.479  12.253  18.781  0.00  0.00    +0.000 A 
ATOM     29  C   UNL     1      -5.623  11.930  17.438  0.00  0.00    +0.000 A 
ATOM     30  C   UNL     1      -4.495  11.519  16.734  0.00  0.00    +0.000 A 
ATOM     31  C   UNL     1      -3.258  11.425  17.384  0.00  0.00    +0.000 A 
ATOM     32  C   UNL     1      -3.126  11.760  18.739  0.00  0.00    +0.000 A 
ATOM     33  C   UNL     1      -4.241  12.188  19.437  0.00  0.00    +0.000 A 
ENDBRANCH  22  23
ENDBRANCH  21  22
ENDBRANCH   6  21
TORSDOF 5
ENDMDL
MODEL 4
REMARK VINA RESULT:      -8.7      4.950     12.203
REMARK  Name = 
REMARK  5 active torsions:
REMARK  status: ('A' for Active; 'I' for Inactive)
REMARK    1  A    between atoms: C_2  and  C_26
REMARK    2  A    between atoms: N_3  and  C_4
REMARK    3  A    between atoms: C_9  and  S_10
REMARK    4  A    between atoms: S_10  and  C_11
REMARK    5  A    between atoms: C_11  and  C_12
REMARK                            x       y       z     vdW  Elec       q    Type
REMARK                         _______ _______ _______ _____ _____    ______ ____
ROOT
ATOM      1  C   UNL     1      -1.631  11.993  22.405  0.00  0.00    +0.000 A 
ATOM      2  C   UNL     1      -1.179  10.932  23.191  0.00  0.00    +0.000 A 
ATOM      3  C   UNL     1      -0.397   9.906  22.659  0.00  0.00    +0.000 A 
ATOM      4  C   UNL     1      -0.057   9.925  21.300  0.00  0.00    +0.000 A 
ATOM      5  N   UNL     1       0.747   8.991  20.672  0.00  0.00    +0.000 NA
ATOM      6  C   UNL     1       0.858   9.294  19.403  0.00  0.00    +0.000 A 
ATOM      7  S   UNL     1       0.042  10.715  18.893  0.00  0.00    +0.000 S 
ATOM      8  C   UNL     1      -0.551  10.957  20.501  0.00  0.00    +0.000 A 
ATOM      9  C   UNL     1      -1.367  11.988  21.025  0.00  0.00    +0.000 A 
ENDROOT
BRANCH   1  12
ATOM     10  O   UNL     1      -4.518  12.393  22.542  0.00  0.00    +0.000 OA
ATOM     11  C   UNL     1      -3.716  13.209  22.977  0.00  0.00    +0.000 C 
ATOM     12  N   UNL     1      -2.329  13.094  22.968  0.00  0.00    +0.000 N 
ATOM     13  H   UNL     1      -1.797  13.727  23.554  0.00  0.00    +0.000 HD
BRANCH  11  14
ATOM     14  C   UNL     1      -4.288  14.402  23.643  0.00  0.00    +0.000 A 
ATOM     15  C   UNL     1      -5.639  14.698  23.378  0.00  0.00    +0.000 A 
ATOM     16  C   UNL     1      -6.220  15.864  23.874  0.00  0.00    +0.000 A 
ATOM     17  C   UNL     1      -5.449  16.745  24.625  0.00  0.00    +0.000 A 
ATOM     18  C   UNL     1      -4.111  16.447  24.879  0.00  0.00    +0.000 A 
ATOM     19  F   UNL     1      -3.370  17.317  25.579  0.00  0.00    +0.000 F 
ATOM     20  C   UNL     1      -3.518  15.279  24.405  0.00  0.00    +0.000 A 
ENDBRANCH  11  14
ENDBRANCH   1  12
BRANCH   6  21
ATOM     21  S   UNL     1       1.829   8.310  18.322  0.00  0.00    +0.000 S 
BRANCH  21  22
ATOM     22  C   UNL     1       2.755   7.287  19.522  0.00  0.00    +0.000 C 
BRANCH  22  23
ATOM     23  C   UNL     1       2.383   5.811  19.457  0.00  0.00    +0.000 C 
ATOM     24  O   UNL     1       1.516   5.329  20.197  0.00  0.00    +0.000 OA
ATOM     25  N   UNL     1       2.997   4.997  18.516  0.00  0.00    +0.000 N 
ATOM     26  C   UNL     1       2.515   3.613  18.369  0.00  0.00    +0.000 C 
ATOM     27  C   UNL     1       3.421   2.905  17.365  0.00  0.00    +0.000 C 
ATOM     28  C   UNL     1       4.220   4.046  16.823  0.00  0.00    +0.000 A 
ATOM     29  C   UNL     1       5.148   3.977  15.792  0.00  0.00    +0.000 A 
ATOM     30  C   UNL     1       5.879   5.121  15.486  0.00  0.00    +0.000 A 
ATOM     31  C   UNL     1       5.681   6.298  16.218  0.00  0.00    +0.000 A 
ATOM     32  C   UNL     1       4.737   6.355  17.253  0.00  0.00    +0.000 A 
ATOM     33  C   UNL     1       3.994   5.225  17.547  0.00  0.00    +0.000 A 
ENDBRANCH  22  23
ENDBRANCH  21  22
ENDBRANCH   6  21
TORSDOF 5
ENDMDL
MODEL 5
REMARK VINA RESULT:      -8.7      4.754     11.492
REMARK  Name = 
REMARK  5 active torsions:
REMARK  status: ('A' for Active; 'I' for Inactive)
REMARK    1  A    between atoms: C_2  and  C_26
REMARK    2  A    between atoms: N_3  and  C_4
REMARK    3  A    between atoms: C_9  and  S_10
REMARK    4  A    between atoms: S_10  and  C_11
REMARK    5  A    between atoms: C_11  and  C_12
REMARK                            x       y       z     vdW  Elec       q    Type
REMARK                         _______ _______ _______ _____ _____    ______ ____
ROOT
ATOM      1  C   UNL     1      -0.673  11.012  21.969  0.00  0.00    +0.000 A 
ATOM      2  C   UNL     1      -0.024   9.973  22.635  0.00  0.00    +0.000 A 
ATOM      3  C   UNL     1       0.797   9.069  21.960  0.00  0.00    +0.000 A 
ATOM      4  C   UNL     1       0.975   9.193  20.575  0.00  0.00    +0.000 A 
ATOM      5  N   UNL     1       1.798   8.389  19.807  0.00  0.00    +0.000 NA
ATOM      6  C   UNL     1       1.730   8.764  18.555  0.00  0.00    +0.000 A 
ATOM      7  S   UNL     1       0.713  10.107  18.225  0.00  0.00    +0.000 S 
ATOM      8  C   UNL     1       0.286  10.201  19.900  0.00  0.00    +0.000 A 
ATOM      9  C   UNL     1      -0.570  11.106  20.571  0.00  0.00    +0.000 A 
ENDROOT
BRANCH   1  12
ATOM     10  O   UNL     1       0.160  13.724  22.654  0.00  0.00    +0.000 OA
ATOM     11  C   UNL     1      -0.932  13.268  22.968  0.00  0.00    +0.000 C 
ATOM     12  N   UNL     1      -1.416  11.998  22.671  0.00  0.00    +0.000 N 
ATOM     13  H   UNL     1      -2.409  11.829  22.792  0.00  0.00    +0.000 HD
BRANCH  11  14
ATOM     14  C   UNL     1      -1.852  14.194  23.669  0.00  0.00    +0.000 A 
ATOM     15  C   UNL     1      -1.289  15.043  24.641  0.00  0.00    +0.000 A 
ATOM     16  C   UNL     1      -2.101  15.861  25.425  0.00  0.00    +0.000 A 
ATOM     17  C   UNL     1      -3.482  15.821  25.250  0.00  0.00    +0.000 A 
ATOM     18  C   UNL     1      -4.031  14.974  24.289  0.00  0.00    +0.000 A 
ATOM     19  F   UNL     1      -5.363  14.923  24.148  0.00  0.00    +0.000 F 
ATOM     20  C   UNL     1      -3.233  14.162  23.486  0.00  0.00    +0.000 A 
ENDBRANCH  11  14
ENDBRANCH   1  12
BRANCH   6  21
ATOM     21  S   UNL     1       2.671   7.951  17.316  0.00  0.00    +0.000 S 
BRANCH  21  22
ATOM     22  C   UNL     1       3.813   6.959  18.344  0.00  0.00    +0.000 C 
BRANCH  22  23
ATOM     23  C   UNL     1       4.295   5.694  17.646  0.00  0.00    +0.000 C 
ATOM     24  O   UNL     1       5.180   5.729  16.782  0.00  0.00    +0.000 OA
ATOM     25  N   UNL     1       3.764   4.468  18.020  0.00  0.00    +0.000 N 
ATOM     26  C   UNL     1       4.352   3.247  17.442  0.00  0.00    +0.000 C 
ATOM     27  C   UNL     1       3.523   2.057  17.917  0.00  0.00    +0.000 C 
ATOM     28  C   UNL     1       2.653   2.691  18.954  0.00  0.00    +0.000 A 
ATOM     29  C   UNL     1       1.754   2.030  19.782  0.00  0.00    +0.000 A 
ATOM     30  C   UNL     1       0.946   2.793  20.619  0.00  0.00    +0.000 A 
ATOM     31  C   UNL     1       1.040   4.191  20.603  0.00  0.00    +0.000 A 
ATOM     32  C   UNL     1       1.955   4.844  19.766  0.00  0.00    +0.000 A 
ATOM     33  C   UNL     1       2.775   4.088  18.946  0.00  0.00    +0.000 A 
ENDBRANCH  22  23
ENDBRANCH  21  22
ENDBRANCH   6  21
TORSDOF 5
ENDMDL
MODEL 6
REMARK VINA RESULT:      -8.7      3.057      4.987
REMARK  Name = 
REMARK  5 active torsions:
REMARK  status: ('A' for Active; 'I' for Inactive)
REMARK    1  A    between atoms: C_2  and  C_26
REMARK    2  A    between atoms: N_3  and  C_4
REMARK    3  A    between atoms: C_9  and  S_10
REMARK    4  A    between atoms: S_10  and  C_11
REMARK    5  A    between atoms: C_11  and  C_12
REMARK                            x       y       z     vdW  Elec       q    Type
REMARK                         _______ _______ _______ _____ _____    ______ ____
ROOT
ATOM      1  C   UNL     1       1.259   8.803  19.736  0.00  0.00    +0.000 A 
ATOM      2  C   UNL     1       0.916   9.844  18.873  0.00  0.00    +0.000 A 
ATOM      3  C   UNL     1       0.138  10.922  19.296  0.00  0.00    +0.000 A 
ATOM      4  C   UNL     1      -0.323  10.969  20.619  0.00  0.00    +0.000 A 
ATOM      5  N   UNL     1      -1.059  12.005  21.165  0.00  0.00    +0.000 NA
ATOM      6  C   UNL     1      -1.335  11.732  22.415  0.00  0.00    +0.000 A 
ATOM      7  S   UNL     1      -0.712  10.251  23.019  0.00  0.00    +0.000 S 
ATOM      8  C   UNL     1      -0.023   9.904  21.470  0.00  0.00    +0.000 A 
ATOM      9  C   UNL     1       0.741   8.793  21.042  0.00  0.00    +0.000 A 
ENDROOT
BRANCH   1  12
ATOM     10  O   UNL     1       2.616   8.499  17.170  0.00  0.00    +0.000 OA
ATOM     11  C   UNL     1       2.737   7.692  18.082  0.00  0.00    +0.000 C 
ATOM     12  N   UNL     1       2.143   7.765  19.338  0.00  0.00    +0.000 N 
ATOM     13  H   UNL     1       2.500   7.158  20.068  0.00  0.00    +0.000 HD
BRANCH  11  14
ATOM     14  C   UNL     1       3.669   6.566  17.842  0.00  0.00    +0.000 A 
ATOM     15  C   UNL     1       4.682   6.765  16.884  0.00  0.00    +0.000 A 
ATOM     16  C   UNL     1       5.527   5.719  16.517  0.00  0.00    +0.000 A 
ATOM     17  C   UNL     1       5.353   4.465  17.097  0.00  0.00    +0.000 A 
ATOM     18  C   UNL     1       4.345   4.276  18.041  0.00  0.00    +0.000 A 
ATOM     19  F   UNL     1       4.169   3.058  18.571  0.00  0.00    +0.000 F 
ATOM     20  C   UNL     1       3.502   5.313  18.431  0.00  0.00    +0.000 A 
ENDBRANCH  11  14
ENDBRANCH   1  12
BRANCH   6  21
ATOM     21  S   UNL     1      -2.251  12.857  23.403  0.00  0.00    +0.000 S 
BRANCH  21  22
ATOM     22  C   UNL     1      -3.447  13.500  22.178  0.00  0.00    +0.000 C 
BRANCH  22  23
ATOM     23  C   UNL     1      -4.882  13.080  22.469  0.00  0.00    +0.000 C 
ATOM     24  O   UNL     1      -5.406  13.292  23.570  0.00  0.00    +0.000 OA
ATOM     25  N   UNL     1      -5.633  12.490  21.464  0.00  0.00    +0.000 N 
ATOM     26  C   UNL     1      -7.061  12.231  21.720  0.00  0.00    +0.000 C 
ATOM     27  C   UNL     1      -7.625  11.480  20.517  0.00  0.00    +0.000 C 
ATOM     28  C   UNL     1      -6.500  11.589  19.539  0.00  0.00    +0.000 A 
ATOM     29  C   UNL     1      -6.516  11.149  18.222  0.00  0.00    +0.000 A 
ATOM     30  C   UNL     1      -5.340  11.236  17.484  0.00  0.00    +0.000 A 
ATOM     31  C   UNL     1      -4.176  11.744  18.074  0.00  0.00    +0.000 A 
ATOM     32  C   UNL     1      -4.175  12.190  19.403  0.00  0.00    +0.000 A 
ATOM     33  C   UNL     1      -5.348  12.123  20.135  0.00  0.00    +0.000 A 
ENDBRANCH  22  23
ENDBRANCH  21  22
ENDBRANCH   6  21
TORSDOF 5
ENDMDL
MODEL 7
REMARK VINA RESULT:      -8.6      4.940     11.934
REMARK  Name = 
REMARK  5 active torsions:
REMARK  status: ('A' for Active; 'I' for Inactive)
REMARK    1  A    between atoms: C_2  and  C_26
REMARK    2  A    between atoms: N_3  and  C_4
REMARK    3  A    between atoms: C_9  and  S_10
REMARK    4  A    between atoms: S_10  and  C_11
REMARK    5  A    between atoms: C_11  and  C_12
REMARK                            x       y       z     vdW  Elec       q    Type
REMARK                         _______ _______ _______ _____ _____    ______ ____
ROOT
ATOM      1  C   UNL     1      -0.832  11.819  22.164  0.00  0.00    +0.000 A 
ATOM      2  C   UNL     1      -0.509  10.618  22.797  0.00  0.00    +0.000 A 
ATOM      3  C   UNL     1       0.155   9.591  22.125  0.00  0.00    +0.000 A 
ATOM      4  C   UNL     1       0.505   9.755  20.778  0.00  0.00    +0.000 A 
ATOM      5  N   UNL     1       1.203   8.829  20.022  0.00  0.00    +0.000 NA
ATOM      6  C   UNL     1       1.356   9.286  18.805  0.00  0.00    +0.000 A 
ATOM      7  S   UNL     1       0.709  10.846  18.498  0.00  0.00    +0.000 S 
ATOM      8  C   UNL     1       0.137  10.934  20.129  0.00  0.00    +0.000 A 
ATOM      9  C   UNL     1      -0.561  11.971  20.794  0.00  0.00    +0.000 A 
ENDROOT
BRANCH   1  12
ATOM     10  O   UNL     1      -3.648  12.251  22.797  0.00  0.00    +0.000 OA
ATOM     11  C   UNL     1      -2.769  13.039  23.121  0.00  0.00    +0.000 C 
ATOM     12  N   UNL     1      -1.405  12.906  22.876  0.00  0.00    +0.000 N 
ATOM     13  H   UNL     1      -0.771  13.509  23.388  0.00  0.00    +0.000 HD
BRANCH  11  14
ATOM     14  C   UNL     1      -3.199  14.212  23.918  0.00  0.00    +0.000 A 
ATOM     15  C   UNL     1      -4.485  14.724  23.661  0.00  0.00    +0.000 A 
ATOM     16  C   UNL     1      -4.921  15.892  24.285  0.00  0.00    +0.000 A 
ATOM     17  C   UNL     1      -4.066  16.561  25.156  0.00  0.00    +0.000 A 
ATOM     18  C   UNL     1      -2.792  16.049  25.401  0.00  0.00    +0.000 A 
ATOM     19  F   UNL     1      -1.968  16.716  26.220  0.00  0.00    +0.000 F 
ATOM     20  C   UNL     1      -2.346  14.875  24.799  0.00  0.00    +0.000 A 
ENDBRANCH  11  14
ENDBRANCH   1  12
BRANCH   6  21
ATOM     21  S   UNL     1       2.217   8.353  17.593  0.00  0.00    +0.000 S 
BRANCH  21  22
ATOM     22  C   UNL     1       3.272   7.299  18.652  0.00  0.00    +0.000 C 
BRANCH  22  23
ATOM     23  C   UNL     1       3.983   6.198  17.875  0.00  0.00    +0.000 C 
ATOM     24  O   UNL     1       4.872   6.458  17.054  0.00  0.00    +0.000 OA
ATOM     25  N   UNL     1       3.661   4.873  18.127  0.00  0.00    +0.000 N 
ATOM     26  C   UNL     1       4.465   3.823  17.478  0.00  0.00    +0.000 C 
ATOM     27  C   UNL     1       3.841   2.474  17.822  0.00  0.00    +0.000 C 
ATOM     28  C   UNL     1       2.847   2.860  18.869  0.00  0.00    +0.000 A 
ATOM     29  C   UNL     1       2.054   1.988  19.604  0.00  0.00    +0.000 A 
ATOM     30  C   UNL     1       1.104   2.529  20.465  0.00  0.00    +0.000 A 
ATOM     31  C   UNL     1       0.956   3.918  20.565  0.00  0.00    +0.000 A 
ATOM     32  C   UNL     1       1.768   4.786  19.822  0.00  0.00    +0.000 A 
ATOM     33  C   UNL     1       2.727   4.252  18.978  0.00  0.00    +0.000 A 
ENDBRANCH  22  23
ENDBRANCH  21  22
ENDBRANCH   6  21
TORSDOF 5
ENDMDL
MODEL 8
REMARK VINA RESULT:      -8.5      3.810      4.981
REMARK  Name = 
REMARK  5 active torsions:
REMARK  status: ('A' for Active; 'I' for Inactive)
REMARK    1  A    between atoms: C_2  and  C_26
REMARK    2  A    between atoms: N_3  and  C_4
REMARK    3  A    between atoms: C_9  and  S_10
REMARK    4  A    between atoms: S_10  and  C_11
REMARK    5  A    between atoms: C_11  and  C_12
REMARK                            x       y       z     vdW  Elec       q    Type
REMARK                         _______ _______ _______ _____ _____    ______ ____
ROOT
ATOM      1  C   UNL     1       2.174   7.568  19.106  0.00  0.00    +0.000 A 
ATOM      2  C   UNL     1       2.282   8.346  17.953  0.00  0.00    +0.000 A 
ATOM      3  C   UNL     1       1.828   9.665  17.914  0.00  0.00    +0.000 A 
ATOM      4  C   UNL     1       1.238  10.231  19.052  0.00  0.00    +0.000 A 
ATOM      5  N   UNL     1       0.794  11.538  19.148  0.00  0.00    +0.000 NA
ATOM      6  C   UNL     1       0.290  11.741  20.339  0.00  0.00    +0.000 A 
ATOM      7  S   UNL     1       0.342  10.408  21.417  0.00  0.00    +0.000 S 
ATOM      8  C   UNL     1       1.083   9.438  20.190  0.00  0.00    +0.000 A 
ATOM      9  C   UNL     1       1.515   8.091  20.231  0.00  0.00    +0.000 A 
ENDROOT
BRANCH   1  12
ATOM     10  O   UNL     1       1.310   5.164  17.694  0.00  0.00    +0.000 OA
ATOM     11  C   UNL     1       2.248   5.168  18.480  0.00  0.00    +0.000 C 
ATOM     12  N   UNL     1       2.736   6.266  19.182  0.00  0.00    +0.000 N 
ATOM     13  H   UNL     1       3.647   6.182  19.621  0.00  0.00    +0.000 HD
BRANCH  11  14
ATOM     14  C   UNL     1       2.978   3.889  18.638  0.00  0.00    +0.000 A 
ATOM     15  C   UNL     1       2.887   2.964  17.580  0.00  0.00    +0.000 A 
ATOM     16  C   UNL     1       3.449   1.694  17.697  0.00  0.00    +0.000 A 
ATOM     17  C   UNL     1       4.091   1.338  18.879  0.00  0.00    +0.000 A 
ATOM     18  C   UNL     1       4.173   2.258  19.924  0.00  0.00    +0.000 A 
ATOM     19  F   UNL     1       4.769   1.894  21.068  0.00  0.00    +0.000 F 
ATOM     20  C   UNL     1       3.631   3.537  19.818  0.00  0.00    +0.000 A 
ENDBRANCH  11  14
ENDBRANCH   1  12
BRANCH   6  21
ATOM     21  S   UNL     1      -0.353  13.311  20.790  0.00  0.00    +0.000 S 
BRANCH  21  22
ATOM     22  C   UNL     1      -2.095  13.138  20.259  0.00  0.00    +0.000 C 
BRANCH  22  23
ATOM     23  C   UNL     1      -3.082  13.251  21.414  0.00  0.00    +0.000 C 
ATOM     24  O   UNL     1      -2.746  13.717  22.510  0.00  0.00    +0.000 OA
ATOM     25  N   UNL     1      -4.401  12.866  21.219  0.00  0.00    +0.000 N 
ATOM     26  C   UNL     1      -5.371  13.125  22.297  0.00  0.00    +0.000 C 
ATOM     27  C   UNL     1      -6.705  12.510  21.885  0.00  0.00    +0.000 C 
ATOM     28  C   UNL     1      -6.445  12.153  20.457  0.00  0.00    +0.000 A 
ATOM     29  C   UNL     1      -7.373  11.637  19.562  0.00  0.00    +0.000 A 
ATOM     30  C   UNL     1      -6.929  11.262  18.297  0.00  0.00    +0.000 A 
ATOM     31  C   UNL     1      -5.577  11.396  17.958  0.00  0.00    +0.000 A 
ATOM     32  C   UNL     1      -4.652  11.924  18.870  0.00  0.00    +0.000 A 
ATOM     33  C   UNL     1      -5.093  12.317  20.123  0.00  0.00    +0.000 A 
ENDBRANCH  22  23
ENDBRANCH  21  22
ENDBRANCH   6  21
TORSDOF 5
ENDMDL
MODEL 9
REMARK VINA RESULT:      -8.5      3.462      5.478
REMARK  Name = 
REMARK  5 active torsions:
REMARK  status: ('A' for Active; 'I' for Inactive)
REMARK    1  A    between atoms: C_2  and  C_26
REMARK    2  A    between atoms: N_3  and  C_4
REMARK    3  A    between atoms: C_9  and  S_10
REMARK    4  A    between atoms: S_10  and  C_11
REMARK    5  A    between atoms: C_11  and  C_12
REMARK                            x       y       z     vdW  Elec       q    Type
REMARK                         _______ _______ _______ _____ _____    ______ ____
ROOT
ATOM      1  C   UNL     1       1.065   8.899  20.972  0.00  0.00    +0.000 A 
ATOM      2  C   UNL     1       0.516   8.541  22.204  0.00  0.00    +0.000 A 
ATOM      3  C   UNL     1      -0.224   9.445  22.967  0.00  0.00    +0.000 A 
ATOM      4  C   UNL     1      -0.421  10.751  22.500  0.00  0.00    +0.000 A 
ATOM      5  N   UNL     1      -1.172  11.718  23.144  0.00  0.00    +0.000 NA
ATOM      6  C   UNL     1      -1.146  12.826  22.447  0.00  0.00    +0.000 A 
ATOM      7  S   UNL     1      -0.257  12.774  20.980  0.00  0.00    +0.000 S 
ATOM      8  C   UNL     1       0.170  11.126  21.292  0.00  0.00    +0.000 A 
ATOM      9  C   UNL     1       0.945  10.226  20.524  0.00  0.00    +0.000 A 
ENDROOT
BRANCH   1  12
ATOM     10  O   UNL     1       1.940   9.245  18.209  0.00  0.00    +0.000 OA
ATOM     11  C   UNL     1       2.091   8.198  18.825  0.00  0.00    +0.000 C 
ATOM     12  N   UNL     1       1.720   7.950  20.143  0.00  0.00    +0.000 N 
ATOM     13  H   UNL     1       2.100   7.126  20.596  0.00  0.00    +0.000 HD
BRANCH  11  14
ATOM     14  C   UNL     1       2.806   7.114  18.111  0.00  0.00    +0.000 A 
ATOM     15  C   UNL     1       2.335   5.801  18.301  0.00  0.00    +0.000 A 
ATOM     16  C   UNL     1       3.021   4.716  17.759  0.00  0.00    +0.000 A 
ATOM     17  C   UNL     1       4.190   4.939  17.036  0.00  0.00    +0.000 A 
ATOM     18  C   UNL     1       4.652   6.241  16.857  0.00  0.00    +0.000 A 
ATOM     19  F   UNL     1       5.793   6.442  16.184  0.00  0.00    +0.000 F 
ATOM     20  C   UNL     1       3.971   7.339  17.379  0.00  0.00    +0.000 A 
ENDBRANCH  11  14
ENDBRANCH   1  12
BRANCH   6  21
ATOM     21  S   UNL     1      -2.017  14.252  22.987  0.00  0.00    +0.000 S 
BRANCH  21  22
ATOM     22  C   UNL     1      -3.432  14.253  21.829  0.00  0.00    +0.000 C 
BRANCH  22  23
ATOM     23  C   UNL     1      -4.737  13.818  22.484  0.00  0.00    +0.000 C 
ATOM     24  O   UNL     1      -5.060  14.219  23.609  0.00  0.00    +0.000 OA
ATOM     25  N   UNL     1      -5.605  12.993  21.784  0.00  0.00    +0.000 N 
ATOM     26  C   UNL     1      -6.926  12.710  22.373  0.00  0.00    +0.000 C 
ATOM     27  C   UNL     1      -7.633  11.698  21.475  0.00  0.00    +0.000 C 
ATOM     28  C   UNL     1      -6.731  11.671  20.284  0.00  0.00    +0.000 A 
ATOM     29  C   UNL     1      -6.955  10.971  19.105  0.00  0.00    +0.000 A 
ATOM     30  C   UNL     1      -5.955  10.974  18.137  0.00  0.00    +0.000 A 
ATOM     31  C   UNL     1      -4.755  11.659  18.368  0.00  0.00    +0.000 A 
ATOM     32  C   UNL     1      -4.545  12.365  19.561  0.00  0.00    +0.000 A 
ATOM     33  C   UNL     1      -5.544  12.381  20.518  0.00  0.00    +0.000 A 
ENDBRANCH  22  23
ENDBRANCH  21  22
ENDBRANCH   6  21
TORSDOF 5
ENDMDL
