MODEL 1
REMARK VINA RESULT:      -7.6      0.000      0.000
REMARK  Name = 
REMARK  12 active torsions:
REMARK  status: ('A' for Active; 'I' for Inactive)
REMARK    1  A    between atoms: C_1  and  O_2
REMARK    2  A    between atoms: O_2  and  C_3
REMARK    3  A    between atoms: C_3  and  C_4
REMARK    4  A    between atoms: C_4  and  O_5
REMARK    5  A    between atoms: O_5  and  C_6
REMARK    6  A    between atoms: C_6  and  C_7
REMARK    7  A    between atoms: C_16  and  C_17
REMARK    8  A    between atoms: C_18  and  C_19
REMARK    9  A    between atoms: C_18  and  C_20
REMARK   10  A    between atoms: C_21  and  C_22
REMARK   11  A    between atoms: C_22  and  O_23
REMARK   12  A    between atoms: N_28  and  C_29
REMARK                            x       y       z     vdW  Elec       q    Type
REMARK                         _______ _______ _______ _____ _____    ______ ____
ROOT
ATOM      1  C   UNL     1       2.836   4.181  17.661  0.00  0.00    +0.000 A 
ATOM      2  C   UNL     1       3.410   3.450  16.609  0.00  0.00    +0.000 A 
ATOM      3  C   UNL     1       4.706   3.713  16.174  0.00  0.00    +0.000 A 
ATOM      4  C   UNL     1       5.467   4.720  16.771  0.00  0.00    +0.000 A 
ATOM      5  C   UNL     1       6.738   5.020  16.259  0.00  0.00    +0.000 A 
ATOM      6  C   UNL     1       7.504   6.048  16.799  0.00  0.00    +0.000 A 
ATOM      7  C   UNL     1       7.011   6.782  17.870  0.00  0.00    +0.000 A 
ATOM      8  C   UNL     1       5.748   6.490  18.397  0.00  0.00    +0.000 A 
ATOM      9  C   UNL     1       4.934   5.464  17.861  0.00  0.00    +0.000 A 
ATOM     10  C   UNL     1       3.609   5.178  18.317  0.00  0.00    +0.000 A 
ENDROOT
BRANCH  10  11
ATOM     11  C   UNL     1       2.973   5.999  19.383  0.00  0.00    +0.000 C 
ATOM     12  C   UNL     1       2.382   7.210  19.260  0.00  0.00    +0.000 C 
ATOM     13  C   UNL     1       2.154   7.940  17.965  0.00  0.00    +0.000 C 
BRANCH  12  14
ATOM     14  C   UNL     1       1.934   7.960  20.440  0.00  0.00    +0.000 C 
ATOM     15  C   UNL     1       1.148   9.043  20.322  0.00  0.00    +0.000 C 
BRANCH  15  16
ATOM     16  C   UNL     1       0.538   9.898  21.334  0.00  0.00    +0.000 C 
ATOM     17  C   UNL     1      -0.478  10.744  21.077  0.00  0.00    +0.000 C 
ATOM     18  C   UNL     1      -1.101  11.019  19.753  0.00  0.00    +0.000 C 
ATOM     19  O   UNL     1      -0.960  10.375  18.724  0.00  0.00    +0.000 OA
ATOM     20  C   UNL     1      -1.914  12.278  19.841  0.00  0.00    +0.000 C 
ATOM     21  N   UNL     1      -1.921  12.527  21.269  0.00  0.00    +0.000 N 
ATOM     22  C   UNL     1      -2.800  13.526  21.830  0.00  0.00    +0.000 C 
ATOM     23  C   UNL     1      -1.131  11.676  22.044  0.00  0.00    +0.000 C 
ATOM     24  O   UNL     1      -1.039  11.687  23.253  0.00  0.00    +0.000 OA
BRANCH  16  25
ATOM     25  O   UNL     1       1.062   9.817  22.612  0.00  0.00    +0.000 OA
ATOM     26  H   UNL     1       1.871  10.345  22.681  0.00  0.00    +0.000 HD
ENDBRANCH  16  25
ENDBRANCH  15  16
ENDBRANCH  12  14
ENDBRANCH  10  11
BRANCH   1  27
ATOM     27  C   UNL     1       1.353   4.019  17.940  0.00  0.00    +0.000 C 
BRANCH  27  28
ATOM     28  O   UNL     1       0.966   2.658  18.191  0.00  0.00    +0.000 OA
BRANCH  28  29
ATOM     29  C   UNL     1       1.484   2.253  19.461  0.00  0.00    +0.000 C 
BRANCH  29  30
ATOM     30  C   UNL     1       0.893   3.071  20.603  0.00  0.00    +0.000 C 
BRANCH  30  32
ATOM     31  C   UNL     1       3.135   2.662  21.240  0.00  0.00    +0.000 C 
ATOM     32  O   UNL     1       1.956   3.409  21.497  0.00  0.00    +0.000 OA
ENDBRANCH  30  32
ENDBRANCH  29  30
ENDBRANCH  28  29
ENDBRANCH  27  28
ENDBRANCH   1  27
TORSDOF 9
ENDMDL
MODEL 2
REMARK VINA RESULT:      -7.4      2.690      4.961
REMARK  Name = 
REMARK  12 active torsions:
REMARK  status: ('A' for Active; 'I' for Inactive)
REMARK    1  A    between atoms: C_1  and  O_2
REMARK    2  A    between atoms: O_2  and  C_3
REMARK    3  A    between atoms: C_3  and  C_4
REMARK    4  A    between atoms: C_4  and  O_5
REMARK    5  A    between atoms: O_5  and  C_6
REMARK    6  A    between atoms: C_6  and  C_7
REMARK    7  A    between atoms: C_16  and  C_17
REMARK    8  A    between atoms: C_18  and  C_19
REMARK    9  A    between atoms: C_18  and  C_20
REMARK   10  A    between atoms: C_21  and  C_22
REMARK   11  A    between atoms: C_22  and  O_23
REMARK   12  A    between atoms: N_28  and  C_29
REMARK                            x       y       z     vdW  Elec       q    Type
REMARK                         _______ _______ _______ _____ _____    ______ ____
ROOT
ATOM      1  C   UNL     1       5.326   6.147  17.519  0.00  0.00    +0.000 A 
ATOM      2  C   UNL     1       6.098   4.978  17.610  0.00  0.00    +0.000 A 
ATOM      3  C   UNL     1       5.498   3.729  17.747  0.00  0.00    +0.000 A 
ATOM      4  C   UNL     1       4.107   3.610  17.805  0.00  0.00    +0.000 A 
ATOM      5  C   UNL     1       3.532   2.350  18.027  0.00  0.00    +0.000 A 
ATOM      6  C   UNL     1       2.153   2.201  18.137  0.00  0.00    +0.000 A 
ATOM      7  C   UNL     1       1.330   3.314  18.013  0.00  0.00    +0.000 A 
ATOM      8  C   UNL     1       1.889   4.576  17.784  0.00  0.00    +0.000 A 
ATOM      9  C   UNL     1       3.288   4.767  17.685  0.00  0.00    +0.000 A 
ATOM     10  C   UNL     1       3.908   6.046  17.526  0.00  0.00    +0.000 A 
ENDROOT
BRANCH  10  11
ATOM     11  C   UNL     1       3.095   7.292  17.501  0.00  0.00    +0.000 C 
ATOM     12  C   UNL     1       2.397   7.852  18.516  0.00  0.00    +0.000 C 
ATOM     13  C   UNL     1       2.388   7.363  19.938  0.00  0.00    +0.000 C 
BRANCH  12  14
ATOM     14  C   UNL     1       1.519   9.007  18.289  0.00  0.00    +0.000 C 
ATOM     15  C   UNL     1       0.916   9.636  19.311  0.00  0.00    +0.000 C 
BRANCH  15  16
ATOM     16  C   UNL     1       0.065  10.820  19.337  0.00  0.00    +0.000 C 
ATOM     17  C   UNL     1      -0.370  11.398  20.473  0.00  0.00    +0.000 C 
ATOM     18  C   UNL     1      -0.143  10.918  21.865  0.00  0.00    +0.000 C 
ATOM     19  O   UNL     1       0.651  10.064  22.230  0.00  0.00    +0.000 OA
ATOM     20  C   UNL     1      -1.100  11.613  22.789  0.00  0.00    +0.000 C 
ATOM     21  N   UNL     1      -1.656  12.635  21.926  0.00  0.00    +0.000 N 
ATOM     22  C   UNL     1      -2.461  13.699  22.481  0.00  0.00    +0.000 C 
ATOM     23  C   UNL     1      -1.271  12.584  20.585  0.00  0.00    +0.000 C 
ATOM     24  O   UNL     1      -1.585  13.371  19.718  0.00  0.00    +0.000 OA
BRANCH  16  25
ATOM     25  O   UNL     1      -0.305  11.345  18.111  0.00  0.00    +0.000 OA
ATOM     26  H   UNL     1      -1.269  11.349  18.020  0.00  0.00    +0.000 HD
ENDBRANCH  16  25
ENDBRANCH  15  16
ENDBRANCH  12  14
ENDBRANCH  10  11
BRANCH   1  27
ATOM     27  C   UNL     1       6.024   7.491  17.606  0.00  0.00    +0.000 C 
BRANCH  27  28
ATOM     28  O   UNL     1       7.398   7.449  17.189  0.00  0.00    +0.000 OA
BRANCH  28  29
ATOM     29  C   UNL     1       8.226   7.911  18.260  0.00  0.00    +0.000 C 
BRANCH  29  30
ATOM     30  C   UNL     1       8.394   9.425  18.235  0.00  0.00    +0.000 C 
BRANCH  30  32
ATOM     31  C   UNL     1      10.056  10.971  18.904  0.00  0.00    +0.000 C 
ATOM     32  O   UNL     1       9.363   9.775  19.226  0.00  0.00    +0.000 OA
ENDBRANCH  30  32
ENDBRANCH  29  30
ENDBRANCH  28  29
ENDBRANCH  27  28
ENDBRANCH   1  27
TORSDOF 9
ENDMDL
MODEL 3
REMARK VINA RESULT:      -7.4      1.079      1.103
REMARK  Name = 
REMARK  12 active torsions:
REMARK  status: ('A' for Active; 'I' for Inactive)
REMARK    1  A    between atoms: C_1  and  O_2
REMARK    2  A    between atoms: O_2  and  C_3
REMARK    3  A    between atoms: C_3  and  C_4
REMARK    4  A    between atoms: C_4  and  O_5
REMARK    5  A    between atoms: O_5  and  C_6
REMARK    6  A    between atoms: C_6  and  C_7
REMARK    7  A    between atoms: C_16  and  C_17
REMARK    8  A    between atoms: C_18  and  C_19
REMARK    9  A    between atoms: C_18  and  C_20
REMARK   10  A    between atoms: C_21  and  C_22
REMARK   11  A    between atoms: C_22  and  O_23
REMARK   12  A    between atoms: N_28  and  C_29
REMARK                            x       y       z     vdW  Elec       q    Type
REMARK                         _______ _______ _______ _____ _____    ______ ____
ROOT
ATOM      1  C   UNL     1       2.782   4.142  17.823  0.00  0.00    +0.000 A 
ATOM      2  C   UNL     1       3.347   3.380  16.789  0.00  0.00    +0.000 A 
ATOM      3  C   UNL     1       4.623   3.658  16.305  0.00  0.00    +0.000 A 
ATOM      4  C   UNL     1       5.371   4.712  16.835  0.00  0.00    +0.000 A 
ATOM      5  C   UNL     1       6.619   5.022  16.274  0.00  0.00    +0.000 A 
ATOM      6  C   UNL     1       7.370   6.094  16.745  0.00  0.00    +0.000 A 
ATOM      7  C   UNL     1       6.886   6.863  17.797  0.00  0.00    +0.000 A 
ATOM      8  C   UNL     1       5.647   6.560  18.372  0.00  0.00    +0.000 A 
ATOM      9  C   UNL     1       4.847   5.490  17.906  0.00  0.00    +0.000 A 
ATOM     10  C   UNL     1       3.544   5.189  18.412  0.00  0.00    +0.000 A 
ENDROOT
BRANCH  10  11
ATOM     11  C   UNL     1       2.915   6.039  19.459  0.00  0.00    +0.000 C 
ATOM     12  C   UNL     1       2.326   7.248  19.306  0.00  0.00    +0.000 C 
ATOM     13  C   UNL     1       2.094   7.943  17.993  0.00  0.00    +0.000 C 
BRANCH  12  14
ATOM     14  C   UNL     1       1.885   8.030  20.468  0.00  0.00    +0.000 C 
ATOM     15  C   UNL     1       0.923   8.962  20.357  0.00  0.00    +0.000 C 
BRANCH  15  16
ATOM     16  C   UNL     1       0.288   9.805  21.364  0.00  0.00    +0.000 C 
ATOM     17  C   UNL     1       0.218  11.147  21.272  0.00  0.00    +0.000 C 
ATOM     18  C   UNL     1       0.816  12.004  20.211  0.00  0.00    +0.000 C 
ATOM     19  O   UNL     1       1.271  11.638  19.137  0.00  0.00    +0.000 OA
ATOM     20  C   UNL     1       0.838  13.429  20.680  0.00  0.00    +0.000 C 
ATOM     21  N   UNL     1       0.027  13.358  21.879  0.00  0.00    +0.000 N 
ATOM     22  C   UNL     1      -0.416  14.569  22.532  0.00  0.00    +0.000 C 
ATOM     23  C   UNL     1      -0.378  12.082  22.272  0.00  0.00    +0.000 C 
ATOM     24  O   UNL     1      -1.095  11.815  23.213  0.00  0.00    +0.000 OA
BRANCH  16  25
ATOM     25  O   UNL     1      -0.250   9.160  22.463  0.00  0.00    +0.000 OA
ATOM     26  H   UNL     1       0.451   8.879  23.069  0.00  0.00    +0.000 HD
ENDBRANCH  16  25
ENDBRANCH  15  16
ENDBRANCH  12  14
ENDBRANCH  10  11
BRANCH   1  27
ATOM     27  C   UNL     1       1.313   3.952  18.152  0.00  0.00    +0.000 C 
BRANCH  27  28
ATOM     28  O   UNL     1       0.948   2.579  18.362  0.00  0.00    +0.000 OA
BRANCH  28  29
ATOM     29  C   UNL     1       1.463   2.147  19.625  0.00  0.00    +0.000 C 
BRANCH  29  30
ATOM     30  C   UNL     1       1.012   3.057  20.761  0.00  0.00    +0.000 C 
BRANCH  30  32
ATOM     31  C   UNL     1       3.276   2.567  21.243  0.00  0.00    +0.000 C 
ATOM     32  O   UNL     1       2.052   3.083  21.741  0.00  0.00    +0.000 OA
ENDBRANCH  30  32
ENDBRANCH  29  30
ENDBRANCH  28  29
ENDBRANCH  27  28
ENDBRANCH   1  27
TORSDOF 9
ENDMDL
MODEL 4
REMARK VINA RESULT:      -7.2      3.728      9.314
REMARK  Name = 
REMARK  12 active torsions:
REMARK  status: ('A' for Active; 'I' for Inactive)
REMARK    1  A    between atoms: C_1  and  O_2
REMARK    2  A    between atoms: O_2  and  C_3
REMARK    3  A    between atoms: C_3  and  C_4
REMARK    4  A    between atoms: C_4  and  O_5
REMARK    5  A    between atoms: O_5  and  C_6
REMARK    6  A    between atoms: C_6  and  C_7
REMARK    7  A    between atoms: C_16  and  C_17
REMARK    8  A    between atoms: C_18  and  C_19
REMARK    9  A    between atoms: C_18  and  C_20
REMARK   10  A    between atoms: C_21  and  C_22
REMARK   11  A    between atoms: C_22  and  O_23
REMARK   12  A    between atoms: N_28  and  C_29
REMARK                            x       y       z     vdW  Elec       q    Type
REMARK                         _______ _______ _______ _____ _____    ______ ____
ROOT
ATOM      1  C   UNL     1      -1.973  11.275  18.120  0.00  0.00    +0.000 A 
ATOM      2  C   UNL     1      -2.968  12.166  18.549  0.00  0.00    +0.000 A 
ATOM      3  C   UNL     1      -3.080  12.528  19.889  0.00  0.00    +0.000 A 
ATOM      4  C   UNL     1      -2.205  12.004  20.843  0.00  0.00    +0.000 A 
ATOM      5  C   UNL     1      -2.392  12.320  22.197  0.00  0.00    +0.000 A 
ATOM      6  C   UNL     1      -1.569  11.778  23.180  0.00  0.00    +0.000 A 
ATOM      7  C   UNL     1      -0.537  10.922  22.816  0.00  0.00    +0.000 A 
ATOM      8  C   UNL     1      -0.334  10.603  21.468  0.00  0.00    +0.000 A 
ATOM      9  C   UNL     1      -1.163  11.121  20.445  0.00  0.00    +0.000 A 
ATOM     10  C   UNL     1      -1.040  10.766  19.065  0.00  0.00    +0.000 A 
ENDROOT
BRANCH  10  11
ATOM     11  C   UNL     1      -0.032   9.767  18.618  0.00  0.00    +0.000 C 
ATOM     12  C   UNL     1       1.262   9.981  18.286  0.00  0.00    +0.000 C 
ATOM     13  C   UNL     1       1.985  11.294  18.405  0.00  0.00    +0.000 C 
BRANCH  12  14
ATOM     14  C   UNL     1       2.088   8.908  17.718  0.00  0.00    +0.000 C 
ATOM     15  C   UNL     1       2.516   7.883  18.472  0.00  0.00    +0.000 C 
BRANCH  15  16
ATOM     16  C   UNL     1       3.281   6.691  18.122  0.00  0.00    +0.000 C 
ATOM     17  C   UNL     1       3.201   5.530  18.801  0.00  0.00    +0.000 C 
ATOM     18  C   UNL     1       2.408   5.267  20.034  0.00  0.00    +0.000 C 
ATOM     19  O   UNL     1       1.531   5.973  20.511  0.00  0.00    +0.000 OA
ATOM     20  C   UNL     1       2.890   3.996  20.669  0.00  0.00    +0.000 C 
ATOM     21  N   UNL     1       3.762   3.463  19.641  0.00  0.00    +0.000 N 
ATOM     22  C   UNL     1       4.262   2.111  19.740  0.00  0.00    +0.000 C 
ATOM     23  C   UNL     1       3.975   4.282  18.532  0.00  0.00    +0.000 C 
ATOM     24  O   UNL     1       4.628   4.002  17.549  0.00  0.00    +0.000 OA
BRANCH  16  25
ATOM     25  O   UNL     1       4.134   6.798  17.037  0.00  0.00    +0.000 OA
ATOM     26  H   UNL     1       5.005   6.433  17.252  0.00  0.00    +0.000 HD
ENDBRANCH  16  25
ENDBRANCH  15  16
ENDBRANCH  12  14
ENDBRANCH  10  11
BRANCH   1  27
ATOM     27  C   UNL     1      -2.038  10.734  16.703  0.00  0.00    +0.000 C 
BRANCH  27  28
ATOM     28  O   UNL     1      -3.160  11.229  15.955  0.00  0.00    +0.000 OA
BRANCH  28  29
ATOM     29  C   UNL     1      -3.806  10.133  15.301  0.00  0.00    +0.000 C 
BRANCH  29  30
ATOM     30  C   UNL     1      -3.445  10.063  13.822  0.00  0.00    +0.000 C 
BRANCH  30  32
ATOM     31  C   UNL     1      -4.439   9.765  11.695  0.00  0.00    +0.000 C 
ATOM     32  O   UNL     1      -4.623   9.695  13.100  0.00  0.00    +0.000 OA
ENDBRANCH  30  32
ENDBRANCH  29  30
ENDBRANCH  28  29
ENDBRANCH  27  28
ENDBRANCH   1  27
TORSDOF 9
ENDMDL
MODEL 5
REMARK VINA RESULT:      -7.1      3.358      9.382
REMARK  Name = 
REMARK  12 active torsions:
REMARK  status: ('A' for Active; 'I' for Inactive)
REMARK    1  A    between atoms: C_1  and  O_2
REMARK    2  A    between atoms: O_2  and  C_3
REMARK    3  A    between atoms: C_3  and  C_4
REMARK    4  A    between atoms: C_4  and  O_5
REMARK    5  A    between atoms: O_5  and  C_6
REMARK    6  A    between atoms: C_6  and  C_7
REMARK    7  A    between atoms: C_16  and  C_17
REMARK    8  A    between atoms: C_18  and  C_19
REMARK    9  A    between atoms: C_18  and  C_20
REMARK   10  A    between atoms: C_21  and  C_22
REMARK   11  A    between atoms: C_22  and  O_23
REMARK   12  A    between atoms: N_28  and  C_29
REMARK                            x       y       z     vdW  Elec       q    Type
REMARK                         _______ _______ _______ _____ _____    ______ ____
ROOT
ATOM      1  C   UNL     1      -0.662  11.266  20.244  0.00  0.00    +0.000 A 
ATOM      2  C   UNL     1      -1.710  12.161  20.511  0.00  0.00    +0.000 A 
ATOM      3  C   UNL     1      -2.794  12.277  19.644  0.00  0.00    +0.000 A 
ATOM      4  C   UNL     1      -2.860  11.507  18.481  0.00  0.00    +0.000 A 
ATOM      5  C   UNL     1      -3.921  11.703  17.584  0.00  0.00    +0.000 A 
ATOM      6  C   UNL     1      -3.994  10.988  16.393  0.00  0.00    +0.000 A 
ATOM      7  C   UNL     1      -3.010  10.055  16.090  0.00  0.00    +0.000 A 
ATOM      8  C   UNL     1      -1.950   9.843  16.978  0.00  0.00    +0.000 A 
ATOM      9  C   UNL     1      -1.834  10.566  18.189  0.00  0.00    +0.000 A 
ATOM     10  C   UNL     1      -0.731  10.436  19.091  0.00  0.00    +0.000 A 
ENDROOT
BRANCH  10  11
ATOM     11  C   UNL     1       0.415   9.541  18.776  0.00  0.00    +0.000 C 
ATOM     12  C   UNL     1       1.582   9.865  18.174  0.00  0.00    +0.000 C 
ATOM     13  C   UNL     1       2.006  11.255  17.786  0.00  0.00    +0.000 C 
BRANCH  12  14
ATOM     14  C   UNL     1       2.555   8.831  17.795  0.00  0.00    +0.000 C 
ATOM     15  C   UNL     1       2.559   7.627  18.389  0.00  0.00    +0.000 C 
BRANCH  15  16
ATOM     16  C   UNL     1       3.373   6.441  18.143  0.00  0.00    +0.000 C 
ATOM     17  C   UNL     1       3.278   5.311  18.870  0.00  0.00    +0.000 C 
ATOM     18  C   UNL     1       2.416   5.084  20.063  0.00  0.00    +0.000 C 
ATOM     19  O   UNL     1       1.495   5.786  20.452  0.00  0.00    +0.000 OA
ATOM     20  C   UNL     1       2.888   3.856  20.786  0.00  0.00    +0.000 C 
ATOM     21  N   UNL     1       3.834   3.300  19.840  0.00  0.00    +0.000 N 
ATOM     22  C   UNL     1       4.360   1.968  20.032  0.00  0.00    +0.000 C 
ATOM     23  C   UNL     1       4.097   4.073  18.708  0.00  0.00    +0.000 C 
ATOM     24  O   UNL     1       4.816   3.766  17.781  0.00  0.00    +0.000 OA
BRANCH  16  25
ATOM     25  O   UNL     1       4.288   6.522  17.109  0.00  0.00    +0.000 OA
ATOM     26  H   UNL     1       4.987   7.158  17.323  0.00  0.00    +0.000 HD
ENDBRANCH  16  25
ENDBRANCH  15  16
ENDBRANCH  12  14
ENDBRANCH  10  11
BRANCH   1  27
ATOM     27  C   UNL     1       0.598  11.344  21.087  0.00  0.00    +0.000 C 
BRANCH  27  28
ATOM     28  O   UNL     1       0.863  12.662  21.596  0.00  0.00    +0.000 OA
BRANCH  28  29
ATOM     29  C   UNL     1       1.923  13.250  20.837  0.00  0.00    +0.000 C 
BRANCH  29  30
ATOM     30  C   UNL     1       1.414  14.341  19.903  0.00  0.00    +0.000 C 
BRANCH  30  32
ATOM     31  C   UNL     1       0.357  16.286  20.740  0.00  0.00    +0.000 C 
ATOM     32  O   UNL     1       1.586  15.598  20.562  0.00  0.00    +0.000 OA
ENDBRANCH  30  32
ENDBRANCH  29  30
ENDBRANCH  28  29
ENDBRANCH  27  28
ENDBRANCH   1  27
TORSDOF 9
ENDMDL
MODEL 6
REMARK VINA RESULT:      -7.1      2.329      4.520
REMARK  Name = 
REMARK  12 active torsions:
REMARK  status: ('A' for Active; 'I' for Inactive)
REMARK    1  A    between atoms: C_1  and  O_2
REMARK    2  A    between atoms: O_2  and  C_3
REMARK    3  A    between atoms: C_3  and  C_4
REMARK    4  A    between atoms: C_4  and  O_5
REMARK    5  A    between atoms: O_5  and  C_6
REMARK    6  A    between atoms: C_6  and  C_7
REMARK    7  A    between atoms: C_16  and  C_17
REMARK    8  A    between atoms: C_18  and  C_19
REMARK    9  A    between atoms: C_18  and  C_20
REMARK   10  A    between atoms: C_21  and  C_22
REMARK   11  A    between atoms: C_22  and  O_23
REMARK   12  A    between atoms: N_28  and  C_29
REMARK                            x       y       z     vdW  Elec       q    Type
REMARK                         _______ _______ _______ _____ _____    ______ ____
ROOT
ATOM      1  C   UNL     1       4.352   5.849  17.611  0.00  0.00    +0.000 A 
ATOM      2  C   UNL     1       4.812   4.750  16.868  0.00  0.00    +0.000 A 
ATOM      3  C   UNL     1       4.163   3.520  16.928  0.00  0.00    +0.000 A 
ATOM      4  C   UNL     1       3.038   3.347  17.738  0.00  0.00    +0.000 A 
ATOM      5  C   UNL     1       2.454   2.075  17.843  0.00  0.00    +0.000 A 
ATOM      6  C   UNL     1       1.361   1.856  18.676  0.00  0.00    +0.000 A 
ATOM      7  C   UNL     1       0.831   2.912  19.406  0.00  0.00    +0.000 A 
ATOM      8  C   UNL     1       1.398   4.187  19.306  0.00  0.00    +0.000 A 
ATOM      9  C   UNL     1       2.521   4.443  18.483  0.00  0.00    +0.000 A 
ATOM     10  C   UNL     1       3.180   5.710  18.405  0.00  0.00    +0.000 A 
ENDROOT
BRANCH  10  11
ATOM     11  C   UNL     1       2.737   6.856  19.245  0.00  0.00    +0.000 C 
ATOM     12  C   UNL     1       2.086   7.974  18.851  0.00  0.00    +0.000 C 
ATOM     13  C   UNL     1       1.576   8.241  17.461  0.00  0.00    +0.000 C 
BRANCH  12  14
ATOM     14  C   UNL     1       1.853   9.086  19.782  0.00  0.00    +0.000 C 
ATOM     15  C   UNL     1       0.683   9.220  20.429  0.00  0.00    +0.000 C 
BRANCH  15  16
ATOM     16  C   UNL     1       0.249  10.189  21.430  0.00  0.00    +0.000 C 
ATOM     17  C   UNL     1      -0.610  11.193  21.168  0.00  0.00    +0.000 C 
ATOM     18  C   UNL     1      -1.202  11.544  19.848  0.00  0.00    +0.000 C 
ATOM     19  O   UNL     1      -1.194  10.863  18.832  0.00  0.00    +0.000 OA
ATOM     20  C   UNL     1      -1.783  12.926  19.918  0.00  0.00    +0.000 C 
ATOM     21  N   UNL     1      -1.719  13.202  21.339  0.00  0.00    +0.000 N 
ATOM     22  C   UNL     1      -2.402  14.350  21.889  0.00  0.00    +0.000 C 
ATOM     23  C   UNL     1      -1.073  12.244  22.122  0.00  0.00    +0.000 C 
ATOM     24  O   UNL     1      -0.957  12.265  23.329  0.00  0.00    +0.000 OA
BRANCH  16  25
ATOM     25  O   UNL     1       0.777  10.046  22.700  0.00  0.00    +0.000 OA
ATOM     26  H   UNL     1       1.742  10.127  22.678  0.00  0.00    +0.000 HD
ENDBRANCH  16  25
ENDBRANCH  15  16
ENDBRANCH  12  14
ENDBRANCH  10  11
BRANCH   1  27
ATOM     27  C   UNL     1       5.221   7.090  17.695  0.00  0.00    +0.000 C 
BRANCH  27  28
ATOM     28  O   UNL     1       6.628   6.799  17.733  0.00  0.00    +0.000 OA
BRANCH  28  29
ATOM     29  C   UNL     1       7.356   7.964  17.334  0.00  0.00    +0.000 C 
BRANCH  29  30
ATOM     30  C   UNL     1       8.377   8.382  18.386  0.00  0.00    +0.000 C 
BRANCH  30  32
ATOM     31  C   UNL     1       9.310  10.331  19.351  0.00  0.00    +0.000 C 
ATOM     32  O   UNL     1       8.591   9.789  18.254  0.00  0.00    +0.000 OA
ENDBRANCH  30  32
ENDBRANCH  29  30
ENDBRANCH  28  29
ENDBRANCH  27  28
ENDBRANCH   1  27
TORSDOF 9
ENDMDL
MODEL 7
REMARK VINA RESULT:      -7.0      1.105      1.933
REMARK  Name = 
REMARK  12 active torsions:
REMARK  status: ('A' for Active; 'I' for Inactive)
REMARK    1  A    between atoms: C_1  and  O_2
REMARK    2  A    between atoms: O_2  and  C_3
REMARK    3  A    between atoms: C_3  and  C_4
REMARK    4  A    between atoms: C_4  and  O_5
REMARK    5  A    between atoms: O_5  and  C_6
REMARK    6  A    between atoms: C_6  and  C_7
REMARK    7  A    between atoms: C_16  and  C_17
REMARK    8  A    between atoms: C_18  and  C_19
REMARK    9  A    between atoms: C_18  and  C_20
REMARK   10  A    between atoms: C_21  and  C_22
REMARK   11  A    between atoms: C_22  and  O_23
REMARK   12  A    between atoms: N_28  and  C_29
REMARK                            x       y       z     vdW  Elec       q    Type
REMARK                         _______ _______ _______ _____ _____    ______ ____
ROOT
ATOM      1  C   UNL     1       3.038   4.802  17.943  0.00  0.00    +0.000 A 
ATOM      2  C   UNL     1       3.859   3.664  17.934  0.00  0.00    +0.000 A 
ATOM      3  C   UNL     1       5.241   3.775  17.811  0.00  0.00    +0.000 A 
ATOM      4  C   UNL     1       5.846   5.028  17.684  0.00  0.00    +0.000 A 
ATOM      5  C   UNL     1       7.231   5.108  17.478  0.00  0.00    +0.000 A 
ATOM      6  C   UNL     1       7.860   6.336  17.301  0.00  0.00    +0.000 A 
ATOM      7  C   UNL     1       7.109   7.504  17.342  0.00  0.00    +0.000 A 
ATOM      8  C   UNL     1       5.728   7.442  17.555  0.00  0.00    +0.000 A 
ATOM      9  C   UNL     1       5.052   6.209  17.720  0.00  0.00    +0.000 A 
ATOM     10  C   UNL     1       3.635   6.091  17.866  0.00  0.00    +0.000 A 
ENDROOT
BRANCH  10  11
ATOM     11  C   UNL     1       2.757   7.290  17.804  0.00  0.00    +0.000 C 
ATOM     12  C   UNL     1       2.075   7.876  18.815  0.00  0.00    +0.000 C 
ATOM     13  C   UNL     1       2.155   7.479  20.264  0.00  0.00    +0.000 C 
BRANCH  12  14
ATOM     14  C   UNL     1       1.128   8.969  18.561  0.00  0.00    +0.000 C 
ATOM     15  C   UNL     1       0.359   9.469  19.542  0.00  0.00    +0.000 C 
BRANCH  15  16
ATOM     16  C   UNL     1      -0.593  10.574  19.544  0.00  0.00    +0.000 C 
ATOM     17  C   UNL     1      -0.898  11.291  20.643  0.00  0.00    +0.000 C 
ATOM     18  C   UNL     1      -0.404  11.058  22.028  0.00  0.00    +0.000 C 
ATOM     19  O   UNL     1       0.521  10.336  22.370  0.00  0.00    +0.000 OA
ATOM     20  C   UNL     1      -1.267  11.817  22.994  0.00  0.00    +0.000 C 
ATOM     21  N   UNL     1      -2.055  12.643  22.101  0.00  0.00    +0.000 N 
ATOM     22  C   UNL     1      -2.865  13.718  22.627  0.00  0.00    +0.000 C 
ATOM     23  C   UNL     1      -1.885  12.408  20.736  0.00  0.00    +0.000 C 
ATOM     24  O   UNL     1      -2.411  13.020  19.831  0.00  0.00    +0.000 OA
BRANCH  16  25
ATOM     25  O   UNL     1      -1.204  10.867  18.337  0.00  0.00    +0.000 OA
ATOM     26  H   UNL     1      -1.986  10.310  18.209  0.00  0.00    +0.000 HD
ENDBRANCH  16  25
ENDBRANCH  15  16
ENDBRANCH  12  14
ENDBRANCH  10  11
BRANCH   1  27
ATOM     27  C   UNL     1       1.535   4.619  17.844  0.00  0.00    +0.000 C 
BRANCH  27  28
ATOM     28  O   UNL     1       1.129   3.242  17.810  0.00  0.00    +0.000 OA
BRANCH  28  29
ATOM     29  C   UNL     1       0.469   2.919  19.038  0.00  0.00    +0.000 C 
BRANCH  29  30
ATOM     30  C   UNL     1       0.856   3.876  20.158  0.00  0.00    +0.000 C 
BRANCH  30  32
ATOM     31  C   UNL     1       2.533   2.758  21.398  0.00  0.00    +0.000 C 
ATOM     32  O   UNL     1       1.158   3.096  21.317  0.00  0.00    +0.000 OA
ENDBRANCH  30  32
ENDBRANCH  29  30
ENDBRANCH  28  29
ENDBRANCH  27  28
ENDBRANCH   1  27
TORSDOF 9
ENDMDL
MODEL 8
REMARK VINA RESULT:      -7.0      2.112      4.070
REMARK  Name = 
REMARK  12 active torsions:
REMARK  status: ('A' for Active; 'I' for Inactive)
REMARK    1  A    between atoms: C_1  and  O_2
REMARK    2  A    between atoms: O_2  and  C_3
REMARK    3  A    between atoms: C_3  and  C_4
REMARK    4  A    between atoms: C_4  and  O_5
REMARK    5  A    between atoms: O_5  and  C_6
REMARK    6  A    between atoms: C_6  and  C_7
REMARK    7  A    between atoms: C_16  and  C_17
REMARK    8  A    between atoms: C_18  and  C_19
REMARK    9  A    between atoms: C_18  and  C_20
REMARK   10  A    between atoms: C_21  and  C_22
REMARK   11  A    between atoms: C_22  and  O_23
REMARK   12  A    between atoms: N_28  and  C_29
REMARK                            x       y       z     vdW  Elec       q    Type
REMARK                         _______ _______ _______ _____ _____    ______ ____
ROOT
ATOM      1  C   UNL     1       4.083   5.826  17.542  0.00  0.00    +0.000 A 
ATOM      2  C   UNL     1       4.460   4.703  16.789  0.00  0.00    +0.000 A 
ATOM      3  C   UNL     1       3.818   3.478  16.953  0.00  0.00    +0.000 A 
ATOM      4  C   UNL     1       2.783   3.337  17.881  0.00  0.00    +0.000 A 
ATOM      5  C   UNL     1       2.209   2.072  18.085  0.00  0.00    +0.000 A 
ATOM      6  C   UNL     1       1.210   1.884  19.034  0.00  0.00    +0.000 A 
ATOM      7  C   UNL     1       0.761   2.965  19.783  0.00  0.00    +0.000 A 
ATOM      8  C   UNL     1       1.319   4.233  19.585  0.00  0.00    +0.000 A 
ATOM      9  C   UNL     1       2.350   4.458  18.642  0.00  0.00    +0.000 A 
ATOM     10  C   UNL     1       3.000   5.718  18.457  0.00  0.00    +0.000 A 
ENDROOT
BRANCH  10  11
ATOM     11  C   UNL     1       2.651   6.891  19.304  0.00  0.00    +0.000 C 
ATOM     12  C   UNL     1       1.975   8.006  18.944  0.00  0.00    +0.000 C 
ATOM     13  C   UNL     1       1.335   8.240  17.603  0.00  0.00    +0.000 C 
BRANCH  12  14
ATOM     14  C   UNL     1       1.843   9.144  19.862  0.00  0.00    +0.000 C 
ATOM     15  C   UNL     1       0.687   9.398  20.497  0.00  0.00    +0.000 C 
BRANCH  15  16
ATOM     16  C   UNL     1       0.341  10.414  21.485  0.00  0.00    +0.000 C 
ATOM     17  C   UNL     1      -0.405  11.500  21.203  0.00  0.00    +0.000 C 
ATOM     18  C   UNL     1      -0.935  11.900  19.870  0.00  0.00    +0.000 C 
ATOM     19  O   UNL     1      -0.983  11.215  18.859  0.00  0.00    +0.000 OA
ATOM     20  C   UNL     1      -1.370  13.336  19.922  0.00  0.00    +0.000 C 
ATOM     21  N   UNL     1      -1.300  13.615  21.342  0.00  0.00    +0.000 N 
ATOM     22  C   UNL     1      -1.867  14.833  21.874  0.00  0.00    +0.000 C 
ATOM     23  C   UNL     1      -0.770  12.602  22.142  0.00  0.00    +0.000 C 
ATOM     24  O   UNL     1      -0.671  12.620  23.351  0.00  0.00    +0.000 OA
BRANCH  16  25
ATOM     25  O   UNL     1       0.831  10.227  22.765  0.00  0.00    +0.000 OA
ATOM     26  H   UNL     1       1.752  10.522  22.823  0.00  0.00    +0.000 HD
ENDBRANCH  16  25
ENDBRANCH  15  16
ENDBRANCH  12  14
ENDBRANCH  10  11
BRANCH   1  27
ATOM     27  C   UNL     1       4.960   7.063  17.496  0.00  0.00    +0.000 C 
BRANCH  27  28
ATOM     28  O   UNL     1       5.887   7.066  16.399  0.00  0.00    +0.000 OA
BRANCH  28  29
ATOM     29  C   UNL     1       7.178   6.677  16.877  0.00  0.00    +0.000 C 
BRANCH  29  30
ATOM     30  C   UNL     1       7.648   7.563  18.024  0.00  0.00    +0.000 C 
BRANCH  30  32
ATOM     31  C   UNL     1       7.654   5.687  19.467  0.00  0.00    +0.000 C 
ATOM     32  O   UNL     1       8.414   6.753  18.919  0.00  0.00    +0.000 OA
ENDBRANCH  30  32
ENDBRANCH  29  30
ENDBRANCH  28  29
ENDBRANCH  27  28
ENDBRANCH   1  27
TORSDOF 9
ENDMDL
MODEL 9
REMARK VINA RESULT:      -7.0      3.210      5.134
REMARK  Name = 
REMARK  12 active torsions:
REMARK  status: ('A' for Active; 'I' for Inactive)
REMARK    1  A    between atoms: C_1  and  O_2
REMARK    2  A    between atoms: O_2  and  C_3
REMARK    3  A    between atoms: C_3  and  C_4
REMARK    4  A    between atoms: C_4  and  O_5
REMARK    5  A    between atoms: O_5  and  C_6
REMARK    6  A    between atoms: C_6  and  C_7
REMARK    7  A    between atoms: C_16  and  C_17
REMARK    8  A    between atoms: C_18  and  C_19
REMARK    9  A    between atoms: C_18  and  C_20
REMARK   10  A    between atoms: C_21  and  C_22
REMARK   11  A    between atoms: C_22  and  O_23
REMARK   12  A    between atoms: N_28  and  C_29
REMARK                            x       y       z     vdW  Elec       q    Type
REMARK                         _______ _______ _______ _____ _____    ______ ____
ROOT
ATOM      1  C   UNL     1       5.167   6.382  17.341  0.00  0.00    +0.000 A 
ATOM      2  C   UNL     1       5.978   5.236  17.339  0.00  0.00    +0.000 A 
ATOM      3  C   UNL     1       5.429   3.966  17.490  0.00  0.00    +0.000 A 
ATOM      4  C   UNL     1       4.052   3.802  17.655  0.00  0.00    +0.000 A 
ATOM      5  C   UNL     1       3.534   2.519  17.888  0.00  0.00    +0.000 A 
ATOM      6  C   UNL     1       2.173   2.323  18.104  0.00  0.00    +0.000 A 
ATOM      7  C   UNL     1       1.310   3.412  18.076  0.00  0.00    +0.000 A 
ATOM      8  C   UNL     1       1.811   4.697  17.837  0.00  0.00    +0.000 A 
ATOM      9  C   UNL     1       3.191   4.934  17.632  0.00  0.00    +0.000 A 
ATOM     10  C   UNL     1       3.758   6.236  17.458  0.00  0.00    +0.000 A 
ENDROOT
BRANCH  10  11
ATOM     11  C   UNL     1       2.909   7.456  17.532  0.00  0.00    +0.000 C 
ATOM     12  C   UNL     1       2.232   7.936  18.600  0.00  0.00    +0.000 C 
ATOM     13  C   UNL     1       2.289   7.370  19.992  0.00  0.00    +0.000 C 
BRANCH  12  14
ATOM     14  C   UNL     1       1.314   9.074  18.469  0.00  0.00    +0.000 C 
ATOM     15  C   UNL     1       1.049   9.881  19.510  0.00  0.00    +0.000 C 
BRANCH  15  16
ATOM     16  C   UNL     1       0.234  11.087  19.603  0.00  0.00    +0.000 C 
ATOM     17  C   UNL     1       0.620  12.283  19.119  0.00  0.00    +0.000 C 
ATOM     18  C   UNL     1       1.928  12.615  18.488  0.00  0.00    +0.000 C 
ATOM     19  O   UNL     1       2.779  11.828  18.099  0.00  0.00    +0.000 OA
ATOM     20  C   UNL     1       2.092  14.106  18.445  0.00  0.00    +0.000 C 
ATOM     21  N   UNL     1       0.768  14.561  18.822  0.00  0.00    +0.000 N 
ATOM     22  C   UNL     1       0.408  15.952  18.678  0.00  0.00    +0.000 C 
ATOM     23  C   UNL     1      -0.135  13.569  19.207  0.00  0.00    +0.000 C 
ATOM     24  O   UNL     1      -1.297  13.736  19.510  0.00  0.00    +0.000 OA
BRANCH  16  25
ATOM     25  O   UNL     1      -0.988  10.962  20.240  0.00  0.00    +0.000 OA
ATOM     26  H   UNL     1      -1.699  10.853  19.591  0.00  0.00    +0.000 HD
ENDBRANCH  16  25
ENDBRANCH  15  16
ENDBRANCH  12  14
ENDBRANCH  10  11
BRANCH   1  27
ATOM     27  C   UNL     1       5.830   7.746  17.409  0.00  0.00    +0.000 C 
BRANCH  27  28
ATOM     28  O   UNL     1       7.178   7.750  16.913  0.00  0.00    +0.000 OA
BRANCH  28  29
ATOM     29  C   UNL     1       8.073   8.016  17.998  0.00  0.00    +0.000 C 
BRANCH  29  30
ATOM     30  C   UNL     1       8.401   9.500  18.111  0.00  0.00    +0.000 C 
BRANCH  30  32
ATOM     31  C   UNL     1       9.431  11.052  19.570  0.00  0.00    +0.000 C 
ATOM     32  O   UNL     1       9.212   9.682  19.274  0.00  0.00    +0.000 OA
ENDBRANCH  30  32
ENDBRANCH  29  30
ENDBRANCH  28  29
ENDBRANCH  27  28
ENDBRANCH   1  27
TORSDOF 9
ENDMDL
