MODEL 1
REMARK VINA RESULT:      -7.9      0.000      0.000
REMARK  Name = 
REMARK  2 active torsions:
REMARK  status: ('A' for Active; 'I' for Inactive)
REMARK    1  A    between atoms: C_1  and  C_2
REMARK    2  A    between atoms: C_12  and  C_14
REMARK                            x       y       z     vdW  Elec       q    Type
REMARK                         _______ _______ _______ _____ _____    ______ ____
ROOT
ATOM      1  C   UNL     1       6.700   5.751  19.081  0.00  0.00    +0.000 C 
ATOM      2  C   UNL     1       5.360   5.048  19.305  0.00  0.00    +0.000 C 
ATOM      3  O   UNL     1       5.647   3.666  19.599  0.00  0.00    +0.000 OA
ATOM      4  C   UNL     1       4.611   2.845  19.906  0.00  0.00    +0.000 C 
ATOM      5  O   UNL     1       4.763   1.838  20.582  0.00  0.00    +0.000 OA
ATOM      6  C   UNL     1       3.306   3.180  19.272  0.00  0.00    +0.000 A 
ATOM      7  C   UNL     1       2.232   2.302  19.492  0.00  0.00    +0.000 A 
ATOM      8  C   UNL     1       1.014   2.496  18.840  0.00  0.00    +0.000 A 
ATOM      9  C   UNL     1       0.865   3.557  17.954  0.00  0.00    +0.000 A 
ATOM     10  C   UNL     1       1.926   4.435  17.732  0.00  0.00    +0.000 A 
ATOM     11  C   UNL     1       3.156   4.276  18.403  0.00  0.00    +0.000 A 
ATOM     12  C   UNL     1       4.334   5.220  18.146  0.00  0.00    +0.000 C 
ATOM     13 CL   UNL     1       3.690   6.929  18.342  0.00  0.00    +0.000 Cl
ENDROOT
BRANCH  12  14
ATOM     14  C   UNL     1       4.922   4.979  16.737  0.00  0.00    +0.000 A 
ATOM     15  C   UNL     1       5.312   3.710  16.269  0.00  0.00    +0.000 A 
ATOM     16  C   UNL     1       5.880   3.541  15.002  0.00  0.00    +0.000 A 
ATOM     17  C   UNL     1       6.072   4.635  14.166  0.00  0.00    +0.000 A 
ATOM     18  C   UNL     1       5.685   5.900  14.593  0.00  0.00    +0.000 A 
ATOM     19  C   UNL     1       5.116   6.068  15.859  0.00  0.00    +0.000 A 
ENDBRANCH  12  14
TORSDOF 1
ENDMDL
MODEL 2
REMARK VINA RESULT:      -7.8      0.070      1.104
REMARK  Name = 
REMARK  2 active torsions:
REMARK  status: ('A' for Active; 'I' for Inactive)
REMARK    1  A    between atoms: C_1  and  C_2
REMARK    2  A    between atoms: C_12  and  C_14
REMARK                            x       y       z     vdW  Elec       q    Type
REMARK                         _______ _______ _______ _____ _____    ______ ____
ROOT
ATOM      1  C   UNL     1       6.725   5.745  19.109  0.00  0.00    +0.000 C 
ATOM      2  C   UNL     1       5.380   5.045  19.317  0.00  0.00    +0.000 C 
ATOM      3  O   UNL     1       5.660   3.658  19.598  0.00  0.00    +0.000 OA
ATOM      4  C   UNL     1       4.619   2.839  19.889  0.00  0.00    +0.000 C 
ATOM      5  O   UNL     1       4.762   1.824  20.555  0.00  0.00    +0.000 OA
ATOM      6  C   UNL     1       3.320   3.185  19.250  0.00  0.00    +0.000 A 
ATOM      7  C   UNL     1       2.240   2.310  19.453  0.00  0.00    +0.000 A 
ATOM      8  C   UNL     1       1.028   2.515  18.795  0.00  0.00    +0.000 A 
ATOM      9  C   UNL     1       0.889   3.586  17.920  0.00  0.00    +0.000 A 
ATOM     10  C   UNL     1       1.955   4.462  17.714  0.00  0.00    +0.000 A 
ATOM     11  C   UNL     1       3.180   4.291  18.391  0.00  0.00    +0.000 A 
ATOM     12  C   UNL     1       4.363   5.234  18.152  0.00  0.00    +0.000 C 
ATOM     13 CL   UNL     1       3.725   6.943  18.362  0.00  0.00    +0.000 Cl
ENDROOT
BRANCH  12  14
ATOM     14  C   UNL     1       4.960   5.005  16.745  0.00  0.00    +0.000 A 
ATOM     15  C   UNL     1       5.146   6.039  15.807  0.00  0.00    +0.000 A 
ATOM     16  C   UNL     1       5.651   5.782  14.528  0.00  0.00    +0.000 A 
ATOM     17  C   UNL     1       5.985   4.487  14.151  0.00  0.00    +0.000 A 
ATOM     18  C   UNL     1       5.826   3.446  15.058  0.00  0.00    +0.000 A 
ATOM     19  C   UNL     1       5.323   3.703  16.337  0.00  0.00    +0.000 A 
ENDBRANCH  12  14
TORSDOF 1
ENDMDL
MODEL 3
REMARK VINA RESULT:      -6.8      2.070      2.688
REMARK  Name = 
REMARK  2 active torsions:
REMARK  status: ('A' for Active; 'I' for Inactive)
REMARK    1  A    between atoms: C_1  and  C_2
REMARK    2  A    between atoms: C_12  and  C_14
REMARK                            x       y       z     vdW  Elec       q    Type
REMARK                         _______ _______ _______ _____ _____    ______ ____
ROOT
ATOM      1  C   UNL     1       8.107   4.376  18.109  0.00  0.00    +0.000 C 
ATOM      2  C   UNL     1       6.788   5.066  18.465  0.00  0.00    +0.000 C 
ATOM      3  O   UNL     1       5.871   4.039  18.893  0.00  0.00    +0.000 OA
ATOM      4  C   UNL     1       4.643   4.415  19.331  0.00  0.00    +0.000 C 
ATOM      5  O   UNL     1       3.994   3.727  20.104  0.00  0.00    +0.000 OA
ATOM      6  C   UNL     1       4.087   5.654  18.720  0.00  0.00    +0.000 A 
ATOM      7  C   UNL     1       2.781   6.026  19.079  0.00  0.00    +0.000 A 
ATOM      8  C   UNL     1       2.158   7.111  18.463  0.00  0.00    +0.000 A 
ATOM      9  C   UNL     1       2.829   7.824  17.475  0.00  0.00    +0.000 A 
ATOM     10  C   UNL     1       4.128   7.462  17.114  0.00  0.00    +0.000 A 
ATOM     11  C   UNL     1       4.787   6.387  17.745  0.00  0.00    +0.000 A 
ATOM     12  C   UNL     1       6.203   5.969  17.338  0.00  0.00    +0.000 C 
ATOM     13 CL   UNL     1       7.232   7.489  17.376  0.00  0.00    +0.000 Cl
ENDROOT
BRANCH  12  14
ATOM     14  C   UNL     1       6.190   5.311  15.940  0.00  0.00    +0.000 A 
ATOM     15  C   UNL     1       5.187   4.419  15.514  0.00  0.00    +0.000 A 
ATOM     16  C   UNL     1       5.235   3.812  14.255  0.00  0.00    +0.000 A 
ATOM     17  C   UNL     1       6.286   4.080  13.385  0.00  0.00    +0.000 A 
ATOM     18  C   UNL     1       7.285   4.966  13.770  0.00  0.00    +0.000 A 
ATOM     19  C   UNL     1       7.236   5.575  15.028  0.00  0.00    +0.000 A 
ENDBRANCH  12  14
TORSDOF 1
ENDMDL
MODEL 4
REMARK VINA RESULT:      -6.7      2.518      3.580
REMARK  Name = 
REMARK  2 active torsions:
REMARK  status: ('A' for Active; 'I' for Inactive)
REMARK    1  A    between atoms: C_1  and  C_2
REMARK    2  A    between atoms: C_12  and  C_14
REMARK                            x       y       z     vdW  Elec       q    Type
REMARK                         _______ _______ _______ _____ _____    ______ ____
ROOT
ATOM      1  C   UNL     1       3.995   7.101  16.635  0.00  0.00    +0.000 C 
ATOM      2  C   UNL     1       3.231   6.258  17.658  0.00  0.00    +0.000 C 
ATOM      3  O   UNL     1       3.040   7.077  18.829  0.00  0.00    +0.000 OA
ATOM      4  C   UNL     1       2.320   6.568  19.859  0.00  0.00    +0.000 C 
ATOM      5  O   UNL     1       1.735   7.287  20.656  0.00  0.00    +0.000 OA
ATOM      6  C   UNL     1       2.383   5.090  20.030  0.00  0.00    +0.000 A 
ATOM      7  C   UNL     1       1.725   4.534  21.139  0.00  0.00    +0.000 A 
ATOM      8  C   UNL     1       1.836   3.173  21.419  0.00  0.00    +0.000 A 
ATOM      9  C   UNL     1       2.614   2.359  20.603  0.00  0.00    +0.000 A 
ATOM     10  C   UNL     1       3.269   2.903  19.498  0.00  0.00    +0.000 A 
ATOM     11  C   UNL     1       3.147   4.271  19.179  0.00  0.00    +0.000 A 
ATOM     12  C   UNL     1       3.883   4.881  17.981  0.00  0.00    +0.000 C 
ATOM     13 CL   UNL     1       3.490   3.826  16.530  0.00  0.00    +0.000 Cl
ENDROOT
BRANCH  12  14
ATOM     14  C   UNL     1       5.401   4.947  18.258  0.00  0.00    +0.000 A 
ATOM     15  C   UNL     1       5.952   5.515  19.423  0.00  0.00    +0.000 A 
ATOM     16  C   UNL     1       7.335   5.593  19.615  0.00  0.00    +0.000 A 
ATOM     17  C   UNL     1       8.207   5.104  18.649  0.00  0.00    +0.000 A 
ATOM     18  C   UNL     1       7.696   4.526  17.494  0.00  0.00    +0.000 A 
ATOM     19  C   UNL     1       6.313   4.446  17.303  0.00  0.00    +0.000 A 
ENDBRANCH  12  14
TORSDOF 1
ENDMDL
MODEL 5
REMARK VINA RESULT:      -6.6      2.074      2.791
REMARK  Name = 
REMARK  2 active torsions:
REMARK  status: ('A' for Active; 'I' for Inactive)
REMARK    1  A    between atoms: C_1  and  C_2
REMARK    2  A    between atoms: C_12  and  C_14
REMARK                            x       y       z     vdW  Elec       q    Type
REMARK                         _______ _______ _______ _____ _____    ______ ____
ROOT
ATOM      1  C   UNL     1       8.175   4.393  18.187  0.00  0.00    +0.000 C 
ATOM      2  C   UNL     1       6.843   5.075  18.508  0.00  0.00    +0.000 C 
ATOM      3  O   UNL     1       5.927   4.045  18.931  0.00  0.00    +0.000 OA
ATOM      4  C   UNL     1       4.687   4.415  19.339  0.00  0.00    +0.000 C 
ATOM      5  O   UNL     1       4.029   3.730  20.107  0.00  0.00    +0.000 OA
ATOM      6  C   UNL     1       4.132   5.641  18.702  0.00  0.00    +0.000 A 
ATOM      7  C   UNL     1       2.816   6.006  19.031  0.00  0.00    +0.000 A 
ATOM      8  C   UNL     1       2.196   7.078  18.389  0.00  0.00    +0.000 A 
ATOM      9  C   UNL     1       2.881   7.785  17.406  0.00  0.00    +0.000 A 
ATOM     10  C   UNL     1       4.190   7.431  17.076  0.00  0.00    +0.000 A 
ATOM     11  C   UNL     1       4.846   6.369  17.733  0.00  0.00    +0.000 A 
ATOM     12  C   UNL     1       6.273   5.959  17.359  0.00  0.00    +0.000 C 
ATOM     13 CL   UNL     1       7.288   7.489  17.400  0.00  0.00    +0.000 Cl
ENDROOT
BRANCH  12  14
ATOM     14  C   UNL     1       6.294   5.284  15.969  0.00  0.00    +0.000 A 
ATOM     15  C   UNL     1       7.306   5.510  15.015  0.00  0.00    +0.000 A 
ATOM     16  C   UNL     1       7.266   4.912  13.752  0.00  0.00    +0.000 A 
ATOM     17  C   UNL     1       6.215   4.069  13.406  0.00  0.00    +0.000 A 
ATOM     18  C   UNL     1       5.208   3.815  14.330  0.00  0.00    +0.000 A 
ATOM     19  C   UNL     1       5.249   4.412  15.594  0.00  0.00    +0.000 A 
ENDBRANCH  12  14
TORSDOF 1
ENDMDL
MODEL 6
REMARK VINA RESULT:      -6.6      2.490      3.486
REMARK  Name = 
REMARK  2 active torsions:
REMARK  status: ('A' for Active; 'I' for Inactive)
REMARK    1  A    between atoms: C_1  and  C_2
REMARK    2  A    between atoms: C_12  and  C_14
REMARK                            x       y       z     vdW  Elec       q    Type
REMARK                         _______ _______ _______ _____ _____    ______ ____
ROOT
ATOM      1  C   UNL     1       3.623   7.153  16.813  0.00  0.00    +0.000 C 
ATOM      2  C   UNL     1       2.975   6.221  17.839  0.00  0.00    +0.000 C 
ATOM      3  O   UNL     1       2.854   6.961  19.071  0.00  0.00    +0.000 OA
ATOM      4  C   UNL     1       2.239   6.363  20.123  0.00  0.00    +0.000 C 
ATOM      5  O   UNL     1       1.698   7.010  21.007  0.00  0.00    +0.000 OA
ATOM      6  C   UNL     1       2.367   4.882  20.194  0.00  0.00    +0.000 A 
ATOM      7  C   UNL     1       1.822   4.235  21.316  0.00  0.00    +0.000 A 
ATOM      8  C   UNL     1       2.002   2.864  21.501  0.00  0.00    +0.000 A 
ATOM      9  C   UNL     1       2.739   2.133  20.576  0.00  0.00    +0.000 A 
ATOM     10  C   UNL     1       3.281   2.766  19.457  0.00  0.00    +0.000 A 
ATOM     11  C   UNL     1       3.086   4.146  19.235  0.00  0.00    +0.000 A 
ATOM     12  C   UNL     1       3.698   4.853  18.023  0.00  0.00    +0.000 C 
ATOM     13 CL   UNL     1       3.224   3.872  16.545  0.00  0.00    +0.000 Cl
ENDROOT
BRANCH  12  14
ATOM     14  C   UNL     1       5.232   4.963  18.180  0.00  0.00    +0.000 A 
ATOM     15  C   UNL     1       6.143   4.527  17.198  0.00  0.00    +0.000 A 
ATOM     16  C   UNL     1       7.525   4.605  17.397  0.00  0.00    +0.000 A 
ATOM     17  C   UNL     1       8.036   5.123  18.582  0.00  0.00    +0.000 A 
ATOM     18  C   UNL     1       7.164   5.575  19.565  0.00  0.00    +0.000 A 
ATOM     19  C   UNL     1       5.782   5.498  19.365  0.00  0.00    +0.000 A 
ENDBRANCH  12  14
TORSDOF 1
ENDMDL
MODEL 7
REMARK VINA RESULT:      -6.5      2.097      4.518
REMARK  Name = 
REMARK  2 active torsions:
REMARK  status: ('A' for Active; 'I' for Inactive)
REMARK    1  A    between atoms: C_1  and  C_2
REMARK    2  A    between atoms: C_12  and  C_14
REMARK                            x       y       z     vdW  Elec       q    Type
REMARK                         _______ _______ _______ _____ _____    ______ ____
ROOT
ATOM      1  C   UNL     1       3.918   3.996  20.187  0.00  0.00    +0.000 C 
ATOM      2  C   UNL     1       4.784   3.894  18.929  0.00  0.00    +0.000 C 
ATOM      3  O   UNL     1       6.023   4.576  19.208  0.00  0.00    +0.000 OA
ATOM      4  C   UNL     1       6.992   4.563  18.258  0.00  0.00    +0.000 C 
ATOM      5  O   UNL     1       8.174   4.696  18.540  0.00  0.00    +0.000 OA
ATOM      6  C   UNL     1       6.520   4.497  16.848  0.00  0.00    +0.000 A 
ATOM      7  C   UNL     1       7.488   4.573  15.833  0.00  0.00    +0.000 A 
ATOM      8  C   UNL     1       7.107   4.628  14.493  0.00  0.00    +0.000 A 
ATOM      9  C   UNL     1       5.758   4.622  14.157  0.00  0.00    +0.000 A 
ATOM     10  C   UNL     1       4.789   4.543  15.158  0.00  0.00    +0.000 A 
ATOM     11  C   UNL     1       5.153   4.457  16.518  0.00  0.00    +0.000 A 
ATOM     12  C   UNL     1       4.096   4.396  17.625  0.00  0.00    +0.000 C 
ATOM     13 CL   UNL     1       2.930   3.053  17.165  0.00  0.00    +0.000 Cl
ENDROOT
BRANCH  12  14
ATOM     14  C   UNL     1       3.384   5.759  17.767  0.00  0.00    +0.000 A 
ATOM     15  C   UNL     1       2.036   5.892  18.155  0.00  0.00    +0.000 A 
ATOM     16  C   UNL     1       1.417   7.143  18.231  0.00  0.00    +0.000 A 
ATOM     17  C   UNL     1       2.127   8.299  17.924  0.00  0.00    +0.000 A 
ATOM     18  C   UNL     1       3.462   8.203  17.551  0.00  0.00    +0.000 A 
ATOM     19  C   UNL     1       4.082   6.952  17.477  0.00  0.00    +0.000 A 
ENDBRANCH  12  14
TORSDOF 1
ENDMDL
MODEL 8
REMARK VINA RESULT:      -6.4      2.095      4.605
REMARK  Name = 
REMARK  2 active torsions:
REMARK  status: ('A' for Active; 'I' for Inactive)
REMARK    1  A    between atoms: C_1  and  C_2
REMARK    2  A    between atoms: C_12  and  C_14
REMARK                            x       y       z     vdW  Elec       q    Type
REMARK                         _______ _______ _______ _____ _____    ______ ____
ROOT
ATOM      1  C   UNL     1       3.929   3.970  20.071  0.00  0.00    +0.000 C 
ATOM      2  C   UNL     1       4.781   3.862  18.805  0.00  0.00    +0.000 C 
ATOM      3  O   UNL     1       6.033   4.526  19.075  0.00  0.00    +0.000 OA
ATOM      4  C   UNL     1       6.992   4.503  18.117  0.00  0.00    +0.000 C 
ATOM      5  O   UNL     1       8.178   4.618  18.387  0.00  0.00    +0.000 OA
ATOM      6  C   UNL     1       6.506   4.450  16.711  0.00  0.00    +0.000 A 
ATOM      7  C   UNL     1       7.466   4.517  15.687  0.00  0.00    +0.000 A 
ATOM      8  C   UNL     1       7.073   4.584  14.351  0.00  0.00    +0.000 A 
ATOM      9  C   UNL     1       5.721   4.597  14.027  0.00  0.00    +0.000 A 
ATOM     10  C   UNL     1       4.761   4.528  15.037  0.00  0.00    +0.000 A 
ATOM     11  C   UNL     1       5.136   4.430  16.393  0.00  0.00    +0.000 A 
ATOM     12  C   UNL     1       4.089   4.379  17.509  0.00  0.00    +0.000 C 
ATOM     13 CL   UNL     1       2.900   3.054  17.055  0.00  0.00    +0.000 Cl
ENDROOT
BRANCH  12  14
ATOM     14  C   UNL     1       3.397   5.752  17.664  0.00  0.00    +0.000 A 
ATOM     15  C   UNL     1       4.046   6.977  17.418  0.00  0.00    +0.000 A 
ATOM     16  C   UNL     1       3.396   8.200  17.611  0.00  0.00    +0.000 A 
ATOM     17  C   UNL     1       2.078   8.234  18.054  0.00  0.00    +0.000 A 
ATOM     18  C   UNL     1       1.405   7.042  18.292  0.00  0.00    +0.000 A 
ATOM     19  C   UNL     1       2.054   5.819  18.097  0.00  0.00    +0.000 A 
ENDBRANCH  12  14
TORSDOF 1
ENDMDL
MODEL 9
REMARK VINA RESULT:      -6.2      1.976      5.290
REMARK  Name = 
REMARK  2 active torsions:
REMARK  status: ('A' for Active; 'I' for Inactive)
REMARK    1  A    between atoms: C_1  and  C_2
REMARK    2  A    between atoms: C_12  and  C_14
REMARK                            x       y       z     vdW  Elec       q    Type
REMARK                         _______ _______ _______ _____ _____    ______ ____
ROOT
ATOM      1  C   UNL     1       1.606   4.479  17.351  0.00  0.00    +0.000 C 
ATOM      2  C   UNL     1       3.103   4.791  17.307  0.00  0.00    +0.000 C 
ATOM      3  O   UNL     1       3.746   3.700  16.617  0.00  0.00    +0.000 OA
ATOM      4  C   UNL     1       5.081   3.781  16.389  0.00  0.00    +0.000 C 
ATOM      5  O   UNL     1       5.617   3.181  15.469  0.00  0.00    +0.000 OA
ATOM      6  C   UNL     1       5.868   4.546  17.395  0.00  0.00    +0.000 A 
ATOM      7  C   UNL     1       7.264   4.576  17.244  0.00  0.00    +0.000 A 
ATOM      8  C   UNL     1       8.068   5.180  18.210  0.00  0.00    +0.000 A 
ATOM      9  C   UNL     1       7.487   5.746  19.339  0.00  0.00    +0.000 A 
ATOM     10  C   UNL     1       6.101   5.724  19.496  0.00  0.00    +0.000 A 
ATOM     11  C   UNL     1       5.266   5.144  18.517  0.00  0.00    +0.000 A 
ATOM     12  C   UNL     1       3.746   5.094  18.694  0.00  0.00    +0.000 C 
ATOM     13 CL   UNL     1       3.205   6.802  19.096  0.00  0.00    +0.000 Cl
ENDROOT
BRANCH  12  14
ATOM     14  C   UNL     1       3.364   4.087  19.802  0.00  0.00    +0.000 A 
ATOM     15  C   UNL     1       3.986   2.833  19.956  0.00  0.00    +0.000 A 
ATOM     16  C   UNL     1       3.582   1.933  20.948  0.00  0.00    +0.000 A 
ATOM     17  C   UNL     1       2.546   2.262  21.815  0.00  0.00    +0.000 A 
ATOM     18  C   UNL     1       1.921   3.498  21.698  0.00  0.00    +0.000 A 
ATOM     19  C   UNL     1       2.326   4.398  20.708  0.00  0.00    +0.000 A 
ENDBRANCH  12  14
TORSDOF 1
ENDMDL
