MODEL 1
REMARK VINA RESULT:      -5.4      0.000      0.000
REMARK  Name = 
REMARK  7 active torsions:
REMARK  status: ('A' for Active; 'I' for Inactive)
REMARK    1  A    between atoms: C_1  and  C_2
REMARK    2  A    between atoms: C_2  and  O_4
REMARK    3  A    between atoms: O_4  and  C_5
REMARK    4  A    between atoms: C_5  and  C_6
REMARK    5  A    between atoms: C_6  and  S_7
REMARK    6  A    between atoms: S_7  and  C_8
REMARK    7  A    between atoms: C_8  and  N_10
REMARK                            x       y       z     vdW  Elec       q    Type
REMARK                         _______ _______ _______ _____ _____    ______ ____
ROOT
ATOM      1  S   UNL     1       3.297   3.693  17.106  0.00  0.00    +0.000 S 
ENDROOT
BRANCH   1   2
ATOM      2  C   UNL     1       4.847   4.500  17.485  0.00  0.00    +0.000 C 
ATOM      3  S   UNL     1       5.174   4.890  19.102  0.00  0.00    +0.000 S 
BRANCH   2   4
ATOM      4  N   UNL     1       5.759   4.705  16.416  0.00  0.00    +0.000 N 
ATOM      5  C   UNL     1       5.722   4.166  15.138  0.00  0.00    +0.000 A 
ATOM      6  C   UNL     1       6.825   4.656  14.477  0.00  0.00    +0.000 A 
ATOM      7  N   UNL     1       7.546   5.480  15.288  0.00  0.00    +0.000 NA
ATOM      8  C   UNL     1       6.898   5.492  16.430  0.00  0.00    +0.000 A 
ENDBRANCH   2   4
ENDBRANCH   1   2
BRANCH   1   9
ATOM      9  C   UNL     1       3.488   2.129  18.032  0.00  0.00    +0.000 C 
BRANCH   9  10
ATOM     10  C   UNL     1       2.359   1.967  19.054  0.00  0.00    +0.000 C 
BRANCH  10  11
ATOM     11  O   UNL     1       2.751   2.416  20.364  0.00  0.00    +0.000 OA
BRANCH  11  13
ATOM     12  C   UNL     1       0.993   3.963  20.386  0.00  0.00    +0.000 C 
ATOM     13  C   UNL     1       1.752   2.913  21.138  0.00  0.00    +0.000 C 
ATOM     14  O   UNL     1       1.518   2.579  22.291  0.00  0.00    +0.000 OA
ENDBRANCH  11  13
ENDBRANCH  10  11
ENDBRANCH   9  10
ENDBRANCH   1   9
TORSDOF 6
ENDMDL
MODEL 2
REMARK VINA RESULT:      -5.2      1.355      1.938
REMARK  Name = 
REMARK  7 active torsions:
REMARK  status: ('A' for Active; 'I' for Inactive)
REMARK    1  A    between atoms: C_1  and  C_2
REMARK    2  A    between atoms: C_2  and  O_4
REMARK    3  A    between atoms: O_4  and  C_5
REMARK    4  A    between atoms: C_5  and  C_6
REMARK    5  A    between atoms: C_6  and  S_7
REMARK    6  A    between atoms: S_7  and  C_8
REMARK    7  A    between atoms: C_8  and  N_10
REMARK                            x       y       z     vdW  Elec       q    Type
REMARK                         _______ _______ _______ _____ _____    ______ ____
ROOT
ATOM      1  S   UNL     1       4.231   6.052  17.965  0.00  0.00    +0.000 S 
ENDROOT
BRANCH   1   2
ATOM      2  C   UNL     1       4.717   4.584  17.066  0.00  0.00    +0.000 C 
ATOM      3  S   UNL     1       3.937   3.124  17.434  0.00  0.00    +0.000 S 
BRANCH   2   4
ATOM      4  N   UNL     1       5.683   4.735  16.036  0.00  0.00    +0.000 N 
ATOM      5  C   UNL     1       5.633   4.263  14.733  0.00  0.00    +0.000 A 
ATOM      6  C   UNL     1       6.806   4.655  14.131  0.00  0.00    +0.000 A 
ATOM      7  N   UNL     1       7.585   5.355  15.003  0.00  0.00    +0.000 NA
ATOM      8  C   UNL     1       6.901   5.387  16.125  0.00  0.00    +0.000 A 
ENDBRANCH   2   4
ENDBRANCH   1   2
BRANCH   1   9
ATOM      9  C   UNL     1       3.906   5.349  19.620  0.00  0.00    +0.000 C 
BRANCH   9  10
ATOM     10  C   UNL     1       2.442   5.560  20.017  0.00  0.00    +0.000 C 
BRANCH  10  11
ATOM     11  O   UNL     1       2.144   4.983  21.301  0.00  0.00    +0.000 OA
BRANCH  11  13
ATOM     12  C   UNL     1       0.949   3.230  20.308  0.00  0.00    +0.000 C 
ATOM     13  C   UNL     1       1.981   3.634  21.315  0.00  0.00    +0.000 C 
ATOM     14  O   UNL     1       2.567   2.859  22.058  0.00  0.00    +0.000 OA
ENDBRANCH  11  13
ENDBRANCH  10  11
ENDBRANCH   9  10
ENDBRANCH   1   9
TORSDOF 6
ENDMDL
MODEL 3
REMARK VINA RESULT:      -5.2      0.940      1.158
REMARK  Name = 
REMARK  7 active torsions:
REMARK  status: ('A' for Active; 'I' for Inactive)
REMARK    1  A    between atoms: C_1  and  C_2
REMARK    2  A    between atoms: C_2  and  O_4
REMARK    3  A    between atoms: O_4  and  C_5
REMARK    4  A    between atoms: C_5  and  C_6
REMARK    5  A    between atoms: C_6  and  S_7
REMARK    6  A    between atoms: S_7  and  C_8
REMARK    7  A    between atoms: C_8  and  N_10
REMARK                            x       y       z     vdW  Elec       q    Type
REMARK                         _______ _______ _______ _____ _____    ______ ____
ROOT
ATOM      1  S   UNL     1       4.900   4.229  19.119  0.00  0.00    +0.000 S 
ENDROOT
BRANCH   1   2
ATOM      2  C   UNL     1       4.741   5.308  17.701  0.00  0.00    +0.000 C 
ATOM      3  S   UNL     1       3.608   6.568  17.776  0.00  0.00    +0.000 S 
BRANCH   2   4
ATOM      4  N   UNL     1       5.627   5.096  16.612  0.00  0.00    +0.000 N 
ATOM      5  C   UNL     1       5.472   4.243  15.530  0.00  0.00    +0.000 A 
ATOM      6  C   UNL     1       6.600   4.387  14.755  0.00  0.00    +0.000 A 
ATOM      7  N   UNL     1       7.451   5.296  15.308  0.00  0.00    +0.000 NA
ATOM      8  C   UNL     1       6.856   5.701  16.407  0.00  0.00    +0.000 A 
ENDBRANCH   2   4
ENDBRANCH   1   2
BRANCH   1   9
ATOM      9  C   UNL     1       3.930   2.784  18.560  0.00  0.00    +0.000 C 
BRANCH   9  10
ATOM     10  C   UNL     1       2.433   3.026  18.771  0.00  0.00    +0.000 C 
BRANCH  10  11
ATOM     11  O   UNL     1       1.911   2.245  19.861  0.00  0.00    +0.000 OA
BRANCH  11  13
ATOM     12  C   UNL     1       1.117   4.332  20.567  0.00  0.00    +0.000 C 
ATOM     13  C   UNL     1       1.534   2.949  20.960  0.00  0.00    +0.000 C 
ATOM     14  O   UNL     1       1.555   2.530  22.109  0.00  0.00    +0.000 OA
ENDBRANCH  11  13
ENDBRANCH  10  11
ENDBRANCH   9  10
ENDBRANCH   1   9
TORSDOF 6
ENDMDL
MODEL 4
REMARK VINA RESULT:      -5.1      1.242      1.275
REMARK  Name = 
REMARK  7 active torsions:
REMARK  status: ('A' for Active; 'I' for Inactive)
REMARK    1  A    between atoms: C_1  and  C_2
REMARK    2  A    between atoms: C_2  and  O_4
REMARK    3  A    between atoms: O_4  and  C_5
REMARK    4  A    between atoms: C_5  and  C_6
REMARK    5  A    between atoms: C_6  and  S_7
REMARK    6  A    between atoms: S_7  and  C_8
REMARK    7  A    between atoms: C_8  and  N_10
REMARK                            x       y       z     vdW  Elec       q    Type
REMARK                         _______ _______ _______ _____ _____    ______ ____
ROOT
ATOM      1  S   UNL     1       2.844   3.761  17.311  0.00  0.00    +0.000 S 
ENDROOT
BRANCH   1   2
ATOM      2  C   UNL     1       3.999   5.124  17.230  0.00  0.00    +0.000 C 
ATOM      3  S   UNL     1       3.576   6.579  17.989  0.00  0.00    +0.000 S 
BRANCH   2   4
ATOM      4  N   UNL     1       5.247   4.890  16.593  0.00  0.00    +0.000 N 
ATOM      5  C   UNL     1       5.487   4.545  15.271  0.00  0.00    +0.000 A 
ATOM      6  C   UNL     1       6.851   4.420  15.143  0.00  0.00    +0.000 A 
ATOM      7  N   UNL     1       7.472   4.676  16.328  0.00  0.00    +0.000 NA
ATOM      8  C   UNL     1       6.503   4.950  17.172  0.00  0.00    +0.000 A 
ENDBRANCH   2   4
ENDBRANCH   1   2
BRANCH   1   9
ATOM      9  C   UNL     1       3.812   2.548  18.277  0.00  0.00    +0.000 C 
BRANCH   9  10
ATOM     10  C   UNL     1       4.246   3.150  19.617  0.00  0.00    +0.000 C 
BRANCH  10  11
ATOM     11  O   UNL     1       3.159   3.817  20.283  0.00  0.00    +0.000 OA
BRANCH  11  13
ATOM     12  C   UNL     1       0.967   3.128  20.739  0.00  0.00    +0.000 C 
ATOM     13  C   UNL     1       2.414   3.042  21.114  0.00  0.00    +0.000 C 
ATOM     14  O   UNL     1       2.851   2.388  22.050  0.00  0.00    +0.000 OA
ENDBRANCH  11  13
ENDBRANCH  10  11
ENDBRANCH   9  10
ENDBRANCH   1   9
TORSDOF 6
ENDMDL
MODEL 5
REMARK VINA RESULT:      -5.0      1.669      2.159
REMARK  Name = 
REMARK  7 active torsions:
REMARK  status: ('A' for Active; 'I' for Inactive)
REMARK    1  A    between atoms: C_1  and  C_2
REMARK    2  A    between atoms: C_2  and  O_4
REMARK    3  A    between atoms: O_4  and  C_5
REMARK    4  A    between atoms: C_5  and  C_6
REMARK    5  A    between atoms: C_6  and  S_7
REMARK    6  A    between atoms: S_7  and  C_8
REMARK    7  A    between atoms: C_8  and  N_10
REMARK                            x       y       z     vdW  Elec       q    Type
REMARK                         _______ _______ _______ _____ _____    ______ ____
ROOT
ATOM      1  S   UNL     1       3.213   3.658  17.242  0.00  0.00    +0.000 S 
ENDROOT
BRANCH   1   2
ATOM      2  C   UNL     1       4.103   5.111  17.784  0.00  0.00    +0.000 C 
ATOM      3  S   UNL     1       3.208   6.450  18.312  0.00  0.00    +0.000 S 
BRANCH   2   4
ATOM      4  N   UNL     1       5.521   5.038  17.812  0.00  0.00    +0.000 N 
ATOM      5  C   UNL     1       6.390   5.536  18.773  0.00  0.00    +0.000 A 
ATOM      6  C   UNL     1       7.661   5.225  18.348  0.00  0.00    +0.000 A 
ATOM      7  N   UNL     1       7.622   4.551  17.164  0.00  0.00    +0.000 NA
ATOM      8  C   UNL     1       6.346   4.455  16.865  0.00  0.00    +0.000 A 
ENDBRANCH   2   4
ENDBRANCH   1   2
BRANCH   1   9
ATOM      9  C   UNL     1       3.373   2.587  18.714  0.00  0.00    +0.000 C 
BRANCH   9  10
ATOM     10  C   UNL     1       2.023   1.961  19.075  0.00  0.00    +0.000 C 
BRANCH  10  11
ATOM     11  O   UNL     1       1.028   2.961  19.362  0.00  0.00    +0.000 OA
BRANCH  11  13
ATOM     12  C   UNL     1       1.490   2.670  21.640  0.00  0.00    +0.000 C 
ATOM     13  C   UNL     1       1.190   3.632  20.532  0.00  0.00    +0.000 C 
ATOM     14  O   UNL     1       1.081   4.842  20.674  0.00  0.00    +0.000 OA
ENDBRANCH  11  13
ENDBRANCH  10  11
ENDBRANCH   9  10
ENDBRANCH   1   9
TORSDOF 6
ENDMDL
MODEL 6
REMARK VINA RESULT:      -5.0      4.009      6.524
REMARK  Name = 
REMARK  7 active torsions:
REMARK  status: ('A' for Active; 'I' for Inactive)
REMARK    1  A    between atoms: C_1  and  C_2
REMARK    2  A    between atoms: C_2  and  O_4
REMARK    3  A    between atoms: O_4  and  C_5
REMARK    4  A    between atoms: C_5  and  C_6
REMARK    5  A    between atoms: C_6  and  S_7
REMARK    6  A    between atoms: S_7  and  C_8
REMARK    7  A    between atoms: C_8  and  N_10
REMARK                            x       y       z     vdW  Elec       q    Type
REMARK                         _______ _______ _______ _____ _____    ______ ____
ROOT
ATOM      1  S   UNL     1       4.790   4.686  18.229  0.00  0.00    +0.000 S 
ENDROOT
BRANCH   1   2
ATOM      2  C   UNL     1       3.425   5.106  19.306  0.00  0.00    +0.000 C 
ATOM      3  S   UNL     1       2.641   6.590  19.065  0.00  0.00    +0.000 S 
BRANCH   2   4
ATOM      4  N   UNL     1       3.023   4.138  20.264  0.00  0.00    +0.000 N 
ATOM      5  C   UNL     1       3.411   2.810  20.361  0.00  0.00    +0.000 A 
ATOM      6  C   UNL     1       2.743   2.287  21.443  0.00  0.00    +0.000 A 
ATOM      7  N   UNL     1       1.957   3.234  22.028  0.00  0.00    +0.000 NA
ATOM      8  C   UNL     1       2.137   4.320  21.312  0.00  0.00    +0.000 A 
ENDBRANCH   2   4
ENDBRANCH   1   2
BRANCH   1   9
ATOM      9  C   UNL     1       5.129   6.307  17.456  0.00  0.00    +0.000 C 
BRANCH   9  10
ATOM     10  C   UNL     1       5.099   6.192  15.929  0.00  0.00    +0.000 C 
BRANCH  10  11
ATOM     11  O   UNL     1       6.423   6.104  15.371  0.00  0.00    +0.000 OA
BRANCH  11  13
ATOM     12  C   UNL     1       6.330   4.005  14.334  0.00  0.00    +0.000 C 
ATOM     13  C   UNL     1       6.980   4.865  15.374  0.00  0.00    +0.000 C 
ATOM     14  O   UNL     1       7.863   4.490  16.132  0.00  0.00    +0.000 OA
ENDBRANCH  11  13
ENDBRANCH  10  11
ENDBRANCH   9  10
ENDBRANCH   1   9
TORSDOF 6
ENDMDL
MODEL 7
REMARK VINA RESULT:      -5.0      3.770      6.109
REMARK  Name = 
REMARK  7 active torsions:
REMARK  status: ('A' for Active; 'I' for Inactive)
REMARK    1  A    between atoms: C_1  and  C_2
REMARK    2  A    between atoms: C_2  and  O_4
REMARK    3  A    between atoms: O_4  and  C_5
REMARK    4  A    between atoms: C_5  and  C_6
REMARK    5  A    between atoms: C_6  and  S_7
REMARK    6  A    between atoms: S_7  and  C_8
REMARK    7  A    between atoms: C_8  and  N_10
REMARK                            x       y       z     vdW  Elec       q    Type
REMARK                         _______ _______ _______ _____ _____    ______ ____
ROOT
ATOM      1  S   UNL     1       4.484   6.312  17.392  0.00  0.00    +0.000 S 
ENDROOT
BRANCH   1   2
ATOM      2  C   UNL     1       3.242   5.682  18.514  0.00  0.00    +0.000 C 
ATOM      3  S   UNL     1       2.410   6.789  19.493  0.00  0.00    +0.000 S 
BRANCH   2   4
ATOM      4  N   UNL     1       2.967   4.289  18.474  0.00  0.00    +0.000 N 
ATOM      5  C   UNL     1       2.556   3.524  17.392  0.00  0.00    +0.000 A 
ATOM      6  C   UNL     1       2.414   2.237  17.857  0.00  0.00    +0.000 A 
ATOM      7  N   UNL     1       2.721   2.167  19.182  0.00  0.00    +0.000 NA
ATOM      8  C   UNL     1       3.043   3.393  19.527  0.00  0.00    +0.000 A 
ENDBRANCH   2   4
ENDBRANCH   1   2
BRANCH   1   9
ATOM      9  C   UNL     1       5.898   5.229  17.802  0.00  0.00    +0.000 C 
BRANCH   9  10
ATOM     10  C   UNL     1       7.134   5.626  16.989  0.00  0.00    +0.000 C 
BRANCH  10  11
ATOM     11  O   UNL     1       7.520   4.596  16.061  0.00  0.00    +0.000 OA
BRANCH  11  13
ATOM     12  C   UNL     1       6.036   3.985  14.354  0.00  0.00    +0.000 C 
ATOM     13  C   UNL     1       7.205   4.829  14.760  0.00  0.00    +0.000 C 
ATOM     14  O   UNL     1       7.802   5.593  14.015  0.00  0.00    +0.000 OA
ENDBRANCH  11  13
ENDBRANCH  10  11
ENDBRANCH   9  10
ENDBRANCH   1   9
TORSDOF 6
ENDMDL
MODEL 8
REMARK VINA RESULT:      -5.0      1.739      2.277
REMARK  Name = 
REMARK  7 active torsions:
REMARK  status: ('A' for Active; 'I' for Inactive)
REMARK    1  A    between atoms: C_1  and  C_2
REMARK    2  A    between atoms: C_2  and  O_4
REMARK    3  A    between atoms: O_4  and  C_5
REMARK    4  A    between atoms: C_5  and  C_6
REMARK    5  A    between atoms: C_6  and  S_7
REMARK    6  A    between atoms: S_7  and  C_8
REMARK    7  A    between atoms: C_8  and  N_10
REMARK                            x       y       z     vdW  Elec       q    Type
REMARK                         _______ _______ _______ _____ _____    ______ ____
ROOT
ATOM      1  S   UNL     1       5.369   4.847  19.184  0.00  0.00    +0.000 S 
ENDROOT
BRANCH   1   2
ATOM      2  C   UNL     1       4.971   5.648  17.635  0.00  0.00    +0.000 C 
ATOM      3  S   UNL     1       3.773   6.847  17.637  0.00  0.00    +0.000 S 
BRANCH   2   4
ATOM      4  N   UNL     1       5.735   5.286  16.493  0.00  0.00    +0.000 N 
ATOM      5  C   UNL     1       5.359   4.486  15.424  0.00  0.00    +0.000 A 
ATOM      6  C   UNL     1       6.444   4.426  14.582  0.00  0.00    +0.000 A 
ATOM      7  N   UNL     1       7.481   5.157  15.079  0.00  0.00    +0.000 NA
ATOM      8  C   UNL     1       7.039   5.655  16.211  0.00  0.00    +0.000 A 
ENDBRANCH   2   4
ENDBRANCH   1   2
BRANCH   1   9
ATOM      9  C   UNL     1       4.251   3.403  19.120  0.00  0.00    +0.000 C 
BRANCH   9  10
ATOM     10  C   UNL     1       3.098   3.571  20.114  0.00  0.00    +0.000 C 
BRANCH  10  11
ATOM     11  O   UNL     1       1.981   4.264  19.527  0.00  0.00    +0.000 OA
BRANCH  11  13
ATOM     12  C   UNL     1       0.814   2.343  18.867  0.00  0.00    +0.000 C 
ATOM     13  C   UNL     1       1.409   3.654  18.456  0.00  0.00    +0.000 C 
ATOM     14  O   UNL     1       1.401   4.093  17.314  0.00  0.00    +0.000 OA
ENDBRANCH  11  13
ENDBRANCH  10  11
ENDBRANCH   9  10
ENDBRANCH   1   9
TORSDOF 6
ENDMDL
MODEL 9
REMARK VINA RESULT:      -4.9      1.672      2.107
REMARK  Name = 
REMARK  7 active torsions:
REMARK  status: ('A' for Active; 'I' for Inactive)
REMARK    1  A    between atoms: C_1  and  C_2
REMARK    2  A    between atoms: C_2  and  O_4
REMARK    3  A    between atoms: O_4  and  C_5
REMARK    4  A    between atoms: C_5  and  C_6
REMARK    5  A    between atoms: C_6  and  S_7
REMARK    6  A    between atoms: S_7  and  C_8
REMARK    7  A    between atoms: C_8  and  N_10
REMARK                            x       y       z     vdW  Elec       q    Type
REMARK                         _______ _______ _______ _____ _____    ______ ____
ROOT
ATOM      1  S   UNL     1       4.828   5.141  19.314  0.00  0.00    +0.000 S 
ENDROOT
BRANCH   1   2
ATOM      2  C   UNL     1       6.303   5.410  18.338  0.00  0.00    +0.000 C 
ATOM      3  S   UNL     1       7.728   5.850  19.143  0.00  0.00    +0.000 S 
BRANCH   2   4
ATOM      4  N   UNL     1       6.218   5.169  16.941  0.00  0.00    +0.000 N 
ATOM      5  C   UNL     1       5.294   5.669  16.035  0.00  0.00    +0.000 A 
ATOM      6  C   UNL     1       5.623   5.139  14.809  0.00  0.00    +0.000 A 
ATOM      7  N   UNL     1       6.716   4.331  14.911  0.00  0.00    +0.000 NA
ATOM      8  C   UNL     1       7.049   4.362  16.182  0.00  0.00    +0.000 A 
ENDBRANCH   2   4
ENDBRANCH   1   2
BRANCH   1   9
ATOM      9  C   UNL     1       4.542   3.360  19.019  0.00  0.00    +0.000 C 
BRANCH   9  10
ATOM     10  C   UNL     1       3.569   2.792  20.057  0.00  0.00    +0.000 C 
BRANCH  10  11
ATOM     11  O   UNL     1       2.383   2.254  19.443  0.00  0.00    +0.000 OA
BRANCH  11  13
ATOM     12  C   UNL     1       0.932   3.918  20.225  0.00  0.00    +0.000 C 
ATOM     13  C   UNL     1       1.463   3.170  19.042  0.00  0.00    +0.000 C 
ATOM     14  O   UNL     1       1.097   3.344  17.889  0.00  0.00    +0.000 OA
ENDBRANCH  11  13
ENDBRANCH  10  11
ENDBRANCH   9  10
ENDBRANCH   1   9
TORSDOF 6
ENDMDL
