MODEL 1
REMARK VINA RESULT:      -8.2      0.000      0.000
REMARK  Name = 
REMARK  6 active torsions:
REMARK  status: ('A' for Active; 'I' for Inactive)
REMARK    1  A    between atoms: C_1  and  C_2
REMARK    2  A    between atoms: C_2  and  C_3
REMARK    3  A    between atoms: C_8  and  N_9
REMARK    4  A    between atoms: N_9  and  C_10
REMARK    5  A    between atoms: C_10  and  C_11
REMARK    6  A    between atoms: C_15  and  C_16
REMARK                            x       y       z     vdW  Elec       q    Type
REMARK                         _______ _______ _______ _____ _____    ______ ____
ROOT
ATOM      1  N   UNL     1       5.295   3.208  19.025  0.00  0.00    +0.000 N 
ATOM      2  H   UNL     1       5.783   2.434  19.460  0.00  0.00    +0.000 HD
ENDROOT
BRANCH   1  10
ATOM      3  C   UNL     1       1.274   2.553  21.919  0.00  0.00    +0.000 C 
ATOM      4  C   UNL     1       1.914   3.294  20.732  0.00  0.00    +0.000 C 
ATOM      5  C   UNL     1       2.047   4.783  21.118  0.00  0.00    +0.000 C 
ATOM      6  C   UNL     1       0.996   3.130  19.510  0.00  0.00    +0.000 C 
ATOM      7  C   UNL     1       1.630   3.606  18.229  0.00  0.00    +0.000 C 
ATOM      8  O   UNL     1       0.961   3.954  17.262  0.00  0.00    +0.000 OA
ATOM      9  C   UNL     1       3.105   3.597  18.126  0.00  0.00    +0.000 C 
ATOM     10  C   UNL     1       3.903   3.188  19.118  0.00  0.00    +0.000 C 
ATOM     11  C   UNL     1       3.309   2.692  20.428  0.00  0.00    +0.000 C 
ENDBRANCH   1  10
BRANCH   1  12
ATOM     12  C   UNL     1       6.078   4.437  18.919  0.00  0.00    +0.000 C 
BRANCH  12  13
ATOM     13  C   UNL     1       5.909   5.119  17.585  0.00  0.00    +0.000 A 
ATOM     14  C   UNL     1       5.351   6.408  17.526  0.00  0.00    +0.000 A 
ATOM     15  C   UNL     1       5.034   6.984  16.297  0.00  0.00    +0.000 A 
ATOM     16  C   UNL     1       5.261   6.279  15.117  0.00  0.00    +0.000 A 
ATOM     17  C   UNL     1       5.830   4.995  15.150  0.00  0.00    +0.000 A 
ATOM     18  C   UNL     1       6.160   4.435  16.389  0.00  0.00    +0.000 A 
BRANCH  17  19
ATOM     19  C   UNL     1       6.049   4.224  13.873  0.00  0.00    +0.000 C 
ATOM     20  F   UNL     1       6.458   2.943  14.090  0.00  0.00    +0.000 F 
ATOM     21  F   UNL     1       4.922   4.131  13.115  0.00  0.00    +0.000 F 
ATOM     22  F   UNL     1       6.997   4.782  13.071  0.00  0.00    +0.000 F 
ENDBRANCH  17  19
ENDBRANCH  12  13
ENDBRANCH   1  12
TORSDOF 4
ENDMDL
MODEL 2
REMARK VINA RESULT:      -8.1      5.910      8.452
REMARK  Name = 
REMARK  6 active torsions:
REMARK  status: ('A' for Active; 'I' for Inactive)
REMARK    1  A    between atoms: C_1  and  C_2
REMARK    2  A    between atoms: C_2  and  C_3
REMARK    3  A    between atoms: C_8  and  N_9
REMARK    4  A    between atoms: N_9  and  C_10
REMARK    5  A    between atoms: C_10  and  C_11
REMARK    6  A    between atoms: C_15  and  C_16
REMARK                            x       y       z     vdW  Elec       q    Type
REMARK                         _______ _______ _______ _____ _____    ______ ____
ROOT
ATOM      1  N   UNL     1       8.898   9.158  18.969  0.00  0.00    +0.000 N 
ATOM      2  H   UNL     1       9.437   8.370  19.310  0.00  0.00    +0.000 HD
ENDROOT
BRANCH   1  10
ATOM      3  C   UNL     1      10.961  13.275  17.029  0.00  0.00    +0.000 C 
ATOM      4  C   UNL     1      10.060  12.660  18.115  0.00  0.00    +0.000 C 
ATOM      5  C   UNL     1       8.623  13.179  17.890  0.00  0.00    +0.000 C 
ATOM      6  C   UNL     1      10.591  13.106  19.488  0.00  0.00    +0.000 C 
ATOM      7  C   UNL     1       9.940  12.376  20.634  0.00  0.00    +0.000 C 
ATOM      8  O   UNL     1       9.896  12.849  21.765  0.00  0.00    +0.000 OA
ATOM      9  C   UNL     1       9.391  11.026  20.391  0.00  0.00    +0.000 C 
ATOM     10  C   UNL     1       9.442  10.421  19.199  0.00  0.00    +0.000 C 
ATOM     11  C   UNL     1      10.095  11.115  18.012  0.00  0.00    +0.000 C 
ENDBRANCH   1  10
BRANCH   1  12
ATOM     12  C   UNL     1       8.021   8.850  17.842  0.00  0.00    +0.000 C 
BRANCH  12  13
ATOM     13  C   UNL     1       7.669   7.385  17.764  0.00  0.00    +0.000 A 
ATOM     14  C   UNL     1       7.999   6.530  18.831  0.00  0.00    +0.000 A 
ATOM     15  C   UNL     1       7.833   5.152  18.706  0.00  0.00    +0.000 A 
ATOM     16  C   UNL     1       7.347   4.612  17.518  0.00  0.00    +0.000 A 
ATOM     17  C   UNL     1       6.998   5.447  16.443  0.00  0.00    +0.000 A 
ATOM     18  C   UNL     1       7.153   6.831  16.586  0.00  0.00    +0.000 A 
BRANCH  17  19
ATOM     19  C   UNL     1       6.500   4.858  15.148  0.00  0.00    +0.000 C 
ATOM     20  F   UNL     1       5.299   5.369  14.760  0.00  0.00    +0.000 F 
ATOM     21  F   UNL     1       7.351   5.075  14.109  0.00  0.00    +0.000 F 
ATOM     22  F   UNL     1       6.322   3.509  15.213  0.00  0.00    +0.000 F 
ENDBRANCH  17  19
ENDBRANCH  12  13
ENDBRANCH   1  12
TORSDOF 4
ENDMDL
MODEL 3
REMARK VINA RESULT:      -8.0      3.996      6.353
REMARK  Name = 
REMARK  6 active torsions:
REMARK  status: ('A' for Active; 'I' for Inactive)
REMARK    1  A    between atoms: C_1  and  C_2
REMARK    2  A    between atoms: C_2  and  C_3
REMARK    3  A    between atoms: C_8  and  N_9
REMARK    4  A    between atoms: N_9  and  C_10
REMARK    5  A    between atoms: C_10  and  C_11
REMARK    6  A    between atoms: C_15  and  C_16
REMARK                            x       y       z     vdW  Elec       q    Type
REMARK                         _______ _______ _______ _____ _____    ______ ____
ROOT
ATOM      1  N   UNL     1       3.636   7.094  17.143  0.00  0.00    +0.000 N 
ATOM      2  H   UNL     1       3.648   8.013  16.713  0.00  0.00    +0.000 HD
ENDROOT
BRANCH   1  10
ATOM      3  C   UNL     1       7.970   5.704  19.206  0.00  0.00    +0.000 C 
ATOM      4  C   UNL     1       6.770   5.323  18.321  0.00  0.00    +0.000 C 
ATOM      5  C   UNL     1       5.979   4.212  19.044  0.00  0.00    +0.000 C 
ATOM      6  C   UNL     1       7.310   4.816  16.973  0.00  0.00    +0.000 C 
ATOM      7  C   UNL     1       6.231   4.639  15.936  0.00  0.00    +0.000 C 
ATOM      8  O   UNL     1       6.361   3.876  14.985  0.00  0.00    +0.000 OA
ATOM      9  C   UNL     1       5.005   5.457  16.047  0.00  0.00    +0.000 C 
ATOM     10  C   UNL     1       4.807   6.345  17.028  0.00  0.00    +0.000 C 
ATOM     11  C   UNL     1       5.870   6.563  18.094  0.00  0.00    +0.000 C 
ENDBRANCH   1  10
BRANCH   1  12
ATOM     12  C   UNL     1       2.696   6.957  18.253  0.00  0.00    +0.000 C 
BRANCH  12  13
ATOM     13  C   UNL     1       2.361   5.518  18.555  0.00  0.00    +0.000 A 
ATOM     14  C   UNL     1       1.738   4.726  17.574  0.00  0.00    +0.000 A 
ATOM     15  C   UNL     1       1.272   3.451  17.889  0.00  0.00    +0.000 A 
ATOM     16  C   UNL     1       1.411   2.957  19.184  0.00  0.00    +0.000 A 
ATOM     17  C   UNL     1       2.041   3.725  20.178  0.00  0.00    +0.000 A 
ATOM     18  C   UNL     1       2.521   4.996  19.845  0.00  0.00    +0.000 A 
BRANCH  17  19
ATOM     19  C   UNL     1       2.165   3.199  21.585  0.00  0.00    +0.000 C 
ATOM     20  F   UNL     1       3.156   2.275  21.721  0.00  0.00    +0.000 F 
ATOM     21  F   UNL     1       2.441   4.177  22.490  0.00  0.00    +0.000 F 
ATOM     22  F   UNL     1       1.030   2.588  22.025  0.00  0.00    +0.000 F 
ENDBRANCH  17  19
ENDBRANCH  12  13
ENDBRANCH   1  12
TORSDOF 4
ENDMDL
MODEL 4
REMARK VINA RESULT:      -8.0      3.205      5.661
REMARK  Name = 
REMARK  6 active torsions:
REMARK  status: ('A' for Active; 'I' for Inactive)
REMARK    1  A    between atoms: C_1  and  C_2
REMARK    2  A    between atoms: C_2  and  C_3
REMARK    3  A    between atoms: C_8  and  N_9
REMARK    4  A    between atoms: N_9  and  C_10
REMARK    5  A    between atoms: C_10  and  C_11
REMARK    6  A    between atoms: C_15  and  C_16
REMARK                            x       y       z     vdW  Elec       q    Type
REMARK                         _______ _______ _______ _____ _____    ______ ____
ROOT
ATOM      1  N   UNL     1       3.792   7.161  16.655  0.00  0.00    +0.000 N 
ATOM      2  H   UNL     1       3.719   7.746  15.830  0.00  0.00    +0.000 HD
ENDROOT
BRANCH   1  10
ATOM      3  C   UNL     1       7.825   5.736  19.238  0.00  0.00    +0.000 C 
ATOM      4  C   UNL     1       6.681   5.336  18.289  0.00  0.00    +0.000 C 
ATOM      5  C   UNL     1       5.754   4.361  19.046  0.00  0.00    +0.000 C 
ATOM      6  C   UNL     1       7.296   4.655  17.055  0.00  0.00    +0.000 C 
ATOM      7  C   UNL     1       6.300   4.435  15.947  0.00  0.00    +0.000 C 
ATOM      8  O   UNL     1       6.456   3.568  15.093  0.00  0.00    +0.000 OA
ATOM      9  C   UNL     1       5.129   5.334  15.861  0.00  0.00    +0.000 C 
ATOM     10  C   UNL     1       4.912   6.333  16.724  0.00  0.00    +0.000 C 
ATOM     11  C   UNL     1       5.894   6.598  17.856  0.00  0.00    +0.000 C 
ENDBRANCH   1  10
BRANCH   1  12
ATOM     12  C   UNL     1       3.099   7.681  17.831  0.00  0.00    +0.000 C 
BRANCH  12  13
ATOM     13  C   UNL     1       2.462   6.593  18.658  0.00  0.00    +0.000 A 
ATOM     14  C   UNL     1       2.182   6.822  20.017  0.00  0.00    +0.000 A 
ATOM     15  C   UNL     1       1.751   5.778  20.833  0.00  0.00    +0.000 A 
ATOM     16  C   UNL     1       1.604   4.496  20.309  0.00  0.00    +0.000 A 
ATOM     17  C   UNL     1       1.865   4.246  18.951  0.00  0.00    +0.000 A 
ATOM     18  C   UNL     1       2.281   5.305  18.137  0.00  0.00    +0.000 A 
BRANCH  17  19
ATOM     19  C   UNL     1       1.733   2.852  18.392  0.00  0.00    +0.000 C 
ATOM     20  F   UNL     1       2.200   2.744  17.118  0.00  0.00    +0.000 F 
ATOM     21  F   UNL     1       2.416   1.926  19.119  0.00  0.00    +0.000 F 
ATOM     22  F   UNL     1       0.442   2.418  18.349  0.00  0.00    +0.000 F 
ENDBRANCH  17  19
ENDBRANCH  12  13
ENDBRANCH   1  12
TORSDOF 4
ENDMDL
MODEL 5
REMARK VINA RESULT:      -8.0      1.050      1.440
REMARK  Name = 
REMARK  6 active torsions:
REMARK  status: ('A' for Active; 'I' for Inactive)
REMARK    1  A    between atoms: C_1  and  C_2
REMARK    2  A    between atoms: C_2  and  C_3
REMARK    3  A    between atoms: C_8  and  N_9
REMARK    4  A    between atoms: N_9  and  C_10
REMARK    5  A    between atoms: C_10  and  C_11
REMARK    6  A    between atoms: C_15  and  C_16
REMARK                            x       y       z     vdW  Elec       q    Type
REMARK                         _______ _______ _______ _____ _____    ______ ____
ROOT
ATOM      1  N   UNL     1       5.282   3.261  19.167  0.00  0.00    +0.000 N 
ATOM      2  H   UNL     1       5.699   2.442  19.595  0.00  0.00    +0.000 HD
ENDROOT
BRANCH   1  10
ATOM      3  C   UNL     1       1.581   6.251  20.695  0.00  0.00    +0.000 C 
ATOM      4  C   UNL     1       2.046   5.151  19.725  0.00  0.00    +0.000 C 
ATOM      5  C   UNL     1       2.041   5.741  18.299  0.00  0.00    +0.000 C 
ATOM      6  C   UNL     1       1.065   3.972  19.829  0.00  0.00    +0.000 C 
ATOM      7  C   UNL     1       1.547   2.740  19.107  0.00  0.00    +0.000 C 
ATOM      8  O   UNL     1       0.775   1.873  18.713  0.00  0.00    +0.000 OA
ATOM      9  C   UNL     1       3.002   2.553  18.924  0.00  0.00    +0.000 C 
ATOM     10  C   UNL     1       3.912   3.429  19.367  0.00  0.00    +0.000 C 
ATOM     11  C   UNL     1       3.473   4.684  20.107  0.00  0.00    +0.000 C 
ENDBRANCH   1  10
BRANCH   1  12
ATOM     12  C   UNL     1       6.208   4.370  18.951  0.00  0.00    +0.000 C 
BRANCH  12  13
ATOM     13  C   UNL     1       5.995   5.053  17.624  0.00  0.00    +0.000 A 
ATOM     14  C   UNL     1       5.440   6.344  17.584  0.00  0.00    +0.000 A 
ATOM     15  C   UNL     1       5.082   6.921  16.366  0.00  0.00    +0.000 A 
ATOM     16  C   UNL     1       5.265   6.215  15.180  0.00  0.00    +0.000 A 
ATOM     17  C   UNL     1       5.830   4.928  15.193  0.00  0.00    +0.000 A 
ATOM     18  C   UNL     1       6.201   4.367  16.420  0.00  0.00    +0.000 A 
BRANCH  17  19
ATOM     19  C   UNL     1       6.000   4.156  13.910  0.00  0.00    +0.000 C 
ATOM     20  F   UNL     1       6.387   2.867  14.114  0.00  0.00    +0.000 F 
ATOM     21  F   UNL     1       4.854   4.090  13.179  0.00  0.00    +0.000 F 
ATOM     22  F   UNL     1       6.941   4.696  13.086  0.00  0.00    +0.000 F 
ENDBRANCH  17  19
ENDBRANCH  12  13
ENDBRANCH   1  12
TORSDOF 4
ENDMDL
MODEL 6
REMARK VINA RESULT:      -7.9      4.978      6.955
REMARK  Name = 
REMARK  6 active torsions:
REMARK  status: ('A' for Active; 'I' for Inactive)
REMARK    1  A    between atoms: C_1  and  C_2
REMARK    2  A    between atoms: C_2  and  C_3
REMARK    3  A    between atoms: C_8  and  N_9
REMARK    4  A    between atoms: N_9  and  C_10
REMARK    5  A    between atoms: C_10  and  C_11
REMARK    6  A    between atoms: C_15  and  C_16
REMARK                            x       y       z     vdW  Elec       q    Type
REMARK                         _______ _______ _______ _____ _____    ______ ____
ROOT
ATOM      1  N   UNL     1       3.342   3.984  18.719  0.00  0.00    +0.000 N 
ATOM      2  H   UNL     1       2.547   3.698  18.158  0.00  0.00    +0.000 HD
ENDROOT
BRANCH   1  10
ATOM      3  C   UNL     1       5.693   4.307  14.321  0.00  0.00    +0.000 C 
ATOM      4  C   UNL     1       5.623   4.751  15.793  0.00  0.00    +0.000 C 
ATOM      5  C   UNL     1       5.299   6.260  15.820  0.00  0.00    +0.000 C 
ATOM      6  C   UNL     1       6.989   4.477  16.443  0.00  0.00    +0.000 C 
ATOM      7  C   UNL     1       6.972   4.644  17.940  0.00  0.00    +0.000 C 
ATOM      8  O   UNL     1       7.990   4.888  18.580  0.00  0.00    +0.000 OA
ATOM      9  C   UNL     1       5.694   4.452  18.658  0.00  0.00    +0.000 C 
ATOM     10  C   UNL     1       4.550   4.137  18.039  0.00  0.00    +0.000 C 
ATOM     11  C   UNL     1       4.519   3.951  16.529  0.00  0.00    +0.000 C 
ENDBRANCH   1  10
BRANCH   1  12
ATOM     12  C   UNL     1       2.995   4.730  19.926  0.00  0.00    +0.000 C 
BRANCH  12  13
ATOM     13  C   UNL     1       2.413   6.088  19.622  0.00  0.00    +0.000 A 
ATOM     14  C   UNL     1       2.598   6.657  18.350  0.00  0.00    +0.000 A 
ATOM     15  C   UNL     1       2.214   7.975  18.105  0.00  0.00    +0.000 A 
ATOM     16  C   UNL     1       1.652   8.739  19.125  0.00  0.00    +0.000 A 
ATOM     17  C   UNL     1       1.446   8.188  20.401  0.00  0.00    +0.000 A 
ATOM     18  C   UNL     1       1.820   6.859  20.629  0.00  0.00    +0.000 A 
BRANCH  17  19
ATOM     19  C   UNL     1       0.864   9.026  21.510  0.00  0.00    +0.000 C 
ATOM     20  F   UNL     1       0.638  10.316  21.137  0.00  0.00    +0.000 F 
ATOM     21  F   UNL     1      -0.331   8.552  21.957  0.00  0.00    +0.000 F 
ATOM     22  F   UNL     1       1.674   9.096  22.603  0.00  0.00    +0.000 F 
ENDBRANCH  17  19
ENDBRANCH  12  13
ENDBRANCH   1  12
TORSDOF 4
ENDMDL
MODEL 7
REMARK VINA RESULT:      -7.8      1.831      2.904
REMARK  Name = 
REMARK  6 active torsions:
REMARK  status: ('A' for Active; 'I' for Inactive)
REMARK    1  A    between atoms: C_1  and  C_2
REMARK    2  A    between atoms: C_2  and  C_3
REMARK    3  A    between atoms: C_8  and  N_9
REMARK    4  A    between atoms: N_9  and  C_10
REMARK    5  A    between atoms: C_10  and  C_11
REMARK    6  A    between atoms: C_15  and  C_16
REMARK                            x       y       z     vdW  Elec       q    Type
REMARK                         _______ _______ _______ _____ _____    ______ ____
ROOT
ATOM      1  N   UNL     1       2.972   6.482  19.548  0.00  0.00    +0.000 N 
ATOM      2  H   UNL     1       2.454   7.202  20.039  0.00  0.00    +0.000 HD
ENDROOT
BRANCH   1  10
ATOM      3  C   UNL     1       2.204   1.911  17.679  0.00  0.00    +0.000 C 
ATOM      4  C   UNL     1       2.635   2.767  18.883  0.00  0.00    +0.000 C 
ATOM      5  C   UNL     1       4.131   2.493  19.150  0.00  0.00    +0.000 C 
ATOM      6  C   UNL     1       1.782   2.358  20.095  0.00  0.00    +0.000 C 
ATOM      7  C   UNL     1       1.943   3.288  21.269  0.00  0.00    +0.000 C 
ATOM      8  O   UNL     1       1.709   2.931  22.419  0.00  0.00    +0.000 OA
ATOM      9  C   UNL     1       2.342   4.688  21.011  0.00  0.00    +0.000 C 
ATOM     10  C   UNL     1       2.569   5.167  19.783  0.00  0.00    +0.000 C 
ATOM     11  C   UNL     1       2.413   4.268  18.566  0.00  0.00    +0.000 C 
ENDBRANCH   1  10
BRANCH   1  12
ATOM     12  C   UNL     1       3.597   6.924  18.304  0.00  0.00    +0.000 C 
BRANCH  12  13
ATOM     13  C   UNL     1       4.767   6.062  17.903  0.00  0.00    +0.000 A 
ATOM     14  C   UNL     1       5.812   5.836  18.815  0.00  0.00    +0.000 A 
ATOM     15  C   UNL     1       6.975   5.183  18.408  0.00  0.00    +0.000 A 
ATOM     16  C   UNL     1       7.111   4.758  17.088  0.00  0.00    +0.000 A 
ATOM     17  C   UNL     1       6.074   4.961  16.162  0.00  0.00    +0.000 A 
ATOM     18  C   UNL     1       4.905   5.602  16.587  0.00  0.00    +0.000 A 
BRANCH  17  19
ATOM     19  C   UNL     1       6.236   4.526  14.727  0.00  0.00    +0.000 C 
ATOM     20  F   UNL     1       5.170   4.859  13.949  0.00  0.00    +0.000 F 
ATOM     21  F   UNL     1       7.323   5.083  14.128  0.00  0.00    +0.000 F 
ATOM     22  F   UNL     1       6.382   3.178  14.595  0.00  0.00    +0.000 F 
ENDBRANCH  17  19
ENDBRANCH  12  13
ENDBRANCH   1  12
TORSDOF 4
ENDMDL
MODEL 8
REMARK VINA RESULT:      -7.8      2.988      4.014
REMARK  Name = 
REMARK  6 active torsions:
REMARK  status: ('A' for Active; 'I' for Inactive)
REMARK    1  A    between atoms: C_1  and  C_2
REMARK    2  A    between atoms: C_2  and  C_3
REMARK    3  A    between atoms: C_8  and  N_9
REMARK    4  A    between atoms: N_9  and  C_10
REMARK    5  A    between atoms: C_10  and  C_11
REMARK    6  A    between atoms: C_15  and  C_16
REMARK                            x       y       z     vdW  Elec       q    Type
REMARK                         _______ _______ _______ _____ _____    ______ ____
ROOT
ATOM      1  N   UNL     1       2.701   6.862  19.143  0.00  0.00    +0.000 N 
ATOM      2  H   UNL     1       2.184   7.533  19.700  0.00  0.00    +0.000 HD
ENDROOT
BRANCH   1  10
ATOM      3  C   UNL     1       2.480   2.136  17.535  0.00  0.00    +0.000 C 
ATOM      4  C   UNL     1       2.861   3.107  18.666  0.00  0.00    +0.000 C 
ATOM      5  C   UNL     1       4.395   3.061  18.837  0.00  0.00    +0.000 C 
ATOM      6  C   UNL     1       2.157   2.647  19.953  0.00  0.00    +0.000 C 
ATOM      7  C   UNL     1       2.258   3.652  21.070  0.00  0.00    +0.000 C 
ATOM      8  O   UNL     1       2.152   3.328  22.249  0.00  0.00    +0.000 OA
ATOM      9  C   UNL     1       2.433   5.078  20.724  0.00  0.00    +0.000 C 
ATOM     10  C   UNL     1       2.508   5.519  19.463  0.00  0.00    +0.000 C 
ATOM     11  C   UNL     1       2.405   4.542  18.300  0.00  0.00    +0.000 C 
ENDBRANCH   1  10
BRANCH   1  12
ATOM     12  C   UNL     1       3.055   7.330  17.805  0.00  0.00    +0.000 C 
BRANCH  12  13
ATOM     13  C   UNL     1       4.398   6.818  17.347  0.00  0.00    +0.000 A 
ATOM     14  C   UNL     1       4.557   6.359  16.028  0.00  0.00    +0.000 A 
ATOM     15  C   UNL     1       5.739   5.730  15.639  0.00  0.00    +0.000 A 
ATOM     16  C   UNL     1       6.767   5.544  16.560  0.00  0.00    +0.000 A 
ATOM     17  C   UNL     1       6.635   6.005  17.880  0.00  0.00    +0.000 A 
ATOM     18  C   UNL     1       5.452   6.651  18.255  0.00  0.00    +0.000 A 
BRANCH  17  19
ATOM     19  C   UNL     1       7.738   5.777  18.882  0.00  0.00    +0.000 C 
ATOM     20  F   UNL     1       8.510   4.695  18.585  0.00  0.00    +0.000 F 
ATOM     21  F   UNL     1       8.594   6.831  18.972  0.00  0.00    +0.000 F 
ATOM     22  F   UNL     1       7.272   5.561  20.144  0.00  0.00    +0.000 F 
ENDBRANCH  17  19
ENDBRANCH  12  13
ENDBRANCH   1  12
TORSDOF 4
ENDMDL
MODEL 9
REMARK VINA RESULT:      -7.7      1.030      1.091
REMARK  Name = 
REMARK  6 active torsions:
REMARK  status: ('A' for Active; 'I' for Inactive)
REMARK    1  A    between atoms: C_1  and  C_2
REMARK    2  A    between atoms: C_2  and  C_3
REMARK    3  A    between atoms: C_8  and  N_9
REMARK    4  A    between atoms: N_9  and  C_10
REMARK    5  A    between atoms: C_10  and  C_11
REMARK    6  A    between atoms: C_15  and  C_16
REMARK                            x       y       z     vdW  Elec       q    Type
REMARK                         _______ _______ _______ _____ _____    ______ ____
ROOT
ATOM      1  N   UNL     1       5.334   3.171  19.180  0.00  0.00    +0.000 N 
ATOM      2  H   UNL     1       5.796   2.280  19.326  0.00  0.00    +0.000 HD
ENDROOT
BRANCH   1  10
ATOM      3  C   UNL     1       1.212   2.586  21.943  0.00  0.00    +0.000 C 
ATOM      4  C   UNL     1       1.896   3.301  20.765  0.00  0.00    +0.000 C 
ATOM      5  C   UNL     1       2.019   4.797  21.123  0.00  0.00    +0.000 C 
ATOM      6  C   UNL     1       1.021   3.112  19.514  0.00  0.00    +0.000 C 
ATOM      7  C   UNL     1       1.702   3.559  18.247  0.00  0.00    +0.000 C 
ATOM      8  O   UNL     1       1.068   3.888  17.249  0.00  0.00    +0.000 OA
ATOM      9  C   UNL     1       3.179   3.545  18.196  0.00  0.00    +0.000 C 
ATOM     10  C   UNL     1       3.941   3.156  19.225  0.00  0.00    +0.000 C 
ATOM     11  C   UNL     1       3.299   2.690  20.523  0.00  0.00    +0.000 C 
ENDBRANCH   1  10
BRANCH   1  12
ATOM     12  C   UNL     1       6.140   4.337  19.535  0.00  0.00    +0.000 C 
BRANCH  12  13
ATOM     13  C   UNL     1       6.667   5.068  18.325  0.00  0.00    +0.000 A 
ATOM     14  C   UNL     1       7.228   6.349  18.473  0.00  0.00    +0.000 A 
ATOM     15  C   UNL     1       7.565   7.104  17.350  0.00  0.00    +0.000 A 
ATOM     16  C   UNL     1       7.340   6.596  16.073  0.00  0.00    +0.000 A 
ATOM     17  C   UNL     1       6.793   5.313  15.901  0.00  0.00    +0.000 A 
ATOM     18  C   UNL     1       6.474   4.557  17.035  0.00  0.00    +0.000 A 
BRANCH  17  19
ATOM     19  C   UNL     1       6.523   4.777  14.518  0.00  0.00    +0.000 C 
ATOM     20  F   UNL     1       6.558   3.417  14.460  0.00  0.00    +0.000 F 
ATOM     21  F   UNL     1       5.301   5.139  14.042  0.00  0.00    +0.000 F 
ATOM     22  F   UNL     1       7.429   5.207  13.597  0.00  0.00    +0.000 F 
ENDBRANCH  17  19
ENDBRANCH  12  13
ENDBRANCH   1  12
TORSDOF 4
ENDMDL
