MODEL 1
REMARK VINA RESULT:      -8.0      0.000      0.000
REMARK  Name = 
REMARK  6 active torsions:
REMARK  status: ('A' for Active; 'I' for Inactive)
REMARK    1  A    between atoms: C_1  and  C_2
REMARK    2  A    between atoms: C_2  and  C_3
REMARK    3  A    between atoms: C_2  and  C_4
REMARK    4  A    between atoms: C_4  and  N_5
REMARK    5  A    between atoms: C_9  and  C_10
REMARK    6  A    between atoms: C_15  and  C_17
REMARK                            x       y       z     vdW  Elec       q    Type
REMARK                         _______ _______ _______ _____ _____    ______ ____
ROOT
ATOM      1  C   UNL     1       4.193   4.340  17.544  0.00  0.00    +0.000 C 
ATOM      2  C   UNL     1       3.409   3.037  17.335  0.00  0.00    +0.000 C 
ATOM      3  C   UNL     1       2.041   3.260  17.952  0.00  0.00    +0.000 C 
ATOM      4  C   UNL     1       1.982   4.735  18.294  0.00  0.00    +0.000 C 
ATOM      5  N   UNL     1       3.169   5.368  17.740  0.00  0.00    +0.000 N 
ATOM      6  C   UNL     1       3.514   6.719  17.919  0.00  0.00    +0.000 C 
ATOM      7  O   UNL     1       4.632   7.136  17.631  0.00  0.00    +0.000 OA
ENDROOT
BRANCH   6   8
ATOM      8  C   UNL     1       2.508   7.719  18.409  0.00  0.00    +0.000 A 
ATOM      9  C   UNL     1       1.878   8.659  17.575  0.00  0.00    +0.000 A 
ATOM     10  C   UNL     1       0.982   9.600  18.094  0.00  0.00    +0.000 A 
ATOM     11  C   UNL     1       0.640   9.554  19.438  0.00  0.00    +0.000 A 
ATOM     12  F   UNL     1      -0.225  10.450  19.928  0.00  0.00    +0.000 F 
ATOM     13  C   UNL     1       1.173   8.583  20.272  0.00  0.00    +0.000 A 
ATOM     14  C   UNL     1       2.107   7.677  19.754  0.00  0.00    +0.000 A 
ATOM     15  F   UNL     1       2.620   6.772  20.601  0.00  0.00    +0.000 F 
ENDBRANCH   6   8
BRANCH   1  20
ATOM     16  N   UNL     1       6.578   4.657  16.538  0.00  0.00    +0.000 N 
ATOM     17  C   UNL     1       7.007   4.776  15.244  0.00  0.00    +0.000 A 
ATOM     18  N   UNL     1       5.984   4.760  14.425  0.00  0.00    +0.000 NA
ATOM     19  N   UNL     1       4.867   4.570  15.187  0.00  0.00    +0.000 NA
ATOM     20  C   UNL     1       5.215   4.473  16.459  0.00  0.00    +0.000 A 
BRANCH  16  21
ATOM     21  C   UNL     1       7.453   4.614  17.689  0.00  0.00    +0.000 C 
BRANCH  21  23
ATOM     22  C   UNL     1       8.122   5.564  19.971  0.00  0.00    +0.000 C 
ATOM     23  C   UNL     1       7.352   5.805  18.670  0.00  0.00    +0.000 C 
ATOM     24  C   UNL     1       7.888   7.072  17.995  0.00  0.00    +0.000 C 
ENDBRANCH  21  23
ENDBRANCH  16  21
ENDBRANCH   1  20
TORSDOF 4
ENDMDL
MODEL 2
REMARK VINA RESULT:      -7.8      2.667      4.035
REMARK  Name = 
REMARK  6 active torsions:
REMARK  status: ('A' for Active; 'I' for Inactive)
REMARK    1  A    between atoms: C_1  and  C_2
REMARK    2  A    between atoms: C_2  and  C_3
REMARK    3  A    between atoms: C_2  and  C_4
REMARK    4  A    between atoms: C_4  and  N_5
REMARK    5  A    between atoms: C_9  and  C_10
REMARK    6  A    between atoms: C_15  and  C_17
REMARK                            x       y       z     vdW  Elec       q    Type
REMARK                         _______ _______ _______ _____ _____    ______ ____
ROOT
ATOM      1  C   UNL     1       4.173   5.811  16.485  0.00  0.00    +0.000 C 
ATOM      2  C   UNL     1       4.383   7.319  16.682  0.00  0.00    +0.000 C 
ATOM      3  C   UNL     1       3.532   7.713  17.875  0.00  0.00    +0.000 C 
ATOM      4  C   UNL     1       3.038   6.413  18.474  0.00  0.00    +0.000 C 
ATOM      5  N   UNL     1       3.710   5.322  17.785  0.00  0.00    +0.000 N 
ATOM      6  C   UNL     1       3.454   3.957  18.003  0.00  0.00    +0.000 C 
ATOM      7  O   UNL     1       3.876   3.097  17.235  0.00  0.00    +0.000 OA
ENDROOT
BRANCH   6   8
ATOM      8  C   UNL     1       2.710   3.492  19.221  0.00  0.00    +0.000 A 
ATOM      9  C   UNL     1       1.310   3.536  19.339  0.00  0.00    +0.000 A 
ATOM     10  C   UNL     1       0.672   3.132  20.517  0.00  0.00    +0.000 A 
ATOM     11  C   UNL     1       1.420   2.599  21.556  0.00  0.00    +0.000 A 
ATOM     12  F   UNL     1       0.804   2.206  22.677  0.00  0.00    +0.000 F 
ATOM     13  C   UNL     1       2.794   2.457  21.439  0.00  0.00    +0.000 A 
ATOM     14  C   UNL     1       3.430   2.910  20.276  0.00  0.00    +0.000 A 
ATOM     15  F   UNL     1       4.764   2.780  20.215  0.00  0.00    +0.000 F 
ENDBRANCH   6   8
BRANCH   1  20
ATOM     16  N   UNL     1       6.584   4.820  16.388  0.00  0.00    +0.000 N 
ATOM     17  C   UNL     1       7.363   4.436  15.331  0.00  0.00    +0.000 A 
ATOM     18  N   UNL     1       6.743   4.674  14.201  0.00  0.00    +0.000 NA
ATOM     19  N   UNL     1       5.511   5.170  14.520  0.00  0.00    +0.000 NA
ATOM     20  C   UNL     1       5.391   5.231  15.836  0.00  0.00    +0.000 A 
BRANCH  16  21
ATOM     21  C   UNL     1       6.959   4.671  17.777  0.00  0.00    +0.000 C 
BRANCH  21  23
ATOM     22  C   UNL     1       8.050   5.798  19.802  0.00  0.00    +0.000 C 
ATOM     23  C   UNL     1       7.149   5.981  18.577  0.00  0.00    +0.000 C 
ATOM     24  C   UNL     1       7.751   7.055  17.665  0.00  0.00    +0.000 C 
ENDBRANCH  21  23
ENDBRANCH  16  21
ENDBRANCH   1  20
TORSDOF 4
ENDMDL
MODEL 3
REMARK VINA RESULT:      -7.8      3.016      4.997
REMARK  Name = 
REMARK  6 active torsions:
REMARK  status: ('A' for Active; 'I' for Inactive)
REMARK    1  A    between atoms: C_1  and  C_2
REMARK    2  A    between atoms: C_2  and  C_3
REMARK    3  A    between atoms: C_2  and  C_4
REMARK    4  A    between atoms: C_4  and  N_5
REMARK    5  A    between atoms: C_9  and  C_10
REMARK    6  A    between atoms: C_15  and  C_17
REMARK                            x       y       z     vdW  Elec       q    Type
REMARK                         _______ _______ _______ _____ _____    ______ ____
ROOT
ATOM      1  C   UNL     1       4.393   5.738  16.631  0.00  0.00    +0.000 C 
ATOM      2  C   UNL     1       4.450   7.269  16.734  0.00  0.00    +0.000 C 
ATOM      3  C   UNL     1       3.434   7.662  17.789  0.00  0.00    +0.000 C 
ATOM      4  C   UNL     1       2.982   6.365  18.427  0.00  0.00    +0.000 C 
ATOM      5  N   UNL     1       3.821   5.297  17.904  0.00  0.00    +0.000 N 
ATOM      6  C   UNL     1       3.656   3.932  18.197  0.00  0.00    +0.000 C 
ATOM      7  O   UNL     1       4.237   3.065  17.550  0.00  0.00    +0.000 OA
ENDROOT
BRANCH   6   8
ATOM      8  C   UNL     1       2.813   3.483  19.355  0.00  0.00    +0.000 A 
ATOM      9  C   UNL     1       1.415   3.616  19.396  0.00  0.00    +0.000 A 
ATOM     10  C   UNL     1       0.684   3.222  20.522  0.00  0.00    +0.000 A 
ATOM     11  C   UNL     1       1.335   2.611  21.584  0.00  0.00    +0.000 A 
ATOM     12  F   UNL     1       0.630   2.227  22.655  0.00  0.00    +0.000 F 
ATOM     13  C   UNL     1       2.701   2.382  21.540  0.00  0.00    +0.000 A 
ATOM     14  C   UNL     1       3.432   2.824  20.429  0.00  0.00    +0.000 A 
ATOM     15  F   UNL     1       4.756   2.608  20.439  0.00  0.00    +0.000 F 
ENDBRANCH   6   8
BRANCH   1  20
ATOM     16  N   UNL     1       6.098   4.687  14.961  0.00  0.00    +0.000 N 
ATOM     17  C   UNL     1       7.412   4.337  15.109  0.00  0.00    +0.000 A 
ATOM     18  N   UNL     1       7.804   4.559  16.340  0.00  0.00    +0.000 NA
ATOM     19  N   UNL     1       6.746   5.118  16.999  0.00  0.00    +0.000 NA
ATOM     20  C   UNL     1       5.723   5.231  16.169  0.00  0.00    +0.000 A 
BRANCH  16  21
ATOM     21  C   UNL     1       5.361   4.593  13.719  0.00  0.00    +0.000 C 
BRANCH  21  23
ATOM     22  C   UNL     1       4.723   3.081  11.752  0.00  0.00    +0.000 C 
ATOM     23  C   UNL     1       5.825   3.498  12.730  0.00  0.00    +0.000 C 
ATOM     24  C   UNL     1       7.037   4.002  11.939  0.00  0.00    +0.000 C 
ENDBRANCH  21  23
ENDBRANCH  16  21
ENDBRANCH   1  20
TORSDOF 4
ENDMDL
MODEL 4
REMARK VINA RESULT:      -7.7      2.377      4.083
REMARK  Name = 
REMARK  6 active torsions:
REMARK  status: ('A' for Active; 'I' for Inactive)
REMARK    1  A    between atoms: C_1  and  C_2
REMARK    2  A    between atoms: C_2  and  C_3
REMARK    3  A    between atoms: C_2  and  C_4
REMARK    4  A    between atoms: C_4  and  N_5
REMARK    5  A    between atoms: C_9  and  C_10
REMARK    6  A    between atoms: C_15  and  C_17
REMARK                            x       y       z     vdW  Elec       q    Type
REMARK                         _______ _______ _______ _____ _____    ______ ____
ROOT
ATOM      1  C   UNL     1       4.265   5.931  16.495  0.00  0.00    +0.000 C 
ATOM      2  C   UNL     1       4.392   7.448  16.700  0.00  0.00    +0.000 C 
ATOM      3  C   UNL     1       3.514   7.790  17.889  0.00  0.00    +0.000 C 
ATOM      4  C   UNL     1       3.088   6.462  18.480  0.00  0.00    +0.000 C 
ATOM      5  N   UNL     1       3.822   5.412  17.790  0.00  0.00    +0.000 N 
ATOM      6  C   UNL     1       3.639   4.035  18.001  0.00  0.00    +0.000 C 
ATOM      7  O   UNL     1       4.112   3.202  17.232  0.00  0.00    +0.000 OA
ENDROOT
BRANCH   6   8
ATOM      8  C   UNL     1       2.915   3.524  19.213  0.00  0.00    +0.000 A 
ATOM      9  C   UNL     1       3.562   3.116  20.391  0.00  0.00    +0.000 A 
ATOM     10  C   UNL     1       2.838   2.604  21.474  0.00  0.00    +0.000 A 
ATOM     11  C   UNL     1       1.453   2.577  21.422  0.00  0.00    +0.000 A 
ATOM     12  F   UNL     1       0.764   2.095  22.463  0.00  0.00    +0.000 F 
ATOM     13  C   UNL     1       0.776   3.055  20.310  0.00  0.00    +0.000 A 
ATOM     14  C   UNL     1       1.510   3.520  19.212  0.00  0.00    +0.000 A 
ATOM     15  F   UNL     1       0.817   3.948  18.146  0.00  0.00    +0.000 F 
ENDBRANCH   6   8
BRANCH   1  20
ATOM     16  N   UNL     1       6.695   4.988  16.414  0.00  0.00    +0.000 N 
ATOM     17  C   UNL     1       7.519   4.697  15.361  0.00  0.00    +0.000 A 
ATOM     18  N   UNL     1       6.935   5.009  14.230  0.00  0.00    +0.000 NA
ATOM     19  N   UNL     1       5.684   5.460  14.539  0.00  0.00    +0.000 NA
ATOM     20  C   UNL     1       5.515   5.421  15.850  0.00  0.00    +0.000 A 
BRANCH  16  21
ATOM     21  C   UNL     1       7.023   4.742  17.801  0.00  0.00    +0.000 C 
BRANCH  21  23
ATOM     22  C   UNL     1       8.108   5.729  19.901  0.00  0.00    +0.000 C 
ATOM     23  C   UNL     1       7.205   5.992  18.693  0.00  0.00    +0.000 C 
ATOM     24  C   UNL     1       7.800   7.133  17.860  0.00  0.00    +0.000 C 
ENDBRANCH  21  23
ENDBRANCH  16  21
ENDBRANCH   1  20
TORSDOF 4
ENDMDL
MODEL 5
REMARK VINA RESULT:      -7.7      0.955      1.368
REMARK  Name = 
REMARK  6 active torsions:
REMARK  status: ('A' for Active; 'I' for Inactive)
REMARK    1  A    between atoms: C_1  and  C_2
REMARK    2  A    between atoms: C_2  and  C_3
REMARK    3  A    between atoms: C_2  and  C_4
REMARK    4  A    between atoms: C_4  and  N_5
REMARK    5  A    between atoms: C_9  and  C_10
REMARK    6  A    between atoms: C_15  and  C_17
REMARK                            x       y       z     vdW  Elec       q    Type
REMARK                         _______ _______ _______ _____ _____    ______ ____
ROOT
ATOM      1  C   UNL     1       4.230   4.114  17.776  0.00  0.00    +0.000 C 
ATOM      2  C   UNL     1       3.471   2.795  17.574  0.00  0.00    +0.000 C 
ATOM      3  C   UNL     1       2.158   2.943  18.319  0.00  0.00    +0.000 C 
ATOM      4  C   UNL     1       2.084   4.397  18.736  0.00  0.00    +0.000 C 
ATOM      5  N   UNL     1       3.197   5.096  18.111  0.00  0.00    +0.000 N 
ATOM      6  C   UNL     1       3.515   6.448  18.324  0.00  0.00    +0.000 C 
ATOM      7  O   UNL     1       4.590   6.917  17.960  0.00  0.00    +0.000 OA
ENDROOT
BRANCH   6   8
ATOM      8  C   UNL     1       2.526   7.389  18.947  0.00  0.00    +0.000 A 
ATOM      9  C   UNL     1       2.101   7.297  20.283  0.00  0.00    +0.000 A 
ATOM     10  C   UNL     1       1.140   8.174  20.799  0.00  0.00    +0.000 A 
ATOM     11  C   UNL     1       0.659   9.207  20.008  0.00  0.00    +0.000 A 
ATOM     12  F   UNL     1      -0.253  10.050  20.508  0.00  0.00    +0.000 F 
ATOM     13  C   UNL     1       1.123   9.383  18.713  0.00  0.00    +0.000 A 
ATOM     14  C   UNL     1       2.048   8.471  18.190  0.00  0.00    +0.000 A 
ATOM     15  F   UNL     1       2.449   8.661  16.924  0.00  0.00    +0.000 F 
ENDBRANCH   6   8
BRANCH   1  20
ATOM     16  N   UNL     1       6.496   4.610  16.583  0.00  0.00    +0.000 N 
ATOM     17  C   UNL     1       6.806   4.774  15.261  0.00  0.00    +0.000 A 
ATOM     18  N   UNL     1       5.723   4.696  14.529  0.00  0.00    +0.000 NA
ATOM     19  N   UNL     1       4.688   4.419  15.377  0.00  0.00    +0.000 NA
ATOM     20  C   UNL     1       5.147   4.331  16.614  0.00  0.00    +0.000 A 
BRANCH  16  21
ATOM     21  C   UNL     1       7.465   4.615  17.658  0.00  0.00    +0.000 C 
BRANCH  21  23
ATOM     22  C   UNL     1       8.172   5.545  19.937  0.00  0.00    +0.000 C 
ATOM     23  C   UNL     1       7.377   5.795  18.653  0.00  0.00    +0.000 C 
ATOM     24  C   UNL     1       7.895   7.071  17.980  0.00  0.00    +0.000 C 
ENDBRANCH  21  23
ENDBRANCH  16  21
ENDBRANCH   1  20
TORSDOF 4
ENDMDL
MODEL 6
REMARK VINA RESULT:      -7.7      2.796      5.032
REMARK  Name = 
REMARK  6 active torsions:
REMARK  status: ('A' for Active; 'I' for Inactive)
REMARK    1  A    between atoms: C_1  and  C_2
REMARK    2  A    between atoms: C_2  and  C_3
REMARK    3  A    between atoms: C_2  and  C_4
REMARK    4  A    between atoms: C_4  and  N_5
REMARK    5  A    between atoms: C_9  and  C_10
REMARK    6  A    between atoms: C_15  and  C_17
REMARK                            x       y       z     vdW  Elec       q    Type
REMARK                         _______ _______ _______ _____ _____    ______ ____
ROOT
ATOM      1  C   UNL     1       4.383   5.770  16.554  0.00  0.00    +0.000 C 
ATOM      2  C   UNL     1       4.450   7.301  16.661  0.00  0.00    +0.000 C 
ATOM      3  C   UNL     1       3.476   7.693  17.755  0.00  0.00    +0.000 C 
ATOM      4  C   UNL     1       3.044   6.395  18.405  0.00  0.00    +0.000 C 
ATOM      5  N   UNL     1       3.857   5.326  17.847  0.00  0.00    +0.000 N 
ATOM      6  C   UNL     1       3.698   3.961  18.140  0.00  0.00    +0.000 C 
ATOM      7  O   UNL     1       4.251   3.094  17.468  0.00  0.00    +0.000 OA
ENDROOT
BRANCH   6   8
ATOM      8  C   UNL     1       2.898   3.510  19.327  0.00  0.00    +0.000 A 
ATOM      9  C   UNL     1       3.471   3.147  20.558  0.00  0.00    +0.000 A 
ATOM     10  C   UNL     1       2.680   2.689  21.617  0.00  0.00    +0.000 A 
ATOM     11  C   UNL     1       1.299   2.671  21.485  0.00  0.00    +0.000 A 
ATOM     12  F   UNL     1       0.546   2.241  22.504  0.00  0.00    +0.000 F 
ATOM     13  C   UNL     1       0.694   3.108  20.316  0.00  0.00    +0.000 A 
ATOM     14  C   UNL     1       1.496   3.518  19.244  0.00  0.00    +0.000 A 
ATOM     15  F   UNL     1       0.872   3.905  18.122  0.00  0.00    +0.000 F 
ENDBRANCH   6   8
BRANCH   1  20
ATOM     16  N   UNL     1       5.999   4.630  14.855  0.00  0.00    +0.000 N 
ATOM     17  C   UNL     1       7.330   4.325  14.936  0.00  0.00    +0.000 A 
ATOM     18  N   UNL     1       7.799   4.653  16.115  0.00  0.00    +0.000 NA
ATOM     19  N   UNL     1       6.773   5.237  16.802  0.00  0.00    +0.000 NA
ATOM     20  C   UNL     1       5.692   5.259  16.041  0.00  0.00    +0.000 A 
BRANCH  16  21
ATOM     21  C   UNL     1       5.182   4.420  13.679  0.00  0.00    +0.000 C 
BRANCH  21  23
ATOM     22  C   UNL     1       4.699   3.037  11.578  0.00  0.00    +0.000 C 
ATOM     23  C   UNL     1       5.743   3.439  12.624  0.00  0.00    +0.000 C 
ATOM     24  C   UNL     1       6.943   4.078  11.917  0.00  0.00    +0.000 C 
ENDBRANCH  21  23
ENDBRANCH  16  21
ENDBRANCH   1  20
TORSDOF 4
ENDMDL
MODEL 7
REMARK VINA RESULT:      -7.3      1.346      2.610
REMARK  Name = 
REMARK  6 active torsions:
REMARK  status: ('A' for Active; 'I' for Inactive)
REMARK    1  A    between atoms: C_1  and  C_2
REMARK    2  A    between atoms: C_2  and  C_3
REMARK    3  A    between atoms: C_2  and  C_4
REMARK    4  A    between atoms: C_4  and  N_5
REMARK    5  A    between atoms: C_9  and  C_10
REMARK    6  A    between atoms: C_15  and  C_17
REMARK                            x       y       z     vdW  Elec       q    Type
REMARK                         _______ _______ _______ _____ _____    ______ ____
ROOT
ATOM      1  C   UNL     1       4.064   4.275  18.284  0.00  0.00    +0.000 C 
ATOM      2  C   UNL     1       3.431   3.155  17.446  0.00  0.00    +0.000 C 
ATOM      3  C   UNL     1       1.956   3.493  17.331  0.00  0.00    +0.000 C 
ATOM      4  C   UNL     1       1.810   4.891  17.896  0.00  0.00    +0.000 C 
ATOM      5  N   UNL     1       3.146   5.408  18.153  0.00  0.00    +0.000 N 
ATOM      6  C   UNL     1       3.423   6.647  18.756  0.00  0.00    +0.000 C 
ATOM      7  O   UNL     1       4.550   6.924  19.158  0.00  0.00    +0.000 OA
ENDROOT
BRANCH   6   8
ATOM      8  C   UNL     1       2.367   7.707  18.875  0.00  0.00    +0.000 A 
ATOM      9  C   UNL     1       1.966   8.527  17.807  0.00  0.00    +0.000 A 
ATOM     10  C   UNL     1       1.009   9.531  17.986  0.00  0.00    +0.000 A 
ATOM     11  C   UNL     1       0.379   9.668  19.214  0.00  0.00    +0.000 A 
ATOM     12  F   UNL     1      -0.543  10.624  19.378  0.00  0.00    +0.000 F 
ATOM     13  C   UNL     1       0.684   8.817  20.265  0.00  0.00    +0.000 A 
ATOM     14  C   UNL     1       1.679   7.847  20.091  0.00  0.00    +0.000 A 
ATOM     15  F   UNL     1       1.964   7.063  21.142  0.00  0.00    +0.000 F 
ENDBRANCH   6   8
BRANCH   1  20
ATOM     16  N   UNL     1       6.096   4.530  16.670  0.00  0.00    +0.000 N 
ATOM     17  C   UNL     1       7.443   4.552  16.906  0.00  0.00    +0.000 A 
ATOM     18  N   UNL     1       7.682   4.365  18.181  0.00  0.00    +0.000 NA
ATOM     19  N   UNL     1       6.470   4.277  18.804  0.00  0.00    +0.000 NA
ATOM     20  C   UNL     1       5.506   4.409  17.908  0.00  0.00    +0.000 A 
BRANCH  16  21
ATOM     21  C   UNL     1       5.490   4.731  15.371  0.00  0.00    +0.000 C 
BRANCH  21  23
ATOM     22  C   UNL     1       5.176   3.633  13.079  0.00  0.00    +0.000 C 
ATOM     23  C   UNL     1       6.167   4.012  14.182  0.00  0.00    +0.000 C 
ATOM     24  C   UNL     1       7.258   4.913  13.592  0.00  0.00    +0.000 C 
ENDBRANCH  21  23
ENDBRANCH  16  21
ENDBRANCH   1  20
TORSDOF 4
ENDMDL
MODEL 8
REMARK VINA RESULT:      -7.3      1.595      2.905
REMARK  Name = 
REMARK  6 active torsions:
REMARK  status: ('A' for Active; 'I' for Inactive)
REMARK    1  A    between atoms: C_1  and  C_2
REMARK    2  A    between atoms: C_2  and  C_3
REMARK    3  A    between atoms: C_2  and  C_4
REMARK    4  A    between atoms: C_4  and  N_5
REMARK    5  A    between atoms: C_9  and  C_10
REMARK    6  A    between atoms: C_15  and  C_17
REMARK                            x       y       z     vdW  Elec       q    Type
REMARK                         _______ _______ _______ _____ _____    ______ ____
ROOT
ATOM      1  C   UNL     1       4.073   4.164  18.310  0.00  0.00    +0.000 C 
ATOM      2  C   UNL     1       3.419   3.122  17.392  0.00  0.00    +0.000 C 
ATOM      3  C   UNL     1       1.941   3.461  17.350  0.00  0.00    +0.000 C 
ATOM      4  C   UNL     1       1.808   4.801  18.043  0.00  0.00    +0.000 C 
ATOM      5  N   UNL     1       3.148   5.300  18.308  0.00  0.00    +0.000 N 
ATOM      6  C   UNL     1       3.440   6.480  19.014  0.00  0.00    +0.000 C 
ATOM      7  O   UNL     1       4.577   6.725  19.408  0.00  0.00    +0.000 OA
ENDROOT
BRANCH   6   8
ATOM      8  C   UNL     1       2.384   7.519  19.258  0.00  0.00    +0.000 A 
ATOM      9  C   UNL     1       1.728   7.686  20.489  0.00  0.00    +0.000 A 
ATOM     10  C   UNL     1       0.718   8.641  20.647  0.00  0.00    +0.000 A 
ATOM     11  C   UNL     1       0.414   9.498  19.599  0.00  0.00    +0.000 A 
ATOM     12  F   UNL     1      -0.546  10.416  19.757  0.00  0.00    +0.000 F 
ATOM     13  C   UNL     1       1.103   9.421  18.398  0.00  0.00    +0.000 A 
ATOM     14  C   UNL     1       2.079   8.429  18.234  0.00  0.00    +0.000 A 
ATOM     15  F   UNL     1       2.702   8.371  17.047  0.00  0.00    +0.000 F 
ENDBRANCH   6   8
BRANCH   1  20
ATOM     16  N   UNL     1       6.072   4.430  16.656  0.00  0.00    +0.000 N 
ATOM     17  C   UNL     1       7.420   4.515  16.872  0.00  0.00    +0.000 A 
ATOM     18  N   UNL     1       7.683   4.393  18.150  0.00  0.00    +0.000 NA
ATOM     19  N   UNL     1       6.484   4.284  18.794  0.00  0.00    +0.000 NA
ATOM     20  C   UNL     1       5.504   4.338  17.908  0.00  0.00    +0.000 A 
BRANCH  16  21
ATOM     21  C   UNL     1       5.441   4.551  15.360  0.00  0.00    +0.000 C 
BRANCH  21  23
ATOM     22  C   UNL     1       5.323   3.576  12.994  0.00  0.00    +0.000 C 
ATOM     23  C   UNL     1       6.231   3.978  14.160  0.00  0.00    +0.000 C 
ATOM     24  C   UNL     1       7.247   5.016  13.673  0.00  0.00    +0.000 C 
ENDBRANCH  21  23
ENDBRANCH  16  21
ENDBRANCH   1  20
TORSDOF 4
ENDMDL
MODEL 9
REMARK VINA RESULT:      -7.0      3.084      6.538
REMARK  Name = 
REMARK  6 active torsions:
REMARK  status: ('A' for Active; 'I' for Inactive)
REMARK    1  A    between atoms: C_1  and  C_2
REMARK    2  A    between atoms: C_2  and  C_3
REMARK    3  A    between atoms: C_2  and  C_4
REMARK    4  A    between atoms: C_4  and  N_5
REMARK    5  A    between atoms: C_9  and  C_10
REMARK    6  A    between atoms: C_15  and  C_17
REMARK                            x       y       z     vdW  Elec       q    Type
REMARK                         _______ _______ _______ _____ _____    ______ ____
ROOT
ATOM      1  C   UNL     1       2.986   5.460  20.306  0.00  0.00    +0.000 C 
ATOM      2  C   UNL     1       1.871   6.510  20.188  0.00  0.00    +0.000 C 
ATOM      3  C   UNL     1       2.228   7.376  18.995  0.00  0.00    +0.000 C 
ATOM      4  C   UNL     1       3.394   6.683  18.320  0.00  0.00    +0.000 C 
ATOM      5  N   UNL     1       3.586   5.397  18.972  0.00  0.00    +0.000 N 
ATOM      6  C   UNL     1       4.625   4.498  18.680  0.00  0.00    +0.000 C 
ATOM      7  O   UNL     1       4.872   3.546  19.416  0.00  0.00    +0.000 OA
ENDROOT
BRANCH   6   8
ATOM      8  C   UNL     1       5.434   4.627  17.422  0.00  0.00    +0.000 A 
ATOM      9  C   UNL     1       5.158   3.913  16.244  0.00  0.00    +0.000 A 
ATOM     10  C   UNL     1       5.974   4.038  15.115  0.00  0.00    +0.000 A 
ATOM     11  C   UNL     1       7.024   4.944  15.123  0.00  0.00    +0.000 A 
ATOM     12  F   UNL     1       7.797   5.067  14.037  0.00  0.00    +0.000 F 
ATOM     13  C   UNL     1       7.271   5.731  16.238  0.00  0.00    +0.000 A 
ATOM     14  C   UNL     1       6.480   5.564  17.381  0.00  0.00    +0.000 A 
ATOM     15  F   UNL     1       6.770   6.325  18.446  0.00  0.00    +0.000 F 
ENDBRANCH   6   8
BRANCH   1  20
ATOM     16  N   UNL     1       1.356   3.447  20.608  0.00  0.00    +0.000 N 
ATOM     17  C   UNL     1       1.263   2.496  21.587  0.00  0.00    +0.000 A 
ATOM     18  N   UNL     1       2.150   2.723  22.524  0.00  0.00    +0.000 NA
ATOM     19  N   UNL     1       2.879   3.808  22.127  0.00  0.00    +0.000 NA
ATOM     20  C   UNL     1       2.432   4.233  20.958  0.00  0.00    +0.000 A 
BRANCH  16  21
ATOM     21  C   UNL     1       0.539   3.475  19.415  0.00  0.00    +0.000 C 
BRANCH  21  23
ATOM     22  C   UNL     1       1.636   3.677  17.109  0.00  0.00    +0.000 C 
ATOM     23  C   UNL     1       1.100   2.727  18.183  0.00  0.00    +0.000 C 
ATOM     24  C   UNL     1       2.224   1.783  18.626  0.00  0.00    +0.000 C 
ENDBRANCH  21  23
ENDBRANCH  16  21
ENDBRANCH   1  20
TORSDOF 4
ENDMDL
