MODEL 1
REMARK VINA RESULT:      -7.7      0.000      0.000
REMARK  Name = 
REMARK  10 active torsions:
REMARK  status: ('A' for Active; 'I' for Inactive)
REMARK    1  A    between atoms: C_1  and  C_2
REMARK    2  A    between atoms: C_5  and  N_6
REMARK    3  A    between atoms: C_7  and  C_9
REMARK    4  A    between atoms: C_13  and  C_15
REMARK    5  A    between atoms: C_15  and  C_16
REMARK    6  A    between atoms: C_15  and  C_17
REMARK    7  A    between atoms: C_20  and  C_21
REMARK    8  A    between atoms: C_21  and  C_22
REMARK    9  A    between atoms: C_22  and  C_23
REMARK   10  A    between atoms: C_22  and  C_24
REMARK                            x       y       z     vdW  Elec       q    Type
REMARK                         _______ _______ _______ _____ _____    ______ ____
ROOT
ATOM      1  C   UNL     1       3.105  15.086  18.504  0.00  0.00    +0.000 C 
ATOM      2  C   UNL     1       2.237  15.153  19.758  0.00  0.00    +0.000 C 
ATOM      3  C   UNL     1       2.195  13.819  20.499  0.00  0.00    +0.000 C 
ATOM      4  N   UNL     1       1.801  12.705  19.636  0.00  0.00    +0.000 N 
ATOM      5  C   UNL     1       1.255  11.588  20.284  0.00  0.00    +0.000 C 
ATOM      6  O   UNL     1       1.134  11.574  21.514  0.00  0.00    +0.000 OA
ATOM      7  C   UNL     1       2.543  12.588  18.380  0.00  0.00    +0.000 C 
ATOM      8  C   UNL     1       2.614  13.921  17.622  0.00  0.00    +0.000 C 
ENDROOT
BRANCH   1  10
ATOM      9  N   UNL     1       5.408  14.702  17.684  0.00  0.00    +0.000 N 
ATOM     10  C   UNL     1       4.609  14.951  18.786  0.00  0.00    +0.000 C 
ATOM     11  O   UNL     1       5.020  15.035  19.943  0.00  0.00    +0.000 OA
ATOM     12  H   UNL     1       5.013  14.818  16.762  0.00  0.00    +0.000 HD
BRANCH   9  17
ATOM     13  C   UNL     1      11.054  13.692  18.061  0.00  0.00    +0.000 C 
ATOM     14  C   UNL     1       9.583  13.957  17.929  0.00  0.00    +0.000 A 
ATOM     15  C   UNL     1       8.710  12.926  17.587  0.00  0.00    +0.000 A 
ATOM     16  C   UNL     1       7.337  13.162  17.489  0.00  0.00    +0.000 A 
ATOM     17  C   UNL     1       6.801  14.427  17.738  0.00  0.00    +0.000 A 
ATOM     18  C   UNL     1       7.680  15.473  18.044  0.00  0.00    +0.000 A 
ATOM     19  C   UNL     1       9.059  15.236  18.150  0.00  0.00    +0.000 A 
ENDBRANCH   9  17
ENDBRANCH   1  10
BRANCH   5  20
ATOM     20  C   UNL     1       0.709  10.427  19.434  0.00  0.00    +0.000 C 
ATOM     21  C   UNL     1      -0.712  10.095  19.945  0.00  0.00    +0.000 C 
BRANCH  20  22
ATOM     22  C   UNL     1       1.478   9.109  19.463  0.00  0.00    +0.000 A 
ATOM     23  C   UNL     1       1.486   8.237  20.558  0.00  0.00    +0.000 A 
ATOM     24  C   UNL     1       1.913   6.906  20.409  0.00  0.00    +0.000 A 
ATOM     25  C   UNL     1       2.300   6.409  19.159  0.00  0.00    +0.000 A 
ATOM     26  C   UNL     1       2.397   7.315  18.094  0.00  0.00    +0.000 A 
ATOM     27  C   UNL     1       2.013   8.647  18.249  0.00  0.00    +0.000 A 
BRANCH  25  28
ATOM     28  C   UNL     1       2.647   4.962  18.882  0.00  0.00    +0.000 C 
BRANCH  28  29
ATOM     29  C   UNL     1       3.243   4.569  17.512  0.00  0.00    +0.000 C 
ATOM     30  C   UNL     1       4.774   4.547  17.497  0.00  0.00    +0.000 C 
ATOM     31  C   UNL     1       2.731   3.172  17.131  0.00  0.00    +0.000 C 
ENDBRANCH  28  29
ENDBRANCH  25  28
ENDBRANCH  20  22
ENDBRANCH   5  20
TORSDOF 6
ENDMDL
MODEL 2
REMARK VINA RESULT:      -7.7      5.481      8.830
REMARK  Name = 
REMARK  10 active torsions:
REMARK  status: ('A' for Active; 'I' for Inactive)
REMARK    1  A    between atoms: C_1  and  C_2
REMARK    2  A    between atoms: C_5  and  N_6
REMARK    3  A    between atoms: C_7  and  C_9
REMARK    4  A    between atoms: C_13  and  C_15
REMARK    5  A    between atoms: C_15  and  C_16
REMARK    6  A    between atoms: C_15  and  C_17
REMARK    7  A    between atoms: C_20  and  C_21
REMARK    8  A    between atoms: C_21  and  C_22
REMARK    9  A    between atoms: C_22  and  C_23
REMARK   10  A    between atoms: C_22  and  C_24
REMARK                            x       y       z     vdW  Elec       q    Type
REMARK                         _______ _______ _______ _____ _____    ______ ____
ROOT
ATOM      1  C   UNL     1       6.934   6.472  17.332  0.00  0.00    +0.000 C 
ATOM      2  C   UNL     1       7.071   5.927  18.752  0.00  0.00    +0.000 C 
ATOM      3  C   UNL     1       5.962   4.936  19.096  0.00  0.00    +0.000 C 
ATOM      4  N   UNL     1       4.625   5.480  18.860  0.00  0.00    +0.000 N 
ATOM      5  C   UNL     1       3.583   4.887  19.587  0.00  0.00    +0.000 C 
ATOM      6  O   UNL     1       3.813   3.957  20.368  0.00  0.00    +0.000 OA
ATOM      7  C   UNL     1       4.410   6.074  17.539  0.00  0.00    +0.000 C 
ATOM      8  C   UNL     1       5.521   7.064  17.162  0.00  0.00    +0.000 C 
ENDROOT
BRANCH   1  10
ATOM      9  N   UNL     1       6.564   5.639  15.031  0.00  0.00    +0.000 N 
ATOM     10  C   UNL     1       7.222   5.439  16.232  0.00  0.00    +0.000 C 
ATOM     11  O   UNL     1       7.973   4.493  16.468  0.00  0.00    +0.000 OA
ATOM     12  H   UNL     1       6.107   6.525  14.871  0.00  0.00    +0.000 HD
BRANCH   9  17
ATOM     13  C   UNL     1       6.881   2.002  10.592  0.00  0.00    +0.000 C 
ATOM     14  C   UNL     1       6.773   2.968  11.735  0.00  0.00    +0.000 A 
ATOM     15  C   UNL     1       5.773   2.814  12.694  0.00  0.00    +0.000 A 
ATOM     16  C   UNL     1       5.686   3.695  13.775  0.00  0.00    +0.000 A 
ATOM     17  C   UNL     1       6.596   4.742  13.929  0.00  0.00    +0.000 A 
ATOM     18  C   UNL     1       7.577   4.922  12.946  0.00  0.00    +0.000 A 
ATOM     19  C   UNL     1       7.671   4.034  11.865  0.00  0.00    +0.000 A 
ENDBRANCH   9  17
ENDBRANCH   1  10
BRANCH   5  20
ATOM     20  C   UNL     1       2.168   5.482  19.480  0.00  0.00    +0.000 C 
ATOM     21  C   UNL     1       1.562   5.026  18.133  0.00  0.00    +0.000 C 
BRANCH  20  22
ATOM     22  C   UNL     1       2.039   7.004  19.497  0.00  0.00    +0.000 A 
ATOM     23  C   UNL     1       2.107   7.803  18.350  0.00  0.00    +0.000 A 
ATOM     24  C   UNL     1       1.644   9.131  18.375  0.00  0.00    +0.000 A 
ATOM     25  C   UNL     1       1.069   9.671  19.531  0.00  0.00    +0.000 A 
ATOM     26  C   UNL     1       1.108   8.905  20.703  0.00  0.00    +0.000 A 
ATOM     27  C   UNL     1       1.603   7.602  20.692  0.00  0.00    +0.000 A 
BRANCH  25  28
ATOM     28  C   UNL     1       0.429  11.040  19.608  0.00  0.00    +0.000 C 
BRANCH  28  29
ATOM     29  C   UNL     1      -1.109  11.160  19.692  0.00  0.00    +0.000 C 
ATOM     30  C   UNL     1      -1.602  12.603  19.830  0.00  0.00    +0.000 C 
ATOM     31  C   UNL     1      -1.724  10.553  18.422  0.00  0.00    +0.000 C 
ENDBRANCH  28  29
ENDBRANCH  25  28
ENDBRANCH  20  22
ENDBRANCH   5  20
TORSDOF 6
ENDMDL
MODEL 3
REMARK VINA RESULT:      -7.7      2.892      5.523
REMARK  Name = 
REMARK  10 active torsions:
REMARK  status: ('A' for Active; 'I' for Inactive)
REMARK    1  A    between atoms: C_1  and  C_2
REMARK    2  A    between atoms: C_5  and  N_6
REMARK    3  A    between atoms: C_7  and  C_9
REMARK    4  A    between atoms: C_13  and  C_15
REMARK    5  A    between atoms: C_15  and  C_16
REMARK    6  A    between atoms: C_15  and  C_17
REMARK    7  A    between atoms: C_20  and  C_21
REMARK    8  A    between atoms: C_21  and  C_22
REMARK    9  A    between atoms: C_22  and  C_23
REMARK   10  A    between atoms: C_22  and  C_24
REMARK                            x       y       z     vdW  Elec       q    Type
REMARK                         _______ _______ _______ _____ _____    ______ ____
ROOT
ATOM      1  C   UNL     1      -0.210  10.266  20.205  0.00  0.00    +0.000 C 
ATOM      2  C   UNL     1       0.099   9.172  21.224  0.00  0.00    +0.000 C 
ATOM      3  C   UNL     1       1.411   8.455  20.916  0.00  0.00    +0.000 C 
ATOM      4  N   UNL     1       1.467   7.941  19.547  0.00  0.00    +0.000 N 
ATOM      5  C   UNL     1       2.353   6.878  19.325  0.00  0.00    +0.000 C 
ATOM      6  O   UNL     1       3.037   6.428  20.251  0.00  0.00    +0.000 OA
ATOM      7  C   UNL     1       1.134   8.906  18.498  0.00  0.00    +0.000 C 
ATOM      8  C   UNL     1      -0.175   9.653  18.791  0.00  0.00    +0.000 C 
ENDROOT
BRANCH   1  10
ATOM      9  N   UNL     1       0.813  12.252  19.140  0.00  0.00    +0.000 N 
ATOM     10  C   UNL     1       0.723  11.484  20.288  0.00  0.00    +0.000 C 
ATOM     11  O   UNL     1       1.352  11.698  21.323  0.00  0.00    +0.000 OA
ATOM     12  H   UNL     1       0.138  12.104  18.403  0.00  0.00    +0.000 HD
BRANCH   9  17
ATOM     13  C   UNL     1       4.367  16.737  18.603  0.00  0.00    +0.000 C 
ATOM     14  C   UNL     1       3.431  15.570  18.710  0.00  0.00    +0.000 A 
ATOM     15  C   UNL     1       3.828  14.307  18.272  0.00  0.00    +0.000 A 
ATOM     16  C   UNL     1       2.970  13.211  18.395  0.00  0.00    +0.000 A 
ATOM     17  C   UNL     1       1.703  13.346  18.964  0.00  0.00    +0.000 A 
ATOM     18  C   UNL     1       1.287  14.620  19.369  0.00  0.00    +0.000 A 
ATOM     19  C   UNL     1       2.150  15.720  19.254  0.00  0.00    +0.000 A 
ENDBRANCH   9  17
ENDBRANCH   1  10
BRANCH   5  20
ATOM     20  C   UNL     1       2.380   6.208  17.940  0.00  0.00    +0.000 C 
ATOM     21  C   UNL     1       1.458   4.968  17.996  0.00  0.00    +0.000 C 
BRANCH  20  22
ATOM     22  C   UNL     1       3.725   5.700  17.428  0.00  0.00    +0.000 A 
ATOM     23  C   UNL     1       4.039   4.345  17.278  0.00  0.00    +0.000 A 
ATOM     24  C   UNL     1       5.136   3.947  16.493  0.00  0.00    +0.000 A 
ATOM     25  C   UNL     1       5.913   4.890  15.810  0.00  0.00    +0.000 A 
ATOM     26  C   UNL     1       5.663   6.247  16.055  0.00  0.00    +0.000 A 
ATOM     27  C   UNL     1       4.601   6.645  16.867  0.00  0.00    +0.000 A 
BRANCH  25  28
ATOM     28  C   UNL     1       7.025   4.545  14.843  0.00  0.00    +0.000 C 
BRANCH  28  29
ATOM     29  C   UNL     1       6.861   4.876  13.343  0.00  0.00    +0.000 C 
ATOM     30  C   UNL     1       8.138   5.420  12.695  0.00  0.00    +0.000 C 
ATOM     31  C   UNL     1       6.440   3.601  12.597  0.00  0.00    +0.000 C 
ENDBRANCH  28  29
ENDBRANCH  25  28
ENDBRANCH  20  22
ENDBRANCH   5  20
TORSDOF 6
ENDMDL
MODEL 4
REMARK VINA RESULT:      -7.6      3.926      6.965
REMARK  Name = 
REMARK  10 active torsions:
REMARK  status: ('A' for Active; 'I' for Inactive)
REMARK    1  A    between atoms: C_1  and  C_2
REMARK    2  A    between atoms: C_5  and  N_6
REMARK    3  A    between atoms: C_7  and  C_9
REMARK    4  A    between atoms: C_13  and  C_15
REMARK    5  A    between atoms: C_15  and  C_16
REMARK    6  A    between atoms: C_15  and  C_17
REMARK    7  A    between atoms: C_20  and  C_21
REMARK    8  A    between atoms: C_21  and  C_22
REMARK    9  A    between atoms: C_22  and  C_23
REMARK   10  A    between atoms: C_22  and  C_24
REMARK                            x       y       z     vdW  Elec       q    Type
REMARK                         _______ _______ _______ _____ _____    ______ ____
ROOT
ATOM      1  C   UNL     1       7.996   5.631  18.626  0.00  0.00    +0.000 C 
ATOM      2  C   UNL     1       7.760   4.625  17.502  0.00  0.00    +0.000 C 
ATOM      3  C   UNL     1       6.341   4.710  16.946  0.00  0.00    +0.000 C 
ATOM      4  N   UNL     1       5.318   4.597  17.986  0.00  0.00    +0.000 N 
ATOM      5  C   UNL     1       4.055   4.164  17.561  0.00  0.00    +0.000 C 
ATOM      6  O   UNL     1       3.848   3.906  16.370  0.00  0.00    +0.000 OA
ATOM      7  C   UNL     1       5.488   5.488  19.135  0.00  0.00    +0.000 C 
ATOM      8  C   UNL     1       6.912   5.434  19.704  0.00  0.00    +0.000 C 
ENDROOT
BRANCH   1  10
ATOM      9  N   UNL     1       8.738   7.966  18.977  0.00  0.00    +0.000 N 
ATOM     10  C   UNL     1       8.036   7.095  18.163  0.00  0.00    +0.000 C 
ATOM     11  O   UNL     1       7.436   7.425  17.140  0.00  0.00    +0.000 OA
ATOM     12  H   UNL     1       9.336   7.583  19.695  0.00  0.00    +0.000 HD
BRANCH   9  17
ATOM     13  C   UNL     1       8.799  13.662  18.210  0.00  0.00    +0.000 C 
ATOM     14  C   UNL     1       8.814  12.173  18.396  0.00  0.00    +0.000 A 
ATOM     15  C   UNL     1       9.515  11.604  19.457  0.00  0.00    +0.000 A 
ATOM     16  C   UNL     1       9.509  10.220  19.651  0.00  0.00    +0.000 A 
ATOM     17  C   UNL     1       8.799   9.374  18.797  0.00  0.00    +0.000 A 
ATOM     18  C   UNL     1       8.126   9.940  17.708  0.00  0.00    +0.000 A 
ATOM     19  C   UNL     1       8.124  11.330  17.517  0.00  0.00    +0.000 A 
ENDBRANCH   9  17
ENDBRANCH   1  10
BRANCH   5  20
ATOM     20  C   UNL     1       2.962   3.909  18.614  0.00  0.00    +0.000 C 
ATOM     21  C   UNL     1       1.870   3.031  17.961  0.00  0.00    +0.000 C 
BRANCH  20  22
ATOM     22  C   UNL     1       2.231   5.124  19.181  0.00  0.00    +0.000 A 
ATOM     23  C   UNL     1       1.687   5.172  20.470  0.00  0.00    +0.000 A 
ATOM     24  C   UNL     1       1.341   6.403  21.055  0.00  0.00    +0.000 A 
ATOM     25  C   UNL     1       1.571   7.609  20.382  0.00  0.00    +0.000 A 
ATOM     26  C   UNL     1       2.009   7.546  19.053  0.00  0.00    +0.000 A 
ATOM     27  C   UNL     1       2.314   6.324  18.455  0.00  0.00    +0.000 A 
BRANCH  25  28
ATOM     28  C   UNL     1       1.352   8.981  20.985  0.00  0.00    +0.000 C 
BRANCH  28  29
ATOM     29  C   UNL     1      -0.085   9.521  21.150  0.00  0.00    +0.000 C 
ATOM     30  C   UNL     1      -0.268  10.401  22.390  0.00  0.00    +0.000 C 
ATOM     31  C   UNL     1      -0.451  10.347  19.907  0.00  0.00    +0.000 C 
ENDBRANCH  28  29
ENDBRANCH  25  28
ENDBRANCH  20  22
ENDBRANCH   5  20
TORSDOF 6
ENDMDL
MODEL 5
REMARK VINA RESULT:      -7.6      5.466      8.849
REMARK  Name = 
REMARK  10 active torsions:
REMARK  status: ('A' for Active; 'I' for Inactive)
REMARK    1  A    between atoms: C_1  and  C_2
REMARK    2  A    between atoms: C_5  and  N_6
REMARK    3  A    between atoms: C_7  and  C_9
REMARK    4  A    between atoms: C_13  and  C_15
REMARK    5  A    between atoms: C_15  and  C_16
REMARK    6  A    between atoms: C_15  and  C_17
REMARK    7  A    between atoms: C_20  and  C_21
REMARK    8  A    between atoms: C_21  and  C_22
REMARK    9  A    between atoms: C_22  and  C_23
REMARK   10  A    between atoms: C_22  and  C_24
REMARK                            x       y       z     vdW  Elec       q    Type
REMARK                         _______ _______ _______ _____ _____    ______ ____
ROOT
ATOM      1  C   UNL     1       6.954   6.481  17.354  0.00  0.00    +0.000 C 
ATOM      2  C   UNL     1       7.067   5.941  18.778  0.00  0.00    +0.000 C 
ATOM      3  C   UNL     1       5.948   4.956  19.108  0.00  0.00    +0.000 C 
ATOM      4  N   UNL     1       4.617   5.505  18.849  0.00  0.00    +0.000 N 
ATOM      5  C   UNL     1       3.561   4.918  19.562  0.00  0.00    +0.000 C 
ATOM      6  O   UNL     1       3.776   3.990  20.350  0.00  0.00    +0.000 OA
ATOM      7  C   UNL     1       4.425   6.094  17.524  0.00  0.00    +0.000 C 
ATOM      8  C   UNL     1       5.546   7.078  17.160  0.00  0.00    +0.000 C 
ENDROOT
BRANCH   1  10
ATOM      9  N   UNL     1       6.622   5.647  15.048  0.00  0.00    +0.000 N 
ATOM     10  C   UNL     1       7.254   5.443  16.262  0.00  0.00    +0.000 C 
ATOM     11  O   UNL     1       7.993   4.492  16.515  0.00  0.00    +0.000 OA
ATOM     12  H   UNL     1       6.176   6.536  14.877  0.00  0.00    +0.000 HD
BRANCH   9  17
ATOM     13  C   UNL     1       6.619   2.020  10.589  0.00  0.00    +0.000 C 
ATOM     14  C   UNL     1       6.645   2.948  11.767  0.00  0.00    +0.000 A 
ATOM     15  C   UNL     1       7.610   3.952  11.851  0.00  0.00    +0.000 A 
ATOM     16  C   UNL     1       7.621   4.836  12.932  0.00  0.00    +0.000 A 
ATOM     17  C   UNL     1       6.668   4.747  13.949  0.00  0.00    +0.000 A 
ATOM     18  C   UNL     1       5.723   3.716  13.886  0.00  0.00    +0.000 A 
ATOM     19  C   UNL     1       5.705   2.832  12.798  0.00  0.00    +0.000 A 
ENDBRANCH   9  17
ENDBRANCH   1  10
BRANCH   5  20
ATOM     20  C   UNL     1       2.151   5.519  19.431  0.00  0.00    +0.000 C 
ATOM     21  C   UNL     1       1.573   5.079  18.067  0.00  0.00    +0.000 C 
BRANCH  20  22
ATOM     22  C   UNL     1       2.026   7.040  19.462  0.00  0.00    +0.000 A 
ATOM     23  C   UNL     1       2.098   7.850  18.322  0.00  0.00    +0.000 A 
ATOM     24  C   UNL     1       1.640   9.179  18.358  0.00  0.00    +0.000 A 
ATOM     25  C   UNL     1       1.063   9.710  19.518  0.00  0.00    +0.000 A 
ATOM     26  C   UNL     1       1.098   8.933  20.683  0.00  0.00    +0.000 A 
ATOM     27  C   UNL     1       1.590   7.629  20.661  0.00  0.00    +0.000 A 
BRANCH  25  28
ATOM     28  C   UNL     1       0.426  11.080  19.607  0.00  0.00    +0.000 C 
BRANCH  28  29
ATOM     29  C   UNL     1      -0.714  11.456  18.635  0.00  0.00    +0.000 C 
ATOM     30  C   UNL     1      -1.698  10.310  18.378  0.00  0.00    +0.000 C 
ATOM     31  C   UNL     1      -1.491  12.646  19.218  0.00  0.00    +0.000 C 
ENDBRANCH  28  29
ENDBRANCH  25  28
ENDBRANCH  20  22
ENDBRANCH   5  20
TORSDOF 6
ENDMDL
MODEL 6
REMARK VINA RESULT:      -7.4      5.278      8.876
REMARK  Name = 
REMARK  10 active torsions:
REMARK  status: ('A' for Active; 'I' for Inactive)
REMARK    1  A    between atoms: C_1  and  C_2
REMARK    2  A    between atoms: C_5  and  N_6
REMARK    3  A    between atoms: C_7  and  C_9
REMARK    4  A    between atoms: C_13  and  C_15
REMARK    5  A    between atoms: C_15  and  C_16
REMARK    6  A    between atoms: C_15  and  C_17
REMARK    7  A    between atoms: C_20  and  C_21
REMARK    8  A    between atoms: C_21  and  C_22
REMARK    9  A    between atoms: C_22  and  C_23
REMARK   10  A    between atoms: C_22  and  C_24
REMARK                            x       y       z     vdW  Elec       q    Type
REMARK                         _______ _______ _______ _____ _____    ______ ____
ROOT
ATOM      1  C   UNL     1       6.974   6.482  17.451  0.00  0.00    +0.000 C 
ATOM      2  C   UNL     1       7.057   5.920  18.868  0.00  0.00    +0.000 C 
ATOM      3  C   UNL     1       5.926   4.939  19.164  0.00  0.00    +0.000 C 
ATOM      4  N   UNL     1       4.604   5.500  18.889  0.00  0.00    +0.000 N 
ATOM      5  C   UNL     1       3.531   4.912  19.574  0.00  0.00    +0.000 C 
ATOM      6  O   UNL     1       3.725   3.971  20.352  0.00  0.00    +0.000 OA
ATOM      7  C   UNL     1       4.440   6.110  17.569  0.00  0.00    +0.000 C 
ATOM      8  C   UNL     1       5.574   7.091  17.240  0.00  0.00    +0.000 C 
ENDROOT
BRANCH   1  10
ATOM      9  N   UNL     1       6.681   5.684  15.126  0.00  0.00    +0.000 N 
ATOM     10  C   UNL     1       7.287   5.457  16.349  0.00  0.00    +0.000 C 
ATOM     11  O   UNL     1       8.012   4.496  16.602  0.00  0.00    +0.000 OA
ATOM     12  H   UNL     1       6.246   6.580  14.959  0.00  0.00    +0.000 HD
BRANCH   9  17
ATOM     13  C   UNL     1       6.735   2.102  10.632  0.00  0.00    +0.000 C 
ATOM     14  C   UNL     1       6.749   3.021  11.817  0.00  0.00    +0.000 A 
ATOM     15  C   UNL     1       7.604   4.122  11.844  0.00  0.00    +0.000 A 
ATOM     16  C   UNL     1       7.601   4.997  12.933  0.00  0.00    +0.000 A 
ATOM     17  C   UNL     1       6.741   4.801  14.015  0.00  0.00    +0.000 A 
ATOM     18  C   UNL     1       5.909   3.675  14.008  0.00  0.00    +0.000 A 
ATOM     19  C   UNL     1       5.905   2.800  12.912  0.00  0.00    +0.000 A 
ENDBRANCH   9  17
ENDBRANCH   1  10
BRANCH   5  20
ATOM     20  C   UNL     1       2.127   5.524  19.426  0.00  0.00    +0.000 C 
ATOM     21  C   UNL     1       1.572   5.108  18.046  0.00  0.00    +0.000 C 
BRANCH  20  22
ATOM     22  C   UNL     1       2.012   7.045  19.477  0.00  0.00    +0.000 A 
ATOM     23  C   UNL     1       2.046   7.866  18.344  0.00  0.00    +0.000 A 
ATOM     24  C   UNL     1       1.596   9.197  18.410  0.00  0.00    +0.000 A 
ATOM     25  C   UNL     1       1.067   9.719  19.596  0.00  0.00    +0.000 A 
ATOM     26  C   UNL     1       1.141   8.930  20.751  0.00  0.00    +0.000 A 
ATOM     27  C   UNL     1       1.625   7.624  20.698  0.00  0.00    +0.000 A 
BRANCH  25  28
ATOM     28  C   UNL     1       0.442  11.092  19.722  0.00  0.00    +0.000 C 
BRANCH  28  29
ATOM     29  C   UNL     1       0.369  11.772  21.107  0.00  0.00    +0.000 C 
ATOM     30  C   UNL     1       0.789  13.246  21.086  0.00  0.00    +0.000 C 
ATOM     31  C   UNL     1      -1.073  11.683  21.629  0.00  0.00    +0.000 C 
ENDBRANCH  28  29
ENDBRANCH  25  28
ENDBRANCH  20  22
ENDBRANCH   5  20
TORSDOF 6
ENDMDL
MODEL 7
REMARK VINA RESULT:      -7.4      4.014      7.751
REMARK  Name = 
REMARK  10 active torsions:
REMARK  status: ('A' for Active; 'I' for Inactive)
REMARK    1  A    between atoms: C_1  and  C_2
REMARK    2  A    between atoms: C_5  and  N_6
REMARK    3  A    between atoms: C_7  and  C_9
REMARK    4  A    between atoms: C_13  and  C_15
REMARK    5  A    between atoms: C_15  and  C_16
REMARK    6  A    between atoms: C_15  and  C_17
REMARK    7  A    between atoms: C_20  and  C_21
REMARK    8  A    between atoms: C_21  and  C_22
REMARK    9  A    between atoms: C_22  and  C_23
REMARK   10  A    between atoms: C_22  and  C_24
REMARK                            x       y       z     vdW  Elec       q    Type
REMARK                         _______ _______ _______ _____ _____    ______ ____
ROOT
ATOM      1  C   UNL     1       2.165   6.583  18.128  0.00  0.00    +0.000 C 
ATOM      2  C   UNL     1       2.555   5.385  18.991  0.00  0.00    +0.000 C 
ATOM      3  C   UNL     1       3.969   5.515  19.549  0.00  0.00    +0.000 C 
ATOM      4  N   UNL     1       4.966   5.771  18.508  0.00  0.00    +0.000 N 
ATOM      5  C   UNL     1       6.285   5.412  18.819  0.00  0.00    +0.000 C 
ATOM      6  O   UNL     1       6.558   4.917  19.919  0.00  0.00    +0.000 OA
ATOM      7  C   UNL     1       4.656   6.872  17.596  0.00  0.00    +0.000 C 
ATOM      8  C   UNL     1       3.231   6.773  17.032  0.00  0.00    +0.000 C 
ENDROOT
BRANCH   1  10
ATOM      9  N   UNL     1       1.664   9.007  18.162  0.00  0.00    +0.000 N 
ATOM     10  C   UNL     1       1.964   7.887  18.917  0.00  0.00    +0.000 C 
ATOM     11  O   UNL     1       2.105   7.885  20.140  0.00  0.00    +0.000 OA
ATOM     12  H   UNL     1       1.402   8.884  17.195  0.00  0.00    +0.000 HD
BRANCH   9  17
ATOM     13  C   UNL     1       1.218  14.411  20.067  0.00  0.00    +0.000 C 
ATOM     14  C   UNL     1       1.357  12.994  19.595  0.00  0.00    +0.000 A 
ATOM     15  C   UNL     1       0.678  11.965  20.245  0.00  0.00    +0.000 A 
ATOM     16  C   UNL     1       0.782  10.648  19.792  0.00  0.00    +0.000 A 
ATOM     17  C   UNL     1       1.558  10.327  18.677  0.00  0.00    +0.000 A 
ATOM     18  C   UNL     1       2.272  11.353  18.045  0.00  0.00    +0.000 A 
ATOM     19  C   UNL     1       2.162  12.677  18.494  0.00  0.00    +0.000 A 
ENDBRANCH   9  17
ENDBRANCH   1  10
BRANCH   5  20
ATOM     20  C   UNL     1       7.367   5.541  17.733  0.00  0.00    +0.000 C 
ATOM     21  C   UNL     1       7.531   7.042  17.404  0.00  0.00    +0.000 C 
BRANCH  20  22
ATOM     22  C   UNL     1       7.112   4.850  16.396  0.00  0.00    +0.000 A 
ATOM     23  C   UNL     1       6.067   3.945  16.176  0.00  0.00    +0.000 A 
ATOM     24  C   UNL     1       5.672   3.612  14.868  0.00  0.00    +0.000 A 
ATOM     25  C   UNL     1       6.284   4.208  13.758  0.00  0.00    +0.000 A 
ATOM     26  C   UNL     1       7.400   5.024  13.983  0.00  0.00    +0.000 A 
ATOM     27  C   UNL     1       7.820   5.323  15.278  0.00  0.00    +0.000 A 
BRANCH  25  28
ATOM     28  C   UNL     1       5.837   4.009  12.325  0.00  0.00    +0.000 C 
BRANCH  28  29
ATOM     29  C   UNL     1       4.940   2.804  11.966  0.00  0.00    +0.000 C 
ATOM     30  C   UNL     1       3.811   3.152  10.992  0.00  0.00    +0.000 C 
ATOM     31  C   UNL     1       5.812   1.709  11.332  0.00  0.00    +0.000 C 
ENDBRANCH  28  29
ENDBRANCH  25  28
ENDBRANCH  20  22
ENDBRANCH   5  20
TORSDOF 6
ENDMDL
MODEL 8
REMARK VINA RESULT:      -7.3      4.145      7.936
REMARK  Name = 
REMARK  10 active torsions:
REMARK  status: ('A' for Active; 'I' for Inactive)
REMARK    1  A    between atoms: C_1  and  C_2
REMARK    2  A    between atoms: C_5  and  N_6
REMARK    3  A    between atoms: C_7  and  C_9
REMARK    4  A    between atoms: C_13  and  C_15
REMARK    5  A    between atoms: C_15  and  C_16
REMARK    6  A    between atoms: C_15  and  C_17
REMARK    7  A    between atoms: C_20  and  C_21
REMARK    8  A    between atoms: C_21  and  C_22
REMARK    9  A    between atoms: C_22  and  C_23
REMARK   10  A    between atoms: C_22  and  C_24
REMARK                            x       y       z     vdW  Elec       q    Type
REMARK                         _______ _______ _______ _____ _____    ______ ____
ROOT
ATOM      1  C   UNL     1       2.086   6.491  18.168  0.00  0.00    +0.000 C 
ATOM      2  C   UNL     1       2.451   5.271  19.011  0.00  0.00    +0.000 C 
ATOM      3  C   UNL     1       3.863   5.371  19.583  0.00  0.00    +0.000 C 
ATOM      4  N   UNL     1       4.872   5.633  18.557  0.00  0.00    +0.000 N 
ATOM      5  C   UNL     1       6.183   5.250  18.872  0.00  0.00    +0.000 C 
ATOM      6  O   UNL     1       6.439   4.730  19.964  0.00  0.00    +0.000 OA
ATOM      7  C   UNL     1       4.585   6.755  17.663  0.00  0.00    +0.000 C 
ATOM      8  C   UNL     1       3.164   6.687  17.085  0.00  0.00    +0.000 C 
ENDROOT
BRANCH   1  10
ATOM      9  N   UNL     1       1.423   8.873  18.272  0.00  0.00    +0.000 N 
ATOM     10  C   UNL     1       1.896   7.781  18.980  0.00  0.00    +0.000 C 
ATOM     11  O   UNL     1       2.192   7.797  20.174  0.00  0.00    +0.000 OA
ATOM     12  H   UNL     1       1.048   8.725  17.347  0.00  0.00    +0.000 HD
BRANCH   9  17
ATOM     13  C   UNL     1       0.867  14.107  20.581  0.00  0.00    +0.000 C 
ATOM     14  C   UNL     1       0.994  12.751  19.951  0.00  0.00    +0.000 A 
ATOM     15  C   UNL     1       1.953  12.521  18.965  0.00  0.00    +0.000 A 
ATOM     16  C   UNL     1       2.094  11.253  18.396  0.00  0.00    +0.000 A 
ATOM     17  C   UNL     1       1.290  10.185  18.800  0.00  0.00    +0.000 A 
ATOM     18  C   UNL     1       0.301  10.424  19.762  0.00  0.00    +0.000 A 
ATOM     19  C   UNL     1       0.163  11.695  20.341  0.00  0.00    +0.000 A 
ENDBRANCH   9  17
ENDBRANCH   1  10
BRANCH   5  20
ATOM     20  C   UNL     1       7.277   5.385  17.798  0.00  0.00    +0.000 C 
ATOM     21  C   UNL     1       7.828   6.827  17.863  0.00  0.00    +0.000 C 
BRANCH  20  22
ATOM     22  C   UNL     1       6.869   5.163  16.344  0.00  0.00    +0.000 A 
ATOM     23  C   UNL     1       7.411   5.874  15.267  0.00  0.00    +0.000 A 
ATOM     24  C   UNL     1       7.263   5.402  13.951  0.00  0.00    +0.000 A 
ATOM     25  C   UNL     1       6.608   4.193  13.689  0.00  0.00    +0.000 A 
ATOM     26  C   UNL     1       5.971   3.547  14.757  0.00  0.00    +0.000 A 
ATOM     27  C   UNL     1       6.082   4.034  16.059  0.00  0.00    +0.000 A 
BRANCH  25  28
ATOM     28  C   UNL     1       6.516   3.546  12.323  0.00  0.00    +0.000 C 
BRANCH  28  29
ATOM     29  C   UNL     1       5.358   2.572  12.016  0.00  0.00    +0.000 C 
ATOM     30  C   UNL     1       4.218   3.213  11.218  0.00  0.00    +0.000 C 
ATOM     31  C   UNL     1       5.908   1.383  11.214  0.00  0.00    +0.000 C 
ENDBRANCH  28  29
ENDBRANCH  25  28
ENDBRANCH  20  22
ENDBRANCH   5  20
TORSDOF 6
ENDMDL
MODEL 9
REMARK VINA RESULT:      -7.2      4.018      6.885
REMARK  Name = 
REMARK  10 active torsions:
REMARK  status: ('A' for Active; 'I' for Inactive)
REMARK    1  A    between atoms: C_1  and  C_2
REMARK    2  A    between atoms: C_5  and  N_6
REMARK    3  A    between atoms: C_7  and  C_9
REMARK    4  A    between atoms: C_13  and  C_15
REMARK    5  A    between atoms: C_15  and  C_16
REMARK    6  A    between atoms: C_15  and  C_17
REMARK    7  A    between atoms: C_20  and  C_21
REMARK    8  A    between atoms: C_21  and  C_22
REMARK    9  A    between atoms: C_22  and  C_23
REMARK   10  A    between atoms: C_22  and  C_24
REMARK                            x       y       z     vdW  Elec       q    Type
REMARK                         _______ _______ _______ _____ _____    ______ ____
ROOT
ATOM      1  C   UNL     1       7.927   5.638  18.548  0.00  0.00    +0.000 C 
ATOM      2  C   UNL     1       7.670   4.623  17.436  0.00  0.00    +0.000 C 
ATOM      3  C   UNL     1       6.255   4.733  16.875  0.00  0.00    +0.000 C 
ATOM      4  N   UNL     1       5.228   4.657  17.915  0.00  0.00    +0.000 N 
ATOM      5  C   UNL     1       3.955   4.247  17.492  0.00  0.00    +0.000 C 
ATOM      6  O   UNL     1       3.745   3.978  16.304  0.00  0.00    +0.000 OA
ATOM      7  C   UNL     1       5.415   5.558  19.052  0.00  0.00    +0.000 C 
ATOM      8  C   UNL     1       6.837   5.480  19.626  0.00  0.00    +0.000 C 
ENDROOT
BRANCH   1  10
ATOM      9  N   UNL     1       8.656   7.975  18.908  0.00  0.00    +0.000 N 
ATOM     10  C   UNL     1       8.001   7.095  18.065  0.00  0.00    +0.000 C 
ATOM     11  O   UNL     1       7.465   7.411  17.003  0.00  0.00    +0.000 OA
ATOM     12  H   UNL     1       9.207   7.601  19.667  0.00  0.00    +0.000 HD
BRANCH   9  17
ATOM     13  C   UNL     1       9.154  13.650  18.142  0.00  0.00    +0.000 C 
ATOM     14  C   UNL     1       8.994  12.174  18.358  0.00  0.00    +0.000 A 
ATOM     15  C   UNL     1       8.194  11.421  17.499  0.00  0.00    +0.000 A 
ATOM     16  C   UNL     1       8.064  10.041  17.679  0.00  0.00    +0.000 A 
ATOM     17  C   UNL     1       8.733   9.380  18.711  0.00  0.00    +0.000 A 
ATOM     18  C   UNL     1       9.506  10.141  19.597  0.00  0.00    +0.000 A 
ATOM     19  C   UNL     1       9.644  11.524  19.413  0.00  0.00    +0.000 A 
ENDBRANCH   9  17
ENDBRANCH   1  10
BRANCH   5  20
ATOM     20  C   UNL     1       2.855   4.030  18.546  0.00  0.00    +0.000 C 
ATOM     21  C   UNL     1       1.703   3.250  17.874  0.00  0.00    +0.000 C 
BRANCH  20  22
ATOM     22  C   UNL     1       2.211   5.271  19.160  0.00  0.00    +0.000 A 
ATOM     23  C   UNL     1       1.776   5.346  20.488  0.00  0.00    +0.000 A 
ATOM     24  C   UNL     1       1.518   6.592  21.087  0.00  0.00    +0.000 A 
ATOM     25  C   UNL     1       1.728   7.785  20.386  0.00  0.00    +0.000 A 
ATOM     26  C   UNL     1       2.054   7.699  19.027  0.00  0.00    +0.000 A 
ATOM     27  C   UNL     1       2.271   6.464  18.418  0.00  0.00    +0.000 A 
BRANCH  25  28
ATOM     28  C   UNL     1       1.603   9.167  20.992  0.00  0.00    +0.000 C 
BRANCH  28  29
ATOM     29  C   UNL     1       0.459   9.462  21.988  0.00  0.00    +0.000 C 
ATOM     30  C   UNL     1      -0.115  10.876  21.856  0.00  0.00    +0.000 C 
ATOM     31  C   UNL     1      -0.674   8.451  21.755  0.00  0.00    +0.000 C 
ENDBRANCH  28  29
ENDBRANCH  25  28
ENDBRANCH  20  22
ENDBRANCH   5  20
TORSDOF 6
ENDMDL
