MODEL 1
REMARK VINA RESULT:      -7.6      0.000      0.000
REMARK  Name = 
REMARK  7 active torsions:
REMARK  status: ('A' for Active; 'I' for Inactive)
REMARK    1  A    between atoms: C_1  and  O_2
REMARK    2  A    between atoms: O_2  and  C_3
REMARK    3  A    between atoms: C_8  and  O_9
REMARK    4  A    between atoms: O_9  and  C_10
REMARK    5  A    between atoms: C_14  and  C_15
REMARK    6  A    between atoms: C_19  and  C_20
REMARK    7  A    between atoms: C_20  and  N_21
REMARK                            x       y       z     vdW  Elec       q    Type
REMARK                         _______ _______ _______ _____ _____    ______ ____
ROOT
ATOM      1  C   UNL     1      -0.115   9.212  21.616  0.00  0.00    +0.000 A 
ATOM      2  C   UNL     1       0.733   8.190  21.169  0.00  0.00    +0.000 A 
ATOM      3  C   UNL     1       1.379   8.367  19.975  0.00  0.00    +0.000 A 
ATOM      4  C   UNL     1       1.167   9.495  19.203  0.00  0.00    +0.000 A 
ATOM      5  C   UNL     1       0.291  10.497  19.576  0.00  0.00    +0.000 A 
ATOM      6  C   UNL     1      -0.368  10.360  20.808  0.00  0.00    +0.000 A 
ATOM      7  C   UNL     1       2.036   9.367  18.038  0.00  0.00    +0.000 C 
ATOM      8  O   UNL     1       2.165  10.147  17.113  0.00  0.00    +0.000 OA
ATOM      9  C   UNL     1       2.716   8.062  18.258  0.00  0.00    +0.000 C 
ATOM     10  C   UNL     1       3.612   7.526  17.428  0.00  0.00    +0.000 C 
ATOM     11  O   UNL     1       2.292   7.492  19.454  0.00  0.00    +0.000 OA
ENDROOT
BRANCH  10  12
ATOM     12  C   UNL     1       4.255   6.220  17.634  0.00  0.00    +0.000 A 
ATOM     13  C   UNL     1       5.639   6.087  17.808  0.00  0.00    +0.000 A 
ATOM     14  C   UNL     1       6.214   4.837  18.011  0.00  0.00    +0.000 A 
ATOM     15  C   UNL     1       5.410   3.696  18.042  0.00  0.00    +0.000 A 
ATOM     16  C   UNL     1       4.021   3.794  17.872  0.00  0.00    +0.000 A 
ATOM     17  C   UNL     1       3.455   5.069  17.695  0.00  0.00    +0.000 A 
BRANCH  16  18
ATOM     18  C   UNL     1       3.148   2.553  17.902  0.00  0.00    +0.000 C 
BRANCH  18  19
ATOM     19  N   UNL     1       2.323   2.343  19.086  0.00  0.00    +0.000 NA
ATOM     20  C   UNL     1       0.952   2.822  19.093  0.00  0.00    +0.000 C 
ATOM     21  C   UNL     1       0.810   3.698  20.326  0.00  0.00    +0.000 C 
ATOM     22  C   UNL     1       1.937   3.280  21.251  0.00  0.00    +0.000 C 
ATOM     23  C   UNL     1       2.951   2.562  20.377  0.00  0.00    +0.000 C 
ENDBRANCH  18  19
ENDBRANCH  16  18
ENDBRANCH  10  12
BRANCH   1  25
ATOM     24  C   UNL     1       0.145   9.467  23.936  0.00  0.00    +0.000 C 
ATOM     25  O   UNL     1      -0.723   9.118  22.853  0.00  0.00    +0.000 OA
ENDBRANCH   1  25
BRANCH   6  26
ATOM     26  O   UNL     1      -1.233  11.303  21.310  0.00  0.00    +0.000 OA
ATOM     27  C   UNL     1      -1.024  12.662  20.927  0.00  0.00    +0.000 C 
ENDBRANCH   6  26
TORSDOF 5
ENDMDL
MODEL 2
REMARK VINA RESULT:      -7.5      3.040      7.795
REMARK  Name = 
REMARK  7 active torsions:
REMARK  status: ('A' for Active; 'I' for Inactive)
REMARK    1  A    between atoms: C_1  and  O_2
REMARK    2  A    between atoms: O_2  and  C_3
REMARK    3  A    between atoms: C_8  and  O_9
REMARK    4  A    between atoms: O_9  and  C_10
REMARK    5  A    between atoms: C_14  and  C_15
REMARK    6  A    between atoms: C_19  and  C_20
REMARK    7  A    between atoms: C_20  and  N_21
REMARK                            x       y       z     vdW  Elec       q    Type
REMARK                         _______ _______ _______ _____ _____    ______ ____
ROOT
ATOM      1  C   UNL     1       2.908   4.095  20.673  0.00  0.00    +0.000 A 
ATOM      2  C   UNL     1       2.167   5.283  20.627  0.00  0.00    +0.000 A 
ATOM      3  C   UNL     1       2.452   6.181  19.634  0.00  0.00    +0.000 A 
ATOM      4  C   UNL     1       3.472   5.952  18.729  0.00  0.00    +0.000 A 
ATOM      5  C   UNL     1       4.270   4.823  18.777  0.00  0.00    +0.000 A 
ATOM      6  C   UNL     1       3.987   3.869  19.768  0.00  0.00    +0.000 A 
ATOM      7  C   UNL     1       3.465   7.080  17.804  0.00  0.00    +0.000 C 
ATOM      8  O   UNL     1       4.196   7.269  16.850  0.00  0.00    +0.000 OA
ATOM      9  C   UNL     1       2.356   7.932  18.311  0.00  0.00    +0.000 C 
ATOM     10  C   UNL     1       1.982   9.091  17.766  0.00  0.00    +0.000 C 
ATOM     11  O   UNL     1       1.761   7.342  19.421  0.00  0.00    +0.000 OA
ENDROOT
BRANCH  10  12
ATOM     12  C   UNL     1       0.907   9.946  18.292  0.00  0.00    +0.000 A 
ATOM     13  C   UNL     1      -0.422   9.822  17.867  0.00  0.00    +0.000 A 
ATOM     14  C   UNL     1      -1.416  10.640  18.393  0.00  0.00    +0.000 A 
ATOM     15  C   UNL     1      -1.094  11.599  19.355  0.00  0.00    +0.000 A 
ATOM     16  C   UNL     1       0.226  11.749  19.803  0.00  0.00    +0.000 A 
ATOM     17  C   UNL     1       1.213  10.894  19.279  0.00  0.00    +0.000 A 
BRANCH  16  18
ATOM     18  C   UNL     1       0.576  12.794  20.846  0.00  0.00    +0.000 C 
BRANCH  18  19
ATOM     19  N   UNL     1      -0.020  12.645  22.169  0.00  0.00    +0.000 NA
ATOM     20  C   UNL     1      -0.568  11.360  22.562  0.00  0.00    +0.000 C 
ATOM     21  C   UNL     1      -1.999  11.620  23.000  0.00  0.00    +0.000 C 
ATOM     22  C   UNL     1      -2.058  13.099  23.332  0.00  0.00    +0.000 C 
ATOM     23  C   UNL     1      -0.861  13.731  22.641  0.00  0.00    +0.000 C 
ENDBRANCH  18  19
ENDBRANCH  16  18
ENDBRANCH  10  12
BRANCH   1  25
ATOM     24  C   UNL     1       1.271   2.611  21.470  0.00  0.00    +0.000 C 
ATOM     25  O   UNL     1       2.602   3.122  21.604  0.00  0.00    +0.000 OA
ENDBRANCH   1  25
BRANCH   6  26
ATOM     26  O   UNL     1       4.679   2.689  19.898  0.00  0.00    +0.000 OA
ATOM     27  C   UNL     1       4.216   1.566  19.148  0.00  0.00    +0.000 C 
ENDBRANCH   6  26
TORSDOF 5
ENDMDL
MODEL 3
REMARK VINA RESULT:      -7.3      3.214      4.613
REMARK  Name = 
REMARK  7 active torsions:
REMARK  status: ('A' for Active; 'I' for Inactive)
REMARK    1  A    between atoms: C_1  and  O_2
REMARK    2  A    between atoms: O_2  and  C_3
REMARK    3  A    between atoms: C_8  and  O_9
REMARK    4  A    between atoms: O_9  and  C_10
REMARK    5  A    between atoms: C_14  and  C_15
REMARK    6  A    between atoms: C_19  and  C_20
REMARK    7  A    between atoms: C_20  and  N_21
REMARK                            x       y       z     vdW  Elec       q    Type
REMARK                         _______ _______ _______ _____ _____    ______ ____
ROOT
ATOM      1  C   UNL     1      -3.435  10.518  16.317  0.00  0.00    +0.000 A 
ATOM      2  C   UNL     1      -2.268   9.752  16.433  0.00  0.00    +0.000 A 
ATOM      3  C   UNL     1      -1.501   9.913  17.555  0.00  0.00    +0.000 A 
ATOM      4  C   UNL     1      -1.836  10.838  18.528  0.00  0.00    +0.000 A 
ATOM      5  C   UNL     1      -2.944  11.658  18.424  0.00  0.00    +0.000 A 
ATOM      6  C   UNL     1      -3.767  11.501  17.297  0.00  0.00    +0.000 A 
ATOM      7  C   UNL     1      -0.834  10.710  19.581  0.00  0.00    +0.000 C 
ATOM      8  O   UNL     1      -0.763  11.333  20.624  0.00  0.00    +0.000 OA
ATOM      9  C   UNL     1       0.067   9.643  19.070  0.00  0.00    +0.000 C 
ATOM     10  C   UNL     1       1.145   9.191  19.712  0.00  0.00    +0.000 C 
ATOM     11  O   UNL     1      -0.381   9.181  17.838  0.00  0.00    +0.000 OA
ENDROOT
BRANCH  10  12
ATOM     12  C   UNL     1       2.052   8.160  19.187  0.00  0.00    +0.000 A 
ATOM     13  C   UNL     1       2.715   8.302  17.961  0.00  0.00    +0.000 A 
ATOM     14  C   UNL     1       3.576   7.312  17.499  0.00  0.00    +0.000 A 
ATOM     15  C   UNL     1       3.785   6.159  18.258  0.00  0.00    +0.000 A 
ATOM     16  C   UNL     1       3.138   5.985  19.490  0.00  0.00    +0.000 A 
ATOM     17  C   UNL     1       2.293   7.010  19.954  0.00  0.00    +0.000 A 
BRANCH  16  18
ATOM     18  C   UNL     1       3.363   4.730  20.313  0.00  0.00    +0.000 C 
BRANCH  18  19
ATOM     19  N   UNL     1       2.671   3.519  19.887  0.00  0.00    +0.000 NA
ATOM     20  C   UNL     1       3.299   2.646  18.911  0.00  0.00    +0.000 C 
ATOM     21  C   UNL     1       2.292   2.465  17.789  0.00  0.00    +0.000 C 
ATOM     22  C   UNL     1       0.945   2.811  18.393  0.00  0.00    +0.000 C 
ATOM     23  C   UNL     1       1.244   3.623  19.642  0.00  0.00    +0.000 C 
ENDBRANCH  18  19
ENDBRANCH  16  18
ENDBRANCH  10  12
BRANCH   1  25
ATOM     24  C   UNL     1      -3.594  10.136  14.006  0.00  0.00    +0.000 C 
ATOM     25  O   UNL     1      -4.285  10.331  15.245  0.00  0.00    +0.000 OA
ENDBRANCH   1  25
BRANCH   6  26
ATOM     26  O   UNL     1      -4.916  12.226  17.095  0.00  0.00    +0.000 OA
ATOM     27  C   UNL     1      -6.121  11.731  17.677  0.00  0.00    +0.000 C 
ENDBRANCH   6  26
TORSDOF 5
ENDMDL
MODEL 4
REMARK VINA RESULT:      -7.2      2.477      4.594
REMARK  Name = 
REMARK  7 active torsions:
REMARK  status: ('A' for Active; 'I' for Inactive)
REMARK    1  A    between atoms: C_1  and  O_2
REMARK    2  A    between atoms: O_2  and  C_3
REMARK    3  A    between atoms: C_8  and  O_9
REMARK    4  A    between atoms: O_9  and  C_10
REMARK    5  A    between atoms: C_14  and  C_15
REMARK    6  A    between atoms: C_19  and  C_20
REMARK    7  A    between atoms: C_20  and  N_21
REMARK                            x       y       z     vdW  Elec       q    Type
REMARK                         _______ _______ _______ _____ _____    ______ ____
ROOT
ATOM      1  C   UNL     1      -2.156  11.222  18.093  0.00  0.00    +0.000 A 
ATOM      2  C   UNL     1      -1.282  10.174  17.776  0.00  0.00    +0.000 A 
ATOM      3  C   UNL     1      -0.360   9.798  18.716  0.00  0.00    +0.000 A 
ATOM      4  C   UNL     1      -0.255  10.461  19.925  0.00  0.00    +0.000 A 
ATOM      5  C   UNL     1      -1.054  11.541  20.253  0.00  0.00    +0.000 A 
ATOM      6  C   UNL     1      -2.028  11.936  19.322  0.00  0.00    +0.000 A 
ATOM      7  C   UNL     1       0.788   9.778  20.682  0.00  0.00    +0.000 C 
ATOM      8  O   UNL     1       1.190  10.036  21.801  0.00  0.00    +0.000 OA
ATOM      9  C   UNL     1       1.234   8.701  19.757  0.00  0.00    +0.000 C 
ATOM     10  C   UNL     1       2.192   7.815  20.032  0.00  0.00    +0.000 C 
ATOM     11  O   UNL     1       0.502   8.745  18.575  0.00  0.00    +0.000 OA
ENDROOT
BRANCH  10  12
ATOM     12  C   UNL     1       2.652   6.775  19.101  0.00  0.00    +0.000 A 
ATOM     13  C   UNL     1       2.152   5.467  19.135  0.00  0.00    +0.000 A 
ATOM     14  C   UNL     1       2.602   4.509  18.232  0.00  0.00    +0.000 A 
ATOM     15  C   UNL     1       3.563   4.847  17.278  0.00  0.00    +0.000 A 
ATOM     16  C   UNL     1       4.084   6.148  17.215  0.00  0.00    +0.000 A 
ATOM     17  C   UNL     1       3.597   7.109  18.119  0.00  0.00    +0.000 A 
BRANCH  16  18
ATOM     18  C   UNL     1       5.132   6.514  16.180  0.00  0.00    +0.000 C 
BRANCH  18  19
ATOM     19  N   UNL     1       6.530   6.430  16.586  0.00  0.00    +0.000 NA
ATOM     20  C   UNL     1       7.063   5.162  17.050  0.00  0.00    +0.000 C 
ATOM     21  C   UNL     1       7.680   5.429  18.412  0.00  0.00    +0.000 C 
ATOM     22  C   UNL     1       7.939   6.922  18.453  0.00  0.00    +0.000 C 
ATOM     23  C   UNL     1       7.057   7.530  17.375  0.00  0.00    +0.000 C 
ENDBRANCH  18  19
ENDBRANCH  16  18
ENDBRANCH  10  12
BRANCH   1  25
ATOM     24  C   UNL     1      -2.918  11.134  15.873  0.00  0.00    +0.000 C 
ATOM     25  O   UNL     1      -3.157  11.581  17.212  0.00  0.00    +0.000 OA
ENDBRANCH   1  25
BRANCH   6  26
ATOM     26  O   UNL     1      -2.910  12.967  19.543  0.00  0.00    +0.000 OA
ATOM     27  C   UNL     1      -3.851  12.815  20.605  0.00  0.00    +0.000 C 
ENDBRANCH   6  26
TORSDOF 5
ENDMDL
MODEL 5
REMARK VINA RESULT:      -7.2      3.440      7.680
REMARK  Name = 
REMARK  7 active torsions:
REMARK  status: ('A' for Active; 'I' for Inactive)
REMARK    1  A    between atoms: C_1  and  O_2
REMARK    2  A    between atoms: O_2  and  C_3
REMARK    3  A    between atoms: C_8  and  O_9
REMARK    4  A    between atoms: O_9  and  C_10
REMARK    5  A    between atoms: C_14  and  C_15
REMARK    6  A    between atoms: C_19  and  C_20
REMARK    7  A    between atoms: C_20  and  N_21
REMARK                            x       y       z     vdW  Elec       q    Type
REMARK                         _______ _______ _______ _____ _____    ______ ____
ROOT
ATOM      1  C   UNL     1       2.900   4.051  20.483  0.00  0.00    +0.000 A 
ATOM      2  C   UNL     1       2.374   5.350  20.448  0.00  0.00    +0.000 A 
ATOM      3  C   UNL     1       2.738   6.163  19.409  0.00  0.00    +0.000 A 
ATOM      4  C   UNL     1       3.636   5.741  18.445  0.00  0.00    +0.000 A 
ATOM      5  C   UNL     1       4.227   4.491  18.476  0.00  0.00    +0.000 A 
ATOM      6  C   UNL     1       3.856   3.622  19.515  0.00  0.00    +0.000 A 
ATOM      7  C   UNL     1       3.757   6.834  17.486  0.00  0.00    +0.000 C 
ATOM      8  O   UNL     1       4.439   6.872  16.479  0.00  0.00    +0.000 OA
ATOM      9  C   UNL     1       2.851   7.877  18.038  0.00  0.00    +0.000 C 
ATOM     10  C   UNL     1       2.645   9.072  17.482  0.00  0.00    +0.000 C 
ATOM     11  O   UNL     1       2.245   7.423  19.205  0.00  0.00    +0.000 OA
ENDROOT
BRANCH  10  12
ATOM     12  C   UNL     1       1.775  10.112  18.051  0.00  0.00    +0.000 A 
ATOM     13  C   UNL     1       2.267  11.360  18.452  0.00  0.00    +0.000 A 
ATOM     14  C   UNL     1       1.414  12.326  18.977  0.00  0.00    +0.000 A 
ATOM     15  C   UNL     1       0.051  12.056  19.108  0.00  0.00    +0.000 A 
ATOM     16  C   UNL     1      -0.475  10.816  18.714  0.00  0.00    +0.000 A 
ATOM     17  C   UNL     1       0.399   9.863  18.161  0.00  0.00    +0.000 A 
BRANCH  16  18
ATOM     18  C   UNL     1      -1.956  10.522  18.860  0.00  0.00    +0.000 C 
BRANCH  18  19
ATOM     19  N   UNL     1      -2.882  11.356  18.103  0.00  0.00    +0.000 NA
ATOM     20  C   UNL     1      -4.202  11.629  18.645  0.00  0.00    +0.000 C 
ATOM     21  C   UNL     1      -5.198  11.221  17.574  0.00  0.00    +0.000 C 
ATOM     22  C   UNL     1      -4.415  11.215  16.275  0.00  0.00    +0.000 C 
ATOM     23  C   UNL     1      -2.950  11.136  16.669  0.00  0.00    +0.000 C 
ENDBRANCH  18  19
ENDBRANCH  16  18
ENDBRANCH  10  12
BRANCH   1  25
ATOM     24  C   UNL     1       1.137   2.745  21.320  0.00  0.00    +0.000 C 
ATOM     25  O   UNL     1       2.498   3.166  21.463  0.00  0.00    +0.000 OA
ENDBRANCH   1  25
BRANCH   6  26
ATOM     26  O   UNL     1       4.341   2.342  19.636  0.00  0.00    +0.000 OA
ATOM     27  C   UNL     1       3.804   1.347  18.765  0.00  0.00    +0.000 C 
ENDBRANCH   6  26
TORSDOF 5
ENDMDL
MODEL 6
REMARK VINA RESULT:      -7.2      3.358      8.423
REMARK  Name = 
REMARK  7 active torsions:
REMARK  status: ('A' for Active; 'I' for Inactive)
REMARK    1  A    between atoms: C_1  and  O_2
REMARK    2  A    between atoms: O_2  and  C_3
REMARK    3  A    between atoms: C_8  and  O_9
REMARK    4  A    between atoms: O_9  and  C_10
REMARK    5  A    between atoms: C_14  and  C_15
REMARK    6  A    between atoms: C_19  and  C_20
REMARK    7  A    between atoms: C_20  and  N_21
REMARK                            x       y       z     vdW  Elec       q    Type
REMARK                         _______ _______ _______ _____ _____    ______ ____
ROOT
ATOM      1  C   UNL     1       4.056   4.673  19.206  0.00  0.00    +0.000 A 
ATOM      2  C   UNL     1       3.286   5.496  20.038  0.00  0.00    +0.000 A 
ATOM      3  C   UNL     1       2.809   6.670  19.519  0.00  0.00    +0.000 A 
ATOM      4  C   UNL     1       3.117   7.062  18.229  0.00  0.00    +0.000 A 
ATOM      5  C   UNL     1       3.925   6.312  17.396  0.00  0.00    +0.000 A 
ATOM      6  C   UNL     1       4.409   5.089  17.887  0.00  0.00    +0.000 A 
ATOM      7  C   UNL     1       2.418   8.324  18.004  0.00  0.00    +0.000 C 
ATOM      8  O   UNL     1       2.412   9.005  16.996  0.00  0.00    +0.000 OA
ATOM      9  C   UNL     1       1.725   8.568  19.297  0.00  0.00    +0.000 C 
ATOM     10  C   UNL     1       0.956   9.627  19.557  0.00  0.00    +0.000 C 
ATOM     11  O   UNL     1       1.984   7.532  20.188  0.00  0.00    +0.000 OA
ENDROOT
BRANCH  10  12
ATOM     12  C   UNL     1       0.301   9.880  20.848  0.00  0.00    +0.000 A 
ATOM     13  C   UNL     1       0.484   9.042  21.956  0.00  0.00    +0.000 A 
ATOM     14  C   UNL     1      -0.143   9.318  23.167  0.00  0.00    +0.000 A 
ATOM     15  C   UNL     1      -0.965  10.439  23.288  0.00  0.00    +0.000 A 
ATOM     16  C   UNL     1      -1.168  11.300  22.199  0.00  0.00    +0.000 A 
ATOM     17  C   UNL     1      -0.505  11.020  20.991  0.00  0.00    +0.000 A 
BRANCH  16  18
ATOM     18  C   UNL     1      -2.065  12.517  22.330  0.00  0.00    +0.000 C 
BRANCH  18  19
ATOM     19  N   UNL     1      -3.481  12.279  22.587  0.00  0.00    +0.000 NA
ATOM     20  C   UNL     1      -4.464  12.696  21.603  0.00  0.00    +0.000 C 
ATOM     21  C   UNL     1      -5.462  13.574  22.339  0.00  0.00    +0.000 C 
ATOM     22  C   UNL     1      -5.314  13.213  23.805  0.00  0.00    +0.000 C 
ATOM     23  C   UNL     1      -3.960  12.535  23.934  0.00  0.00    +0.000 C 
ENDBRANCH  18  19
ENDBRANCH  16  18
ENDBRANCH  10  12
BRANCH   1  25
ATOM     24  C   UNL     1       3.415   2.567  20.025  0.00  0.00    +0.000 C 
ATOM     25  O   UNL     1       4.488   3.441  19.656  0.00  0.00    +0.000 OA
ENDBRANCH   1  25
BRANCH   6  26
ATOM     26  O   UNL     1       5.188   4.233  17.147  0.00  0.00    +0.000 OA
ATOM     27  C   UNL     1       5.096   4.318  15.725  0.00  0.00    +0.000 C 
ENDBRANCH   6  26
TORSDOF 5
ENDMDL
MODEL 7
REMARK VINA RESULT:      -7.2      1.768      3.403
REMARK  Name = 
REMARK  7 active torsions:
REMARK  status: ('A' for Active; 'I' for Inactive)
REMARK    1  A    between atoms: C_1  and  O_2
REMARK    2  A    between atoms: O_2  and  C_3
REMARK    3  A    between atoms: C_8  and  O_9
REMARK    4  A    between atoms: O_9  and  C_10
REMARK    5  A    between atoms: C_14  and  C_15
REMARK    6  A    between atoms: C_19  and  C_20
REMARK    7  A    between atoms: C_20  and  N_21
REMARK                            x       y       z     vdW  Elec       q    Type
REMARK                         _______ _______ _______ _____ _____    ______ ____
ROOT
ATOM      1  C   UNL     1      -0.142  10.931  22.008  0.00  0.00    +0.000 A 
ATOM      2  C   UNL     1       0.264   9.652  21.605  0.00  0.00    +0.000 A 
ATOM      3  C   UNL     1       0.872   9.524  20.385  0.00  0.00    +0.000 A 
ATOM      4  C   UNL     1       1.039  10.612  19.548  0.00  0.00    +0.000 A 
ATOM      5  C   UNL     1       0.597  11.880  19.878  0.00  0.00    +0.000 A 
ATOM      6  C   UNL     1      -0.008  12.051  21.134  0.00  0.00    +0.000 A 
ATOM      7  C   UNL     1       1.748  10.121  18.370  0.00  0.00    +0.000 C 
ATOM      8  O   UNL     1       2.101  10.755  17.394  0.00  0.00    +0.000 OA
ATOM      9  C   UNL     1       1.928   8.673  18.657  0.00  0.00    +0.000 C 
ATOM     10  C   UNL     1       2.533   7.809  17.840  0.00  0.00    +0.000 C 
ATOM     11  O   UNL     1       1.387   8.354  19.898  0.00  0.00    +0.000 OA
ENDROOT
BRANCH  10  12
ATOM     12  C   UNL     1       2.678   6.371  18.113  0.00  0.00    +0.000 A 
ATOM     13  C   UNL     1       1.620   5.469  17.944  0.00  0.00    +0.000 A 
ATOM     14  C   UNL     1       1.795   4.112  18.201  0.00  0.00    +0.000 A 
ATOM     15  C   UNL     1       3.035   3.638  18.633  0.00  0.00    +0.000 A 
ATOM     16  C   UNL     1       4.115   4.515  18.812  0.00  0.00    +0.000 A 
ATOM     17  C   UNL     1       3.926   5.878  18.521  0.00  0.00    +0.000 A 
BRANCH  16  18
ATOM     18  C   UNL     1       5.461   4.000  19.285  0.00  0.00    +0.000 C 
BRANCH  18  19
ATOM     19  N   UNL     1       6.644   4.463  18.570  0.00  0.00    +0.000 NA
ATOM     20  C   UNL     1       7.398   5.589  19.093  0.00  0.00    +0.000 C 
ATOM     21  C   UNL     1       7.497   6.600  17.964  0.00  0.00    +0.000 C 
ATOM     22  C   UNL     1       7.251   5.812  16.692  0.00  0.00    +0.000 C 
ATOM     23  C   UNL     1       6.558   4.530  17.122  0.00  0.00    +0.000 C 
ENDBRANCH  18  19
ENDBRANCH  16  18
ENDBRANCH  10  12
BRANCH   1  25
ATOM     24  C   UNL     1      -2.051  11.546  23.230  0.00  0.00    +0.000 C 
ATOM     25  O   UNL     1      -0.683  11.125  23.263  0.00  0.00    +0.000 OA
ENDBRANCH   1  25
BRANCH   6  26
ATOM     26  O   UNL     1      -0.454  13.266  21.596  0.00  0.00    +0.000 OA
ATOM     27  C   UNL     1      -0.786  14.261  20.628  0.00  0.00    +0.000 C 
ENDBRANCH   6  26
TORSDOF 5
ENDMDL
MODEL 8
REMARK VINA RESULT:      -7.1      3.540      8.131
REMARK  Name = 
REMARK  7 active torsions:
REMARK  status: ('A' for Active; 'I' for Inactive)
REMARK    1  A    between atoms: C_1  and  O_2
REMARK    2  A    between atoms: O_2  and  C_3
REMARK    3  A    between atoms: C_8  and  O_9
REMARK    4  A    between atoms: O_9  and  C_10
REMARK    5  A    between atoms: C_14  and  C_15
REMARK    6  A    between atoms: C_19  and  C_20
REMARK    7  A    between atoms: C_20  and  N_21
REMARK                            x       y       z     vdW  Elec       q    Type
REMARK                         _______ _______ _______ _____ _____    ______ ____
ROOT
ATOM      1  C   UNL     1       2.723   4.280  20.729  0.00  0.00    +0.000 A 
ATOM      2  C   UNL     1       2.064   5.517  20.729  0.00  0.00    +0.000 A 
ATOM      3  C   UNL     1       2.343   6.395  19.716  0.00  0.00    +0.000 A 
ATOM      4  C   UNL     1       3.282   6.097  18.745  0.00  0.00    +0.000 A 
ATOM      5  C   UNL     1       4.001   4.916  18.743  0.00  0.00    +0.000 A 
ATOM      6  C   UNL     1       3.721   3.982  19.753  0.00  0.00    +0.000 A 
ATOM      7  C   UNL     1       3.290   7.225  17.819  0.00  0.00    +0.000 C 
ATOM      8  O   UNL     1       3.966   7.364  16.818  0.00  0.00    +0.000 OA
ATOM      9  C   UNL     1       2.279   8.150  18.397  0.00  0.00    +0.000 C 
ATOM     10  C   UNL     1       1.950   9.334  17.876  0.00  0.00    +0.000 C 
ATOM     11  O   UNL     1       1.721   7.602  19.547  0.00  0.00    +0.000 OA
ENDROOT
BRANCH  10  12
ATOM     12  C   UNL     1       0.975  10.260  18.470  0.00  0.00    +0.000 A 
ATOM     13  C   UNL     1      -0.399  10.163  18.216  0.00  0.00    +0.000 A 
ATOM     14  C   UNL     1      -1.296  11.050  18.803  0.00  0.00    +0.000 A 
ATOM     15  C   UNL     1      -0.829  12.051  19.656  0.00  0.00    +0.000 A 
ATOM     16  C   UNL     1       0.541  12.175  19.933  0.00  0.00    +0.000 A 
ATOM     17  C   UNL     1       1.429  11.253  19.351  0.00  0.00    +0.000 A 
BRANCH  16  18
ATOM     18  C   UNL     1       1.048  13.267  20.857  0.00  0.00    +0.000 C 
BRANCH  18  19
ATOM     19  N   UNL     1       1.856  14.325  20.262  0.00  0.00    +0.000 NA
ATOM     20  C   UNL     1       1.523  14.817  18.937  0.00  0.00    +0.000 C 
ATOM     21  C   UNL     1       2.788  14.699  18.106  0.00  0.00    +0.000 C 
ATOM     22  C   UNL     1       3.926  14.634  19.107  0.00  0.00    +0.000 C 
ATOM     23  C   UNL     1       3.296  14.231  20.430  0.00  0.00    +0.000 C 
ENDBRANCH  18  19
ENDBRANCH  16  18
ENDBRANCH  10  12
BRANCH   1  25
ATOM     24  C   UNL     1       1.201   2.622  21.400  0.00  0.00    +0.000 C 
ATOM     25  O   UNL     1       2.414   3.329  21.681  0.00  0.00    +0.000 OA
ENDBRANCH   1  25
BRANCH   6  26
ATOM     26  O   UNL     1       4.336   2.756  19.840  0.00  0.00    +0.000 OA
ATOM     27  C   UNL     1       3.911   1.738  18.935  0.00  0.00    +0.000 C 
ENDBRANCH   6  26
TORSDOF 5
ENDMDL
MODEL 9
REMARK VINA RESULT:      -7.1      1.943      4.305
REMARK  Name = 
REMARK  7 active torsions:
REMARK  status: ('A' for Active; 'I' for Inactive)
REMARK    1  A    between atoms: C_1  and  O_2
REMARK    2  A    between atoms: O_2  and  C_3
REMARK    3  A    between atoms: C_8  and  O_9
REMARK    4  A    between atoms: O_9  and  C_10
REMARK    5  A    between atoms: C_14  and  C_15
REMARK    6  A    between atoms: C_19  and  C_20
REMARK    7  A    between atoms: C_20  and  N_21
REMARK                            x       y       z     vdW  Elec       q    Type
REMARK                         _______ _______ _______ _____ _____    ______ ____
ROOT
ATOM      1  C   UNL     1      -0.650  11.718  18.858  0.00  0.00    +0.000 A 
ATOM      2  C   UNL     1      -0.268  10.390  18.632  0.00  0.00    +0.000 A 
ATOM      3  C   UNL     1       0.378   9.726  19.639  0.00  0.00    +0.000 A 
ATOM      4  C   UNL     1       0.692  10.356  20.830  0.00  0.00    +0.000 A 
ATOM      5  C   UNL     1       0.391  11.683  21.070  0.00  0.00    +0.000 A 
ATOM      6  C   UNL     1      -0.295  12.387  20.068  0.00  0.00    +0.000 A 
ATOM      7  C   UNL     1       1.331   9.350  21.673  0.00  0.00    +0.000 C 
ATOM      8  O   UNL     1       1.754   9.485  22.805  0.00  0.00    +0.000 OA
ATOM      9  C   UNL     1       1.337   8.136  20.814  0.00  0.00    +0.000 C 
ATOM     10  C   UNL     1       1.837   6.954  21.178  0.00  0.00    +0.000 C 
ATOM     11  O   UNL     1       0.740   8.407  19.588  0.00  0.00    +0.000 OA
ENDROOT
BRANCH  10  12
ATOM     12  C   UNL     1       1.872   5.766  20.313  0.00  0.00    +0.000 A 
ATOM     13  C   UNL     1       1.036   4.662  20.525  0.00  0.00    +0.000 A 
ATOM     14  C   UNL     1       1.087   3.558  19.680  0.00  0.00    +0.000 A 
ATOM     15  C   UNL     1       1.980   3.542  18.607  0.00  0.00    +0.000 A 
ATOM     16  C   UNL     1       2.830   4.631  18.366  0.00  0.00    +0.000 A 
ATOM     17  C   UNL     1       2.744   5.749  19.215  0.00  0.00    +0.000 A 
BRANCH  16  18
ATOM     18  C   UNL     1       3.803   4.611  17.201  0.00  0.00    +0.000 C 
BRANCH  18  19
ATOM     19  N   UNL     1       5.100   5.248  17.402  0.00  0.00    +0.000 NA
ATOM     20  C   UNL     1       5.700   6.000  16.315  0.00  0.00    +0.000 C 
ATOM     21  C   UNL     1       7.090   5.424  16.110  0.00  0.00    +0.000 C 
ATOM     22  C   UNL     1       7.431   4.720  17.410  0.00  0.00    +0.000 C 
ATOM     23  C   UNL     1       6.107   4.487  18.119  0.00  0.00    +0.000 C 
ENDBRANCH  18  19
ENDBRANCH  16  18
ENDBRANCH  10  12
BRANCH   1  25
ATOM     24  C   UNL     1      -2.381  11.599  17.275  0.00  0.00    +0.000 C 
ATOM     25  O   UNL     1      -1.377  12.403  17.904  0.00  0.00    +0.000 OA
ENDBRANCH   1  25
BRANCH   6  26
ATOM     26  O   UNL     1      -0.687  13.698  20.199  0.00  0.00    +0.000 OA
ATOM     27  C   UNL     1      -1.430  14.052  21.365  0.00  0.00    +0.000 C 
ENDBRANCH   6  26
TORSDOF 5
ENDMDL
