MODEL 1
REMARK VINA RESULT:      -7.7      0.000      0.000
REMARK  Name = 
REMARK  4 active torsions:
REMARK  status: ('A' for Active; 'I' for Inactive)
REMARK    1  A    between atoms: C_5  and  C_6
REMARK    2  A    between atoms: C_13  and  C_14
REMARK    3  A    between atoms: C_14  and  C_15
REMARK    4  A    between atoms: C_24  and  C_25
REMARK                            x       y       z     vdW  Elec       q    Type
REMARK                         _______ _______ _______ _____ _____    ______ ____
ROOT
ATOM      1  C   UNL     1      -4.493  12.923  19.846  0.00  0.00    +0.000 A 
ATOM      2  N   UNL     1      -4.966  12.337  18.676  0.00  0.00    +0.000 N 
ATOM      3  C   UNL     1      -4.010  11.569  18.067  0.00  0.00    +0.000 A 
ATOM      4  C   UNL     1      -4.016  10.843  16.869  0.00  0.00    +0.000 A 
ATOM      5  C   UNL     1      -2.847  10.173  16.487  0.00  0.00    +0.000 A 
ATOM      6  C   UNL     1      -1.738  10.255  17.331  0.00  0.00    +0.000 A 
ATOM      7  N   UNL     1      -0.463   9.748  17.249  0.00  0.00    +0.000 N 
ATOM      8  C   UNL     1       0.252  10.188  18.340  0.00  0.00    +0.000 A 
ATOM      9  N   UNL     1      -0.512  10.901  19.145  0.00  0.00    +0.000 NA
ATOM     10  C   UNL     1      -1.722  10.955  18.523  0.00  0.00    +0.000 A 
ATOM     11  C   UNL     1      -2.916  11.652  18.898  0.00  0.00    +0.000 A 
ATOM     12  C   UNL     1      -3.170  12.477  20.020  0.00  0.00    +0.000 A 
ATOM     13  H   UNL     1      -5.884  12.505  18.291  0.00  0.00    +0.000 HD
ATOM     14  H   UNL     1      -0.097   9.187  16.491  0.00  0.00    +0.000 HD
ENDROOT
BRANCH   1  19
ATOM     15  F   UNL     1      -7.665  16.472  22.840  0.00  0.00    +0.000 F 
ATOM     16  C   UNL     1      -6.929  15.623  22.110  0.00  0.00    +0.000 A 
ATOM     17  C   UNL     1      -7.010  14.260  22.353  0.00  0.00    +0.000 A 
ATOM     18  C   UNL     1      -6.217  13.375  21.612  0.00  0.00    +0.000 A 
ATOM     19  C   UNL     1      -5.357  13.851  20.606  0.00  0.00    +0.000 A 
ATOM     20  C   UNL     1      -5.338  15.230  20.350  0.00  0.00    +0.000 A 
ATOM     21  C   UNL     1      -6.095  16.118  21.119  0.00  0.00    +0.000 A 
ENDBRANCH   1  19
BRANCH  12  22
ATOM     22  C   UNL     1      -2.287  12.886  21.115  0.00  0.00    +0.000 A 
ATOM     23  C   UNL     1      -2.348  12.235  22.349  0.00  0.00    +0.000 A 
ATOM     24  C   UNL     1      -1.464  12.602  23.350  0.00  0.00    +0.000 A 
ATOM     25  N   UNL     1      -0.495  13.526  23.193  0.00  0.00    +0.000 NA
ATOM     26  C   UNL     1      -0.447  14.144  21.995  0.00  0.00    +0.000 A 
ATOM     27  C   UNL     1      -1.328  13.889  20.954  0.00  0.00    +0.000 A 
ENDBRANCH  12  22
BRANCH   8  28
ATOM     28  C   UNL     1       1.712   9.932  18.509  0.00  0.00    +0.000 C 
BRANCH  28  29
ATOM     29  C   UNL     1       2.064   8.481  18.734  0.00  0.00    +0.000 A 
ATOM     30  C   UNL     1       2.825   7.776  17.791  0.00  0.00    +0.000 A 
ATOM     31  C   UNL     1       3.226   6.464  18.045  0.00  0.00    +0.000 A 
ATOM     32  C   UNL     1       2.863   5.839  19.238  0.00  0.00    +0.000 A 
ATOM     33  C   UNL     1       2.090   6.522  20.175  0.00  0.00    +0.000 A 
ATOM     34  C   UNL     1       1.693   7.837  19.925  0.00  0.00    +0.000 A 
ENDBRANCH  28  29
ENDBRANCH   8  28
TORSDOF 4
ENDMDL
MODEL 2
REMARK VINA RESULT:      -7.7      0.392      1.263
REMARK  Name = 
REMARK  4 active torsions:
REMARK  status: ('A' for Active; 'I' for Inactive)
REMARK    1  A    between atoms: C_5  and  C_6
REMARK    2  A    between atoms: C_13  and  C_14
REMARK    3  A    between atoms: C_14  and  C_15
REMARK    4  A    between atoms: C_24  and  C_25
REMARK                            x       y       z     vdW  Elec       q    Type
REMARK                         _______ _______ _______ _____ _____    ______ ____
ROOT
ATOM      1  C   UNL     1      -4.630  13.091  20.071  0.00  0.00    +0.000 A 
ATOM      2  N   UNL     1      -5.154  12.544  18.904  0.00  0.00    +0.000 N 
ATOM      3  C   UNL     1      -4.232  11.784  18.238  0.00  0.00    +0.000 A 
ATOM      4  C   UNL     1      -4.291  11.093  17.020  0.00  0.00    +0.000 A 
ATOM      5  C   UNL     1      -3.145  10.422  16.574  0.00  0.00    +0.000 A 
ATOM      6  C   UNL     1      -2.004  10.468  17.378  0.00  0.00    +0.000 A 
ATOM      7  N   UNL     1      -0.739   9.949  17.233  0.00  0.00    +0.000 N 
ATOM      8  C   UNL     1       0.021  10.350  18.308  0.00  0.00    +0.000 A 
ATOM      9  N   UNL     1      -0.703  11.048  19.161  0.00  0.00    +0.000 NA
ATOM     10  C   UNL     1      -1.935  11.133  18.588  0.00  0.00    +0.000 A 
ATOM     11  C   UNL     1      -3.105  11.832  19.028  0.00  0.00    +0.000 A 
ATOM     12  C   UNL     1      -3.307  12.626  20.181  0.00  0.00    +0.000 A 
ATOM     13  H   UNL     1      -6.084  12.734  18.559  0.00  0.00    +0.000 HD
ATOM     14  H   UNL     1      -0.409   9.407  16.446  0.00  0.00    +0.000 HD
ENDROOT
BRANCH   1  19
ATOM     15  F   UNL     1      -7.885  16.537  23.097  0.00  0.00    +0.000 F 
ATOM     16  C   UNL     1      -7.090  15.722  22.391  0.00  0.00    +0.000 A 
ATOM     17  C   UNL     1      -6.362  16.228  21.324  0.00  0.00    +0.000 A 
ATOM     18  C   UNL     1      -5.556  15.371  20.566  0.00  0.00    +0.000 A 
ATOM     19  C   UNL     1      -5.454  14.006  20.890  0.00  0.00    +0.000 A 
ATOM     20  C   UNL     1      -6.161  13.537  22.007  0.00  0.00    +0.000 A 
ATOM     21  C   UNL     1      -7.002  14.382  22.737  0.00  0.00    +0.000 A 
ENDBRANCH   1  19
BRANCH  12  22
ATOM     22  C   UNL     1      -2.378  12.994  21.254  0.00  0.00    +0.000 A 
ATOM     23  C   UNL     1      -2.333  12.247  22.432  0.00  0.00    +0.000 A 
ATOM     24  C   UNL     1      -1.407  12.580  23.407  0.00  0.00    +0.000 A 
ATOM     25  N   UNL     1      -0.493  13.562  23.270  0.00  0.00    +0.000 NA
ATOM     26  C   UNL     1      -0.549  14.274  22.125  0.00  0.00    +0.000 A 
ATOM     27  C   UNL     1      -1.479  14.055  21.119  0.00  0.00    +0.000 A 
ENDBRANCH  12  22
BRANCH   8  28
ATOM     28  C   UNL     1       1.484  10.074  18.413  0.00  0.00    +0.000 C 
BRANCH  28  29
ATOM     29  C   UNL     1       1.817   8.696  18.935  0.00  0.00    +0.000 A 
ATOM     30  C   UNL     1       1.453   8.317  20.234  0.00  0.00    +0.000 A 
ATOM     31  C   UNL     1       1.680   7.015  20.680  0.00  0.00    +0.000 A 
ATOM     32  C   UNL     1       2.281   6.081  19.838  0.00  0.00    +0.000 A 
ATOM     33  C   UNL     1       2.667   6.451  18.550  0.00  0.00    +0.000 A 
ATOM     34  C   UNL     1       2.434   7.752  18.100  0.00  0.00    +0.000 A 
ENDBRANCH  28  29
ENDBRANCH   8  28
TORSDOF 4
ENDMDL
MODEL 3
REMARK VINA RESULT:      -7.7      0.392      1.246
REMARK  Name = 
REMARK  4 active torsions:
REMARK  status: ('A' for Active; 'I' for Inactive)
REMARK    1  A    between atoms: C_5  and  C_6
REMARK    2  A    between atoms: C_13  and  C_14
REMARK    3  A    between atoms: C_14  and  C_15
REMARK    4  A    between atoms: C_24  and  C_25
REMARK                            x       y       z     vdW  Elec       q    Type
REMARK                         _______ _______ _______ _____ _____    ______ ____
ROOT
ATOM      1  C   UNL     1      -4.602  13.130  20.028  0.00  0.00    +0.000 A 
ATOM      2  N   UNL     1      -5.152  12.486  18.924  0.00  0.00    +0.000 N 
ATOM      3  C   UNL     1      -4.236  11.696  18.284  0.00  0.00    +0.000 A 
ATOM      4  C   UNL     1      -4.321  10.915  17.124  0.00  0.00    +0.000 A 
ATOM      5  C   UNL     1      -3.176  10.234  16.690  0.00  0.00    +0.000 A 
ATOM      6  C   UNL     1      -2.010  10.362  17.448  0.00  0.00    +0.000 A 
ATOM      7  N   UNL     1      -0.740   9.859  17.297  0.00  0.00    +0.000 N 
ATOM      8  C   UNL     1       0.047  10.355  18.312  0.00  0.00    +0.000 A 
ATOM      9  N   UNL     1      -0.663  11.100  19.136  0.00  0.00    +0.000 NA
ATOM     10  C   UNL     1      -1.915  11.118  18.601  0.00  0.00    +0.000 A 
ATOM     11  C   UNL     1      -3.085  11.825  19.029  0.00  0.00    +0.000 A 
ATOM     12  C   UNL     1      -3.265  12.700  20.126  0.00  0.00    +0.000 A 
ATOM     13  H   UNL     1      -6.097  12.631  18.599  0.00  0.00    +0.000 HD
ATOM     14  H   UNL     1      -0.424   9.266  16.542  0.00  0.00    +0.000 HD
ENDROOT
BRANCH   1  19
ATOM     15  F   UNL     1      -7.590  16.781  23.088  0.00  0.00    +0.000 F 
ATOM     16  C   UNL     1      -6.897  15.910  22.342  0.00  0.00    +0.000 A 
ATOM     17  C   UNL     1      -7.073  14.548  22.536  0.00  0.00    +0.000 A 
ATOM     18  C   UNL     1      -6.326  13.637  21.779  0.00  0.00    +0.000 A 
ATOM     19  C   UNL     1      -5.417  14.087  20.805  0.00  0.00    +0.000 A 
ATOM     20  C   UNL     1      -5.302  15.470  20.597  0.00  0.00    +0.000 A 
ATOM     21  C   UNL     1      -6.014  16.381  21.382  0.00  0.00    +0.000 A 
ENDBRANCH   1  19
BRANCH  12  22
ATOM     22  C   UNL     1      -2.309  13.165  21.135  0.00  0.00    +0.000 A 
ATOM     23  C   UNL     1      -1.512  14.284  20.886  0.00  0.00    +0.000 A 
ATOM     24  C   UNL     1      -0.658  14.738  21.877  0.00  0.00    +0.000 A 
ATOM     25  N   UNL     1      -0.581  14.193  23.108  0.00  0.00    +0.000 NA
ATOM     26  C   UNL     1      -1.358  13.114  23.334  0.00  0.00    +0.000 A 
ATOM     27  C   UNL     1      -2.199  12.550  22.385  0.00  0.00    +0.000 A 
ENDBRANCH  12  22
BRANCH   8  28
ATOM     28  C   UNL     1       1.519  10.115  18.386  0.00  0.00    +0.000 C 
BRANCH  28  29
ATOM     29  C   UNL     1       1.897   8.716  18.809  0.00  0.00    +0.000 A 
ATOM     30  C   UNL     1       1.565   8.242  20.086  0.00  0.00    +0.000 A 
ATOM     31  C   UNL     1       1.834   6.920  20.441  0.00  0.00    +0.000 A 
ATOM     32  C   UNL     1       2.446   6.061  19.529  0.00  0.00    +0.000 A 
ATOM     33  C   UNL     1       2.800   6.525  18.264  0.00  0.00    +0.000 A 
ATOM     34  C   UNL     1       2.525   7.846  17.905  0.00  0.00    +0.000 A 
ENDBRANCH  28  29
ENDBRANCH   8  28
TORSDOF 4
ENDMDL
MODEL 4
REMARK VINA RESULT:      -7.7      0.223      1.204
REMARK  Name = 
REMARK  4 active torsions:
REMARK  status: ('A' for Active; 'I' for Inactive)
REMARK    1  A    between atoms: C_5  and  C_6
REMARK    2  A    between atoms: C_13  and  C_14
REMARK    3  A    between atoms: C_14  and  C_15
REMARK    4  A    between atoms: C_24  and  C_25
REMARK                            x       y       z     vdW  Elec       q    Type
REMARK                         _______ _______ _______ _____ _____    ______ ____
ROOT
ATOM      1  C   UNL     1      -4.550  12.999  19.858  0.00  0.00    +0.000 A 
ATOM      2  N   UNL     1      -5.043  12.364  18.723  0.00  0.00    +0.000 N 
ATOM      3  C   UNL     1      -4.092  11.586  18.119  0.00  0.00    +0.000 A 
ATOM      4  C   UNL     1      -4.117  10.817  16.948  0.00  0.00    +0.000 A 
ATOM      5  C   UNL     1      -2.948  10.148  16.562  0.00  0.00    +0.000 A 
ATOM      6  C   UNL     1      -1.821  10.275  17.375  0.00  0.00    +0.000 A 
ATOM      7  N   UNL     1      -0.541   9.781  17.280  0.00  0.00    +0.000 N 
ATOM      8  C   UNL     1       0.194  10.270  18.337  0.00  0.00    +0.000 A 
ATOM      9  N   UNL     1      -0.560  11.003  19.133  0.00  0.00    +0.000 NA
ATOM     10  C   UNL     1      -1.786  11.019  18.540  0.00  0.00    +0.000 A 
ATOM     11  C   UNL     1      -2.979  11.714  18.919  0.00  0.00    +0.000 A 
ATOM     12  C   UNL     1      -3.217  12.576  20.015  0.00  0.00    +0.000 A 
ATOM     13  H   UNL     1      -5.972  12.507  18.354  0.00  0.00    +0.000 HD
ATOM     14  H   UNL     1      -0.186   9.198  16.535  0.00  0.00    +0.000 HD
ENDROOT
BRANCH   1  19
ATOM     15  F   UNL     1      -7.916  16.586  22.583  0.00  0.00    +0.000 F 
ATOM     16  C   UNL     1      -7.097  15.733  21.954  0.00  0.00    +0.000 A 
ATOM     17  C   UNL     1      -6.087  16.224  21.140  0.00  0.00    +0.000 A 
ATOM     18  C   UNL     1      -5.251  15.333  20.456  0.00  0.00    +0.000 A 
ATOM     19  C   UNL     1      -5.408  13.943  20.605  0.00  0.00    +0.000 A 
ATOM     20  C   UNL     1      -6.405  13.480  21.476  0.00  0.00    +0.000 A 
ATOM     21  C   UNL     1      -7.268  14.367  22.124  0.00  0.00    +0.000 A 
ENDBRANCH   1  19
BRANCH  12  22
ATOM     22  C   UNL     1      -2.314  13.036  21.073  0.00  0.00    +0.000 A 
ATOM     23  C   UNL     1      -1.472  14.129  20.855  0.00  0.00    +0.000 A 
ATOM     24  C   UNL     1      -0.669  14.579  21.889  0.00  0.00    +0.000 A 
ATOM     25  N   UNL     1      -0.683  14.058  23.132  0.00  0.00    +0.000 NA
ATOM     26  C   UNL     1      -1.503  13.004  23.328  0.00  0.00    +0.000 A 
ATOM     27  C   UNL     1      -2.298  12.443  22.339  0.00  0.00    +0.000 A 
ENDBRANCH  12  22
BRANCH   8  28
ATOM     28  C   UNL     1       1.661  10.039  18.479  0.00  0.00    +0.000 C 
BRANCH  28  29
ATOM     29  C   UNL     1       2.040   8.596  18.714  0.00  0.00    +0.000 A 
ATOM     30  C   UNL     1       2.794   7.892  17.765  0.00  0.00    +0.000 A 
ATOM     31  C   UNL     1       3.220   6.589  18.027  0.00  0.00    +0.000 A 
ATOM     32  C   UNL     1       2.891   5.974  19.234  0.00  0.00    +0.000 A 
ATOM     33  C   UNL     1       2.124   6.656  20.177  0.00  0.00    +0.000 A 
ATOM     34  C   UNL     1       1.702   7.962  19.919  0.00  0.00    +0.000 A 
ENDBRANCH  28  29
ENDBRANCH   8  28
TORSDOF 4
ENDMDL
MODEL 5
REMARK VINA RESULT:      -7.3      3.761      7.941
REMARK  Name = 
REMARK  4 active torsions:
REMARK  status: ('A' for Active; 'I' for Inactive)
REMARK    1  A    between atoms: C_5  and  C_6
REMARK    2  A    between atoms: C_13  and  C_14
REMARK    3  A    between atoms: C_14  and  C_15
REMARK    4  A    between atoms: C_24  and  C_25
REMARK                            x       y       z     vdW  Elec       q    Type
REMARK                         _______ _______ _______ _____ _____    ______ ____
ROOT
ATOM      1  C   UNL     1      -4.207  11.862  19.134  0.00  0.00    +0.000 A 
ATOM      2  N   UNL     1      -5.560  11.872  19.459  0.00  0.00    +0.000 N 
ATOM      3  C   UNL     1      -5.782  12.386  20.708  0.00  0.00    +0.000 A 
ATOM      4  C   UNL     1      -6.953  12.545  21.461  0.00  0.00    +0.000 A 
ATOM      5  C   UNL     1      -6.851  13.079  22.752  0.00  0.00    +0.000 A 
ATOM      6  C   UNL     1      -5.584  13.438  23.215  0.00  0.00    +0.000 A 
ATOM      7  N   UNL     1      -5.139  13.958  24.408  0.00  0.00    +0.000 N 
ATOM      8  C   UNL     1      -3.768  14.066  24.351  0.00  0.00    +0.000 A 
ATOM      9  N   UNL     1      -3.316  13.698  23.168  0.00  0.00    +0.000 NA
ATOM     10  C   UNL     1      -4.422  13.301  22.478  0.00  0.00    +0.000 A 
ATOM     11  C   UNL     1      -4.531  12.737  21.167  0.00  0.00    +0.000 A 
ATOM     12  C   UNL     1      -3.523  12.437  20.221  0.00  0.00    +0.000 A 
ATOM     13  H   UNL     1      -6.285  11.492  18.869  0.00  0.00    +0.000 HD
ATOM     14  H   UNL     1      -5.715  14.178  25.208  0.00  0.00    +0.000 HD
ENDROOT
BRANCH   1  19
ATOM     15  F   UNL     1      -2.411   9.741  14.246  0.00  0.00    +0.000 F 
ATOM     16  C   UNL     1      -2.856  10.226  15.413  0.00  0.00    +0.000 A 
ATOM     17  C   UNL     1      -3.954  11.073  15.430  0.00  0.00    +0.000 A 
ATOM     18  C   UNL     1      -4.399  11.607  16.645  0.00  0.00    +0.000 A 
ATOM     19  C   UNL     1      -3.761  11.274  17.853  0.00  0.00    +0.000 A 
ATOM     20  C   UNL     1      -2.687  10.374  17.807  0.00  0.00    +0.000 A 
ATOM     21  C   UNL     1      -2.213   9.875  16.590  0.00  0.00    +0.000 A 
ENDBRANCH   1  19
BRANCH  12  22
ATOM     22  C   UNL     1      -2.068  12.587  20.308  0.00  0.00    +0.000 A 
ATOM     23  C   UNL     1      -1.301  11.638  20.986  0.00  0.00    +0.000 A 
ATOM     24  C   UNL     1       0.077  11.772  21.005  0.00  0.00    +0.000 A 
ATOM     25  N   UNL     1       0.745  12.747  20.356  0.00  0.00    +0.000 NA
ATOM     26  C   UNL     1      -0.009  13.655  19.703  0.00  0.00    +0.000 A 
ATOM     27  C   UNL     1      -1.396  13.639  19.679  0.00  0.00    +0.000 A 
ENDBRANCH  12  22
BRANCH   8  28
ATOM     28  C   UNL     1      -2.938  14.476  25.522  0.00  0.00    +0.000 C 
BRANCH  28  29
ATOM     29  C   UNL     1      -2.507  15.923  25.498  0.00  0.00    +0.000 A 
ATOM     30  C   UNL     1      -3.375  16.919  25.030  0.00  0.00    +0.000 A 
ATOM     31  C   UNL     1      -3.009  18.264  25.095  0.00  0.00    +0.000 A 
ATOM     32  C   UNL     1      -1.769  18.627  25.620  0.00  0.00    +0.000 A 
ATOM     33  C   UNL     1      -0.889  17.645  26.070  0.00  0.00    +0.000 A 
ATOM     34  C   UNL     1      -1.256  16.300  26.011  0.00  0.00    +0.000 A 
ENDBRANCH  28  29
ENDBRANCH   8  28
TORSDOF 4
ENDMDL
MODEL 6
REMARK VINA RESULT:      -7.3      3.814      7.974
REMARK  Name = 
REMARK  4 active torsions:
REMARK  status: ('A' for Active; 'I' for Inactive)
REMARK    1  A    between atoms: C_5  and  C_6
REMARK    2  A    between atoms: C_13  and  C_14
REMARK    3  A    between atoms: C_14  and  C_15
REMARK    4  A    between atoms: C_24  and  C_25
REMARK                            x       y       z     vdW  Elec       q    Type
REMARK                         _______ _______ _______ _____ _____    ______ ____
ROOT
ATOM      1  C   UNL     1      -4.146  11.891  19.095  0.00  0.00    +0.000 A 
ATOM      2  N   UNL     1      -5.501  11.890  19.409  0.00  0.00    +0.000 N 
ATOM      3  C   UNL     1      -5.736  12.389  20.662  0.00  0.00    +0.000 A 
ATOM      4  C   UNL     1      -6.914  12.533  21.407  0.00  0.00    +0.000 A 
ATOM      5  C   UNL     1      -6.825  13.055  22.704  0.00  0.00    +0.000 A 
ATOM      6  C   UNL     1      -5.564  13.416  23.182  0.00  0.00    +0.000 A 
ATOM      7  N   UNL     1      -5.131  13.926  24.383  0.00  0.00    +0.000 N 
ATOM      8  C   UNL     1      -3.760  14.042  24.338  0.00  0.00    +0.000 A 
ATOM      9  N   UNL     1      -3.298  13.690  23.155  0.00  0.00    +0.000 NA
ATOM     10  C   UNL     1      -4.396  13.293  22.453  0.00  0.00    +0.000 A 
ATOM     11  C   UNL     1      -4.492  12.742  21.134  0.00  0.00    +0.000 A 
ATOM     12  C   UNL     1      -3.474  12.458  20.194  0.00  0.00    +0.000 A 
ATOM     13  H   UNL     1      -6.220  11.511  18.810  0.00  0.00    +0.000 HD
ATOM     14  H   UNL     1      -5.715  14.135  25.182  0.00  0.00    +0.000 HD
ENDROOT
BRANCH   1  19
ATOM     15  F   UNL     1      -2.497   9.595  14.235  0.00  0.00    +0.000 F 
ATOM     16  C   UNL     1      -2.873  10.162  15.389  0.00  0.00    +0.000 A 
ATOM     17  C   UNL     1      -2.175   9.877  16.553  0.00  0.00    +0.000 A 
ATOM     18  C   UNL     1      -2.587  10.443  17.765  0.00  0.00    +0.000 A 
ATOM     19  C   UNL     1      -3.687  11.319  17.812  0.00  0.00    +0.000 A 
ATOM     20  C   UNL     1      -4.339  11.627  16.609  0.00  0.00    +0.000 A 
ATOM     21  C   UNL     1      -3.956  11.027  15.406  0.00  0.00    +0.000 A 
ENDBRANCH   1  19
BRANCH  12  22
ATOM     22  C   UNL     1      -2.020  12.616  20.293  0.00  0.00    +0.000 A 
ATOM     23  C   UNL     1      -1.396  13.743  19.755  0.00  0.00    +0.000 A 
ATOM     24  C   UNL     1      -0.029  13.896  19.912  0.00  0.00    +0.000 A 
ATOM     25  N   UNL     1       0.747  13.042  20.609  0.00  0.00    +0.000 NA
ATOM     26  C   UNL     1       0.129  11.959  21.125  0.00  0.00    +0.000 A 
ATOM     27  C   UNL     1      -1.222  11.688  20.967  0.00  0.00    +0.000 A 
ENDBRANCH  12  22
BRANCH   8  28
ATOM     28  C   UNL     1      -2.943  14.445  25.520  0.00  0.00    +0.000 C 
BRANCH  28  29
ATOM     29  C   UNL     1      -2.559  15.905  25.538  0.00  0.00    +0.000 A 
ATOM     30  C   UNL     1      -3.443  16.882  25.057  0.00  0.00    +0.000 A 
ATOM     31  C   UNL     1      -3.123  18.236  25.161  0.00  0.00    +0.000 A 
ATOM     32  C   UNL     1      -1.916  18.629  25.735  0.00  0.00    +0.000 A 
ATOM     33  C   UNL     1      -1.019  17.667  26.199  0.00  0.00    +0.000 A 
ATOM     34  C   UNL     1      -1.340  16.312  26.102  0.00  0.00    +0.000 A 
ENDBRANCH  28  29
ENDBRANCH   8  28
TORSDOF 4
ENDMDL
MODEL 7
REMARK VINA RESULT:      -7.3      3.770      7.904
REMARK  Name = 
REMARK  4 active torsions:
REMARK  status: ('A' for Active; 'I' for Inactive)
REMARK    1  A    between atoms: C_5  and  C_6
REMARK    2  A    between atoms: C_13  and  C_14
REMARK    3  A    between atoms: C_14  and  C_15
REMARK    4  A    between atoms: C_24  and  C_25
REMARK                            x       y       z     vdW  Elec       q    Type
REMARK                         _______ _______ _______ _____ _____    ______ ____
ROOT
ATOM      1  C   UNL     1      -4.169  11.909  19.093  0.00  0.00    +0.000 A 
ATOM      2  N   UNL     1      -5.526  11.903  19.403  0.00  0.00    +0.000 N 
ATOM      3  C   UNL     1      -5.767  12.407  20.653  0.00  0.00    +0.000 A 
ATOM      4  C   UNL     1      -6.948  12.549  21.393  0.00  0.00    +0.000 A 
ATOM      5  C   UNL     1      -6.866  13.077  22.688  0.00  0.00    +0.000 A 
ATOM      6  C   UNL     1      -5.607  13.446  23.168  0.00  0.00    +0.000 A 
ATOM      7  N   UNL     1      -5.181  13.963  24.369  0.00  0.00    +0.000 N 
ATOM      8  C   UNL     1      -3.811  14.085  24.327  0.00  0.00    +0.000 A 
ATOM      9  N   UNL     1      -3.343  13.729  23.147  0.00  0.00    +0.000 NA
ATOM     10  C   UNL     1      -4.436  13.325  22.443  0.00  0.00    +0.000 A 
ATOM     11  C   UNL     1      -4.525  12.768  21.127  0.00  0.00    +0.000 A 
ATOM     12  C   UNL     1      -3.503  12.484  20.191  0.00  0.00    +0.000 A 
ATOM     13  H   UNL     1      -6.241  11.519  18.802  0.00  0.00    +0.000 HD
ATOM     14  H   UNL     1      -5.768  14.173  25.164  0.00  0.00    +0.000 HD
ENDROOT
BRANCH   1  19
ATOM     15  F   UNL     1      -2.495   9.599  14.247  0.00  0.00    +0.000 F 
ATOM     16  C   UNL     1      -2.877  10.169  15.398  0.00  0.00    +0.000 A 
ATOM     17  C   UNL     1      -2.189   9.882  16.568  0.00  0.00    +0.000 A 
ATOM     18  C   UNL     1      -2.608  10.452  17.776  0.00  0.00    +0.000 A 
ATOM     19  C   UNL     1      -3.703  11.333  17.814  0.00  0.00    +0.000 A 
ATOM     20  C   UNL     1      -4.344  11.643  16.606  0.00  0.00    +0.000 A 
ATOM     21  C   UNL     1      -3.956  11.040  15.406  0.00  0.00    +0.000 A 
ENDBRANCH   1  19
BRANCH  12  22
ATOM     22  C   UNL     1      -2.051  12.649  20.295  0.00  0.00    +0.000 A 
ATOM     23  C   UNL     1      -1.278  11.685  20.946  0.00  0.00    +0.000 A 
ATOM     24  C   UNL     1       0.099  11.835  20.981  0.00  0.00    +0.000 A 
ATOM     25  N   UNL     1       0.760  12.841  20.371  0.00  0.00    +0.000 NA
ATOM     26  C   UNL     1      -0.001  13.763  19.746  0.00  0.00    +0.000 A 
ATOM     27  C   UNL     1      -1.388  13.731  19.710  0.00  0.00    +0.000 A 
ENDBRANCH  12  22
BRANCH   8  28
ATOM     28  C   UNL     1      -2.998  14.497  25.510  0.00  0.00    +0.000 C 
BRANCH  28  29
ATOM     29  C   UNL     1      -2.577  15.947  25.497  0.00  0.00    +0.000 A 
ATOM     30  C   UNL     1      -1.280  16.317  25.880  0.00  0.00    +0.000 A 
ATOM     31  C   UNL     1      -0.866  17.646  25.778  0.00  0.00    +0.000 A 
ATOM     32  C   UNL     1      -1.744  18.619  25.303  0.00  0.00    +0.000 A 
ATOM     33  C   UNL     1      -3.042  18.267  24.938  0.00  0.00    +0.000 A 
ATOM     34  C   UNL     1      -3.456  16.937  25.032  0.00  0.00    +0.000 A 
ENDBRANCH  28  29
ENDBRANCH   8  28
TORSDOF 4
ENDMDL
MODEL 8
REMARK VINA RESULT:      -7.1      3.794      7.808
REMARK  Name = 
REMARK  4 active torsions:
REMARK  status: ('A' for Active; 'I' for Inactive)
REMARK    1  A    between atoms: C_5  and  C_6
REMARK    2  A    between atoms: C_13  and  C_14
REMARK    3  A    between atoms: C_14  and  C_15
REMARK    4  A    between atoms: C_24  and  C_25
REMARK                            x       y       z     vdW  Elec       q    Type
REMARK                         _______ _______ _______ _____ _____    ______ ____
ROOT
ATOM      1  C   UNL     1      -4.153  11.956  19.286  0.00  0.00    +0.000 A 
ATOM      2  N   UNL     1      -5.499  11.955  19.636  0.00  0.00    +0.000 N 
ATOM      3  C   UNL     1      -5.707  12.517  20.867  0.00  0.00    +0.000 A 
ATOM      4  C   UNL     1      -6.867  12.686  21.635  0.00  0.00    +0.000 A 
ATOM      5  C   UNL     1      -6.751  13.276  22.900  0.00  0.00    +0.000 A 
ATOM      6  C   UNL     1      -5.482  13.678  23.323  0.00  0.00    +0.000 A 
ATOM      7  N   UNL     1      -5.025  14.255  24.484  0.00  0.00    +0.000 N 
ATOM      8  C   UNL     1      -3.657  14.385  24.396  0.00  0.00    +0.000 A 
ATOM      9  N   UNL     1      -3.222  13.976  23.220  0.00  0.00    +0.000 NA
ATOM     10  C   UNL     1      -4.332  13.530  22.570  0.00  0.00    +0.000 A 
ATOM     11  C   UNL     1      -4.456  12.909  21.286  0.00  0.00    +0.000 A 
ATOM     12  C   UNL     1      -3.459  12.588  20.334  0.00  0.00    +0.000 A 
ATOM     13  H   UNL     1      -6.229  11.536  19.077  0.00  0.00    +0.000 HD
ATOM     14  H   UNL     1      -5.590  14.499  25.286  0.00  0.00    +0.000 HD
ENDROOT
BRANCH   1  19
ATOM     15  F   UNL     1      -2.410   9.662  14.456  0.00  0.00    +0.000 F 
ATOM     16  C   UNL     1      -2.841  10.189  15.610  0.00  0.00    +0.000 A 
ATOM     17  C   UNL     1      -3.956  11.014  15.614  0.00  0.00    +0.000 A 
ATOM     18  C   UNL     1      -4.388  11.590  16.814  0.00  0.00    +0.000 A 
ATOM     19  C   UNL     1      -3.720  11.322  18.022  0.00  0.00    +0.000 A 
ATOM     20  C   UNL     1      -2.629  10.441  17.992  0.00  0.00    +0.000 A 
ATOM     21  C   UNL     1      -2.169   9.901  16.788  0.00  0.00    +0.000 A 
ENDBRANCH   1  19
BRANCH  12  22
ATOM     22  C   UNL     1      -2.006  12.768  20.385  0.00  0.00    +0.000 A 
ATOM     23  C   UNL     1      -1.424  13.940  19.898  0.00  0.00    +0.000 A 
ATOM     24  C   UNL     1      -0.055  14.111  20.010  0.00  0.00    +0.000 A 
ATOM     25  N   UNL     1       0.764  13.229  20.617  0.00  0.00    +0.000 NA
ATOM     26  C   UNL     1       0.187  12.102  21.085  0.00  0.00    +0.000 A 
ATOM     27  C   UNL     1      -1.165  11.814  20.964  0.00  0.00    +0.000 A 
ENDBRANCH  12  22
BRANCH   8  28
ATOM     28  C   UNL     1      -2.814  14.860  25.532  0.00  0.00    +0.000 C 
BRANCH  28  29
ATOM     29  C   UNL     1      -2.071  16.145  25.256  0.00  0.00    +0.000 A 
ATOM     30  C   UNL     1      -0.735  16.121  24.832  0.00  0.00    +0.000 A 
ATOM     31  C   UNL     1      -0.081  17.305  24.489  0.00  0.00    +0.000 A 
ATOM     32  C   UNL     1      -0.749  18.525  24.576  0.00  0.00    +0.000 A 
ATOM     33  C   UNL     1      -2.071  18.565  25.017  0.00  0.00    +0.000 A 
ATOM     34  C   UNL     1      -2.729  17.381  25.353  0.00  0.00    +0.000 A 
ENDBRANCH  28  29
ENDBRANCH   8  28
TORSDOF 4
ENDMDL
MODEL 9
REMARK VINA RESULT:      -7.1      3.757      5.954
REMARK  Name = 
REMARK  4 active torsions:
REMARK  status: ('A' for Active; 'I' for Inactive)
REMARK    1  A    between atoms: C_5  and  C_6
REMARK    2  A    between atoms: C_13  and  C_14
REMARK    3  A    between atoms: C_14  and  C_15
REMARK    4  A    between atoms: C_24  and  C_25
REMARK                            x       y       z     vdW  Elec       q    Type
REMARK                         _______ _______ _______ _____ _____    ______ ____
ROOT
ATOM      1  C   UNL     1      -4.009  14.738  23.813  0.00  0.00    +0.000 A 
ATOM      2  N   UNL     1      -5.174  14.171  24.319  0.00  0.00    +0.000 N 
ATOM      3  C   UNL     1      -5.854  13.465  23.363  0.00  0.00    +0.000 A 
ATOM      4  C   UNL     1      -7.076  12.779  23.399  0.00  0.00    +0.000 A 
ATOM      5  C   UNL     1      -7.537  12.173  22.223  0.00  0.00    +0.000 A 
ATOM      6  C   UNL     1      -6.744  12.275  21.078  0.00  0.00    +0.000 A 
ATOM      7  N   UNL     1      -6.906  11.826  19.788  0.00  0.00    +0.000 N 
ATOM      8  C   UNL     1      -5.835  12.261  19.040  0.00  0.00    +0.000 A 
ATOM      9  N   UNL     1      -4.970  12.913  19.791  0.00  0.00    +0.000 NA
ATOM     10  C   UNL     1      -5.531  12.936  21.032  0.00  0.00    +0.000 A 
ATOM     11  C   UNL     1      -5.075  13.569  22.233  0.00  0.00    +0.000 A 
ATOM     12  C   UNL     1      -3.914  14.344  22.466  0.00  0.00    +0.000 A 
ATOM     13  H   UNL     1      -5.508  14.312  25.261  0.00  0.00    +0.000 HD
ATOM     14  H   UNL     1      -7.699  11.307  19.438  0.00  0.00    +0.000 HD
ENDROOT
BRANCH   1  19
ATOM     15  F   UNL     1      -0.753  18.061  26.972  0.00  0.00    +0.000 F 
ATOM     16  C   UNL     1      -1.543  17.264  26.241  0.00  0.00    +0.000 A 
ATOM     17  C   UNL     1      -1.262  15.908  26.158  0.00  0.00    +0.000 A 
ATOM     18  C   UNL     1      -2.068  15.080  25.367  0.00  0.00    +0.000 A 
ATOM     19  C   UNL     1      -3.176  15.603  24.676  0.00  0.00    +0.000 A 
ATOM     20  C   UNL     1      -3.462  16.968  24.823  0.00  0.00    +0.000 A 
ATOM     21  C   UNL     1      -2.633  17.804  25.575  0.00  0.00    +0.000 A 
ENDBRANCH   1  19
BRANCH  12  22
ATOM     22  C   UNL     1      -2.849  14.755  21.547  0.00  0.00    +0.000 A 
ATOM     23  C   UNL     1      -1.882  13.836  21.136  0.00  0.00    +0.000 A 
ATOM     24  C   UNL     1      -0.919  14.233  20.223  0.00  0.00    +0.000 A 
ATOM     25  N   UNL     1      -0.884  15.455  19.653  0.00  0.00    +0.000 NA
ATOM     26  C   UNL     1      -1.827  16.331  20.059  0.00  0.00    +0.000 A 
ATOM     27  C   UNL     1      -2.793  16.045  21.013  0.00  0.00    +0.000 A 
ENDBRANCH  12  22
BRANCH   8  28
ATOM     28  C   UNL     1      -5.746  12.063  17.563  0.00  0.00    +0.000 C 
BRANCH  28  29
ATOM     29  C   UNL     1      -4.559  11.241  17.120  0.00  0.00    +0.000 A 
ATOM     30  C   UNL     1      -4.083  11.327  15.804  0.00  0.00    +0.000 A 
ATOM     31  C   UNL     1      -2.931  10.638  15.424  0.00  0.00    +0.000 A 
ATOM     32  C   UNL     1      -2.249   9.849  16.349  0.00  0.00    +0.000 A 
ATOM     33  C   UNL     1      -2.724   9.739  17.654  0.00  0.00    +0.000 A 
ATOM     34  C   UNL     1      -3.872  10.433  18.039  0.00  0.00    +0.000 A 
ENDBRANCH  28  29
ENDBRANCH   8  28
TORSDOF 4
ENDMDL
