MODEL 1
REMARK VINA RESULT:      -7.8      0.000      0.000
REMARK  Name = 
REMARK  5 active torsions:
REMARK  status: ('A' for Active; 'I' for Inactive)
REMARK    1  A    between atoms: C_1  and  C_2
REMARK    2  A    between atoms: C_2  and  C_3
REMARK    3  A    between atoms: C_2  and  N_4
REMARK    4  A    between atoms: C_13  and  C_14
REMARK    5  A    between atoms: N_16  and  C_17
REMARK                            x       y       z     vdW  Elec       q    Type
REMARK                         _______ _______ _______ _____ _____    ______ ____
ROOT
ATOM      1  N   UNL     1       6.222   4.783  15.061  0.00  0.00    +0.000 N 
ATOM      2  C   UNL     1       5.419   5.680  15.717  0.00  0.00    +0.000 C 
ATOM      3  O   UNL     1       4.955   6.670  15.158  0.00  0.00    +0.000 OA
ATOM      4  N   UNL     1       5.197   5.401  17.059  0.00  0.00    +0.000 N 
ATOM      5  C   UNL     1       5.863   4.330  17.847  0.00  0.00    +0.000 C 
ATOM      6  C   UNL     1       4.838   3.470  18.619  0.00  0.00    +0.000 C 
ATOM      7  C   UNL     1       3.884   4.399  19.249  0.00  0.00    +0.000 A 
ATOM      8  O   UNL     1       3.079   4.023  20.262  0.00  0.00    +0.000 OA
ATOM      9  N   UNL     1       2.298   5.116  20.633  0.00  0.00    +0.000 NA
ATOM     10  C   UNL     1       2.655   6.125  19.808  0.00  0.00    +0.000 A 
ATOM     11  C   UNL     1       3.671   5.706  18.911  0.00  0.00    +0.000 A 
ATOM     12  C   UNL     1       4.433   6.406  17.841  0.00  0.00    +0.000 C 
ATOM     13  H   UNL     1       6.203   3.840  15.402  0.00  0.00    +0.000 HD
ENDROOT
BRANCH  10  14
ATOM     14  C   UNL     1       2.042   7.457  19.883  0.00  0.00    +0.000 C 
ATOM     15  O   UNL     1       2.181   8.242  18.952  0.00  0.00    +0.000 OA
ATOM     16  N   UNL     1       1.373   7.715  21.069  0.00  0.00    +0.000 N 
ATOM     17  H   UNL     1       1.465   7.004  21.790  0.00  0.00    +0.000 HD
BRANCH  16  18
ATOM     18  C   UNL     1       0.687   8.909  21.385  0.00  0.00    +0.000 A 
ATOM     19  C   UNL     1       0.108   9.743  20.430  0.00  0.00    +0.000 A 
ATOM     20  C   UNL     1      -0.514  10.929  20.815  0.00  0.00    +0.000 A 
ATOM     21  C   UNL     1      -0.551  11.246  22.161  0.00  0.00    +0.000 A 
ATOM     22  N   UNL     1      -0.037  10.454  23.127  0.00  0.00    +0.000 NA
ATOM     23  C   UNL     1       0.560   9.305  22.718  0.00  0.00    +0.000 A 
ENDBRANCH  16  18
ENDBRANCH  10  14
BRANCH   1  25
ATOM     24  C   UNL     1       8.016   5.278  13.490  0.00  0.00    +0.000 C 
ATOM     25  C   UNL     1       6.544   4.901  13.642  0.00  0.00    +0.000 C 
ATOM     26  C   UNL     1       6.261   3.581  12.928  0.00  0.00    +0.000 C 
ENDBRANCH   1  25
TORSDOF 3
ENDMDL
MODEL 2
REMARK VINA RESULT:      -7.6      1.382      8.366
REMARK  Name = 
REMARK  5 active torsions:
REMARK  status: ('A' for Active; 'I' for Inactive)
REMARK    1  A    between atoms: C_1  and  C_2
REMARK    2  A    between atoms: C_2  and  C_3
REMARK    3  A    between atoms: C_2  and  N_4
REMARK    4  A    between atoms: C_13  and  C_14
REMARK    5  A    between atoms: N_16  and  C_17
REMARK                            x       y       z     vdW  Elec       q    Type
REMARK                         _______ _______ _______ _____ _____    ______ ____
ROOT
ATOM      1  N   UNL     1       0.925   8.126  21.114  0.00  0.00    +0.000 N 
ATOM      2  C   UNL     1       1.788   7.919  20.069  0.00  0.00    +0.000 C 
ATOM      3  O   UNL     1       2.236   8.846  19.400  0.00  0.00    +0.000 OA
ATOM      4  N   UNL     1       2.090   6.589  19.809  0.00  0.00    +0.000 N 
ATOM      5  C   UNL     1       1.454   5.410  20.453  0.00  0.00    +0.000 C 
ATOM      6  C   UNL     1       2.508   4.414  20.988  0.00  0.00    +0.000 C 
ATOM      7  C   UNL     1       3.520   4.251  19.931  0.00  0.00    +0.000 A 
ATOM      8  O   UNL     1       4.381   3.215  19.915  0.00  0.00    +0.000 OA
ATOM      9  N   UNL     1       5.208   3.345  18.801  0.00  0.00    +0.000 NA
ATOM     10  C   UNL     1       4.820   4.481  18.181  0.00  0.00    +0.000 A 
ATOM     11  C   UNL     1       3.739   5.087  18.871  0.00  0.00    +0.000 A 
ATOM     12  C   UNL     1       2.925   6.307  18.614  0.00  0.00    +0.000 C 
ATOM     13  H   UNL     1       0.945   7.442  21.847  0.00  0.00    +0.000 HD
ENDROOT
BRANCH  10  14
ATOM     14  C   UNL     1       5.465   4.970  16.956  0.00  0.00    +0.000 C 
ATOM     15  O   UNL     1       5.825   6.139  16.884  0.00  0.00    +0.000 OA
ATOM     16  N   UNL     1       5.571   4.025  15.948  0.00  0.00    +0.000 N 
ATOM     17  H   UNL     1       5.105   3.138  16.124  0.00  0.00    +0.000 HD
BRANCH  16  18
ATOM     18  C   UNL     1       6.163   4.232  14.681  0.00  0.00    +0.000 A 
ATOM     19  C   UNL     1       5.728   3.605  13.516  0.00  0.00    +0.000 A 
ATOM     20  C   UNL     1       6.391   3.826  12.309  0.00  0.00    +0.000 A 
ATOM     21  C   UNL     1       7.474   4.686  12.301  0.00  0.00    +0.000 A 
ATOM     22  N   UNL     1       7.910   5.344  13.396  0.00  0.00    +0.000 NA
ATOM     23  C   UNL     1       7.241   5.109  14.554  0.00  0.00    +0.000 A 
ENDBRANCH  16  18
ENDBRANCH  10  14
BRANCH   1  25
ATOM     24  C   UNL     1      -0.524  10.007  20.572  0.00  0.00    +0.000 C 
ATOM     25  C   UNL     1       0.514   9.458  21.547  0.00  0.00    +0.000 C 
ATOM     26  C   UNL     1      -0.069   9.393  22.958  0.00  0.00    +0.000 C 
ENDBRANCH   1  25
TORSDOF 3
ENDMDL
MODEL 3
REMARK VINA RESULT:      -7.6      1.885      8.159
REMARK  Name = 
REMARK  5 active torsions:
REMARK  status: ('A' for Active; 'I' for Inactive)
REMARK    1  A    between atoms: C_1  and  C_2
REMARK    2  A    between atoms: C_2  and  C_3
REMARK    3  A    between atoms: C_2  and  N_4
REMARK    4  A    between atoms: C_13  and  C_14
REMARK    5  A    between atoms: N_16  and  C_17
REMARK                            x       y       z     vdW  Elec       q    Type
REMARK                         _______ _______ _______ _____ _____    ______ ____
ROOT
ATOM      1  N   UNL     1       1.315   8.706  19.208  0.00  0.00    +0.000 N 
ATOM      2  C   UNL     1       2.316   8.206  18.414  0.00  0.00    +0.000 C 
ATOM      3  O   UNL     1       2.905   8.901  17.592  0.00  0.00    +0.000 OA
ATOM      4  N   UNL     1       2.587   6.856  18.590  0.00  0.00    +0.000 N 
ATOM      5  C   UNL     1       1.803   5.912  19.430  0.00  0.00    +0.000 C 
ATOM      6  C   UNL     1       2.713   5.106  20.383  0.00  0.00    +0.000 C 
ATOM      7  C   UNL     1       3.865   4.644  19.589  0.00  0.00    +0.000 A 
ATOM      8  O   UNL     1       4.666   3.642  20.003  0.00  0.00    +0.000 OA
ATOM      9  N   UNL     1       5.658   3.445  19.043  0.00  0.00    +0.000 NA
ATOM     10  C   UNL     1       5.424   4.359  18.076  0.00  0.00    +0.000 A 
ATOM     11  C   UNL     1       4.283   5.142  18.387  0.00  0.00    +0.000 A 
ATOM     12  C   UNL     1       3.578   6.240  17.671  0.00  0.00    +0.000 C 
ATOM     13  H   UNL     1       1.191   8.259  20.097  0.00  0.00    +0.000 HD
ENDROOT
BRANCH  10  14
ATOM     14  C   UNL     1       6.271   4.475  16.882  0.00  0.00    +0.000 C 
ATOM     15  O   UNL     1       7.462   4.735  17.005  0.00  0.00    +0.000 OA
ATOM     16  N   UNL     1       5.596   4.309  15.682  0.00  0.00    +0.000 N 
ATOM     17  H   UNL     1       4.585   4.229  15.753  0.00  0.00    +0.000 HD
BRANCH  16  18
ATOM     18  C   UNL     1       6.178   4.355  14.395  0.00  0.00    +0.000 A 
ATOM     19  C   UNL     1       5.780   3.538  13.339  0.00  0.00    +0.000 A 
ATOM     20  C   UNL     1       6.433   3.611  12.109  0.00  0.00    +0.000 A 
ATOM     21  C   UNL     1       7.469   4.516  11.966  0.00  0.00    +0.000 A 
ATOM     22  N   UNL     1       7.867   5.353  12.947  0.00  0.00    +0.000 NA
ATOM     23  C   UNL     1       7.209   5.259  14.131  0.00  0.00    +0.000 A 
ENDBRANCH  16  18
ENDBRANCH  10  14
BRANCH   1  25
ATOM     24  C   UNL     1      -0.392  10.239  18.391  0.00  0.00    +0.000 C 
ATOM     25  C   UNL     1       0.910  10.108  19.178  0.00  0.00    +0.000 C 
ATOM     26  C   UNL     1       0.721  10.629  20.602  0.00  0.00    +0.000 C 
ENDBRANCH   1  25
TORSDOF 3
ENDMDL
MODEL 4
REMARK VINA RESULT:      -7.4      1.709      8.007
REMARK  Name = 
REMARK  5 active torsions:
REMARK  status: ('A' for Active; 'I' for Inactive)
REMARK    1  A    between atoms: C_1  and  C_2
REMARK    2  A    between atoms: C_2  and  C_3
REMARK    3  A    between atoms: C_2  and  N_4
REMARK    4  A    between atoms: C_13  and  C_14
REMARK    5  A    between atoms: N_16  and  C_17
REMARK                            x       y       z     vdW  Elec       q    Type
REMARK                         _______ _______ _______ _____ _____    ______ ____
ROOT
ATOM      1  N   UNL     1       0.605   7.602  21.023  0.00  0.00    +0.000 N 
ATOM      2  C   UNL     1       1.671   7.302  20.214  0.00  0.00    +0.000 C 
ATOM      3  O   UNL     1       2.334   8.175  19.661  0.00  0.00    +0.000 OA
ATOM      4  N   UNL     1       1.922   5.947  20.047  0.00  0.00    +0.000 N 
ATOM      5  C   UNL     1       1.062   4.836  20.534  0.00  0.00    +0.000 C 
ATOM      6  C   UNL     1       1.880   3.782  21.313  0.00  0.00    +0.000 C 
ATOM      7  C   UNL     1       3.097   3.516  20.527  0.00  0.00    +0.000 A 
ATOM      8  O   UNL     1       3.855   2.419  20.726  0.00  0.00    +0.000 OA
ATOM      9  N   UNL     1       4.929   2.457  19.838  0.00  0.00    +0.000 NA
ATOM     10  C   UNL     1       4.786   3.601  19.133  0.00  0.00    +0.000 A 
ATOM     11  C   UNL     1       3.624   4.304  19.541  0.00  0.00    +0.000 A 
ATOM     12  C   UNL     1       2.990   5.571  19.086  0.00  0.00    +0.000 C 
ATOM     13  H   UNL     1       0.399   6.938  21.747  0.00  0.00    +0.000 HD
ENDROOT
BRANCH  10  14
ATOM     14  C   UNL     1       5.738   4.006  18.091  0.00  0.00    +0.000 C 
ATOM     15  O   UNL     1       6.852   4.405  18.407  0.00  0.00    +0.000 OA
ATOM     16  N   UNL     1       5.241   3.930  16.799  0.00  0.00    +0.000 N 
ATOM     17  H   UNL     1       4.253   3.704  16.720  0.00  0.00    +0.000 HD
BRANCH  16  18
ATOM     18  C   UNL     1       5.954   4.245  15.620  0.00  0.00    +0.000 A 
ATOM     19  C   UNL     1       5.675   3.682  14.377  0.00  0.00    +0.000 A 
ATOM     20  C   UNL     1       6.452   4.010  13.266  0.00  0.00    +0.000 A 
ATOM     21  C   UNL     1       7.490   4.909  13.431  0.00  0.00    +0.000 A 
ATOM     22  N   UNL     1       7.776   5.508  14.607  0.00  0.00    +0.000 NA
ATOM     23  C   UNL     1       6.999   5.170  15.668  0.00  0.00    +0.000 A 
ENDBRANCH  16  18
ENDBRANCH  10  14
BRANCH   1  25
ATOM     24  C   UNL     1       0.959   9.443  22.576  0.00  0.00    +0.000 C 
ATOM     25  C   UNL     1       0.208   8.971  21.334  0.00  0.00    +0.000 C 
ATOM     26  C   UNL     1       0.516   9.887  20.150  0.00  0.00    +0.000 C 
ENDBRANCH   1  25
TORSDOF 3
ENDMDL
MODEL 5
REMARK VINA RESULT:      -7.4      3.258      9.076
REMARK  Name = 
REMARK  5 active torsions:
REMARK  status: ('A' for Active; 'I' for Inactive)
REMARK    1  A    between atoms: C_1  and  C_2
REMARK    2  A    between atoms: C_2  and  C_3
REMARK    3  A    between atoms: C_2  and  N_4
REMARK    4  A    between atoms: C_13  and  C_14
REMARK    5  A    between atoms: N_16  and  C_17
REMARK                            x       y       z     vdW  Elec       q    Type
REMARK                         _______ _______ _______ _____ _____    ______ ____
ROOT
ATOM      1  N   UNL     1      -0.956  12.254  22.281  0.00  0.00    +0.000 N 
ATOM      2  C   UNL     1      -0.490  10.983  22.059  0.00  0.00    +0.000 C 
ATOM      3  O   UNL     1      -0.903  10.018  22.695  0.00  0.00    +0.000 OA
ATOM      4  N   UNL     1       0.497  10.879  21.088  0.00  0.00    +0.000 N 
ATOM      5  C   UNL     1       1.172  12.015  20.406  0.00  0.00    +0.000 C 
ATOM      6  C   UNL     1       1.167  11.842  18.871  0.00  0.00    +0.000 C 
ATOM      7  C   UNL     1       1.554  10.448  18.594  0.00  0.00    +0.000 A 
ATOM      8  O   UNL     1       1.982  10.049  17.380  0.00  0.00    +0.000 OA
ATOM      9  N   UNL     1       2.264   8.686  17.437  0.00  0.00    +0.000 NA
ATOM     10  C   UNL     1       1.978   8.300  18.700  0.00  0.00    +0.000 A 
ATOM     11  C   UNL     1       1.525   9.401  19.472  0.00  0.00    +0.000 A 
ATOM     12  C   UNL     1       1.117   9.543  20.897  0.00  0.00    +0.000 C 
ATOM     13  H   UNL     1      -0.924  12.880  21.497  0.00  0.00    +0.000 HD
ENDROOT
BRANCH  10  14
ATOM     14  C   UNL     1       2.141   6.914  19.156  0.00  0.00    +0.000 C 
ATOM     15  O   UNL     1       1.942   6.635  20.332  0.00  0.00    +0.000 OA
ATOM     16  N   UNL     1       2.559   6.032  18.172  0.00  0.00    +0.000 N 
ATOM     17  H   UNL     1       2.804   6.452  17.279  0.00  0.00    +0.000 HD
BRANCH  16  18
ATOM     18  C   UNL     1       2.775   4.646  18.344  0.00  0.00    +0.000 A 
ATOM     19  C   UNL     1       1.849   3.671  17.978  0.00  0.00    +0.000 A 
ATOM     20  C   UNL     1       2.114   2.324  18.220  0.00  0.00    +0.000 A 
ATOM     21  C   UNL     1       3.315   1.986  18.818  0.00  0.00    +0.000 A 
ATOM     22  N   UNL     1       4.258   2.891  19.158  0.00  0.00    +0.000 NA
ATOM     23  C   UNL     1       3.970   4.194  18.905  0.00  0.00    +0.000 A 
ENDBRANCH  16  18
ENDBRANCH  10  14
BRANCH   1  25
ATOM     24  C   UNL     1      -1.778  13.944  23.829  0.00  0.00    +0.000 C 
ATOM     25  C   UNL     1      -2.010  12.553  23.245  0.00  0.00    +0.000 C 
ATOM     26  C   UNL     1      -3.377  12.487  22.565  0.00  0.00    +0.000 C 
ENDBRANCH   1  25
TORSDOF 3
ENDMDL
MODEL 6
REMARK VINA RESULT:      -7.4      2.546      7.860
REMARK  Name = 
REMARK  5 active torsions:
REMARK  status: ('A' for Active; 'I' for Inactive)
REMARK    1  A    between atoms: C_1  and  C_2
REMARK    2  A    between atoms: C_2  and  C_3
REMARK    3  A    between atoms: C_2  and  N_4
REMARK    4  A    between atoms: C_13  and  C_14
REMARK    5  A    between atoms: N_16  and  C_17
REMARK                            x       y       z     vdW  Elec       q    Type
REMARK                         _______ _______ _______ _____ _____    ______ ____
ROOT
ATOM      1  N   UNL     1       1.351  12.392  18.957  0.00  0.00    +0.000 N 
ATOM      2  C   UNL     1       1.890  11.253  18.417  0.00  0.00    +0.000 C 
ATOM      3  O   UNL     1       2.723  11.291  17.515  0.00  0.00    +0.000 OA
ATOM      4  N   UNL     1       1.404  10.064  18.943  0.00  0.00    +0.000 N 
ATOM      5  C   UNL     1       0.275   9.933  19.902  0.00  0.00    +0.000 C 
ATOM      6  C   UNL     1       0.654   9.050  21.111  0.00  0.00    +0.000 C 
ATOM      7  C   UNL     1       1.341   7.862  20.577  0.00  0.00    +0.000 A 
ATOM      8  O   UNL     1       1.499   6.737  21.302  0.00  0.00    +0.000 OA
ATOM      9  N   UNL     1       2.186   5.805  20.526  0.00  0.00    +0.000 NA
ATOM     10  C   UNL     1       2.436   6.415  19.347  0.00  0.00    +0.000 A 
ATOM     11  C   UNL     1       1.907   7.731  19.339  0.00  0.00    +0.000 A 
ATOM     12  C   UNL     1       1.869   8.804  18.308  0.00  0.00    +0.000 C 
ATOM     13  H   UNL     1       1.046  12.328  19.911  0.00  0.00    +0.000 HD
ENDROOT
BRANCH  10  14
ATOM     14  C   UNL     1       3.158   5.751  18.255  0.00  0.00    +0.000 C 
ATOM     15  O   UNL     1       2.597   4.883  17.596  0.00  0.00    +0.000 OA
ATOM     16  N   UNL     1       4.471   6.166  18.098  0.00  0.00    +0.000 N 
ATOM     17  H   UNL     1       4.820   6.801  18.812  0.00  0.00    +0.000 HD
BRANCH  16  18
ATOM     18  C   UNL     1       5.373   5.698  17.116  0.00  0.00    +0.000 A 
ATOM     19  C   UNL     1       5.135   5.788  15.747  0.00  0.00    +0.000 A 
ATOM     20  C   UNL     1       6.052   5.263  14.837  0.00  0.00    +0.000 A 
ATOM     21  C   UNL     1       7.200   4.667  15.329  0.00  0.00    +0.000 A 
ATOM     22  N   UNL     1       7.492   4.589  16.645  0.00  0.00    +0.000 NA
ATOM     23  C   UNL     1       6.579   5.112  17.504  0.00  0.00    +0.000 A 
ENDBRANCH  16  18
ENDBRANCH  10  14
BRANCH   1  25
ATOM     24  C   UNL     1       0.610  14.706  18.795  0.00  0.00    +0.000 C 
ATOM     25  C   UNL     1       1.759  13.732  18.546  0.00  0.00    +0.000 C 
ATOM     26  C   UNL     1       2.998  14.166  19.327  0.00  0.00    +0.000 C 
ENDBRANCH   1  25
TORSDOF 3
ENDMDL
MODEL 7
REMARK VINA RESULT:      -7.3      1.841      8.304
REMARK  Name = 
REMARK  5 active torsions:
REMARK  status: ('A' for Active; 'I' for Inactive)
REMARK    1  A    between atoms: C_1  and  C_2
REMARK    2  A    between atoms: C_2  and  C_3
REMARK    3  A    between atoms: C_2  and  N_4
REMARK    4  A    between atoms: C_13  and  C_14
REMARK    5  A    between atoms: N_16  and  C_17
REMARK                            x       y       z     vdW  Elec       q    Type
REMARK                         _______ _______ _______ _____ _____    ______ ____
ROOT
ATOM      1  N   UNL     1       1.247   8.791  19.258  0.00  0.00    +0.000 N 
ATOM      2  C   UNL     1       2.240   8.369  18.412  0.00  0.00    +0.000 C 
ATOM      3  O   UNL     1       2.723   9.105  17.556  0.00  0.00    +0.000 OA
ATOM      4  N   UNL     1       2.633   7.047  18.576  0.00  0.00    +0.000 N 
ATOM      5  C   UNL     1       1.977   6.048  19.461  0.00  0.00    +0.000 C 
ATOM      6  C   UNL     1       3.002   5.327  20.365  0.00  0.00    +0.000 C 
ATOM      7  C   UNL     1       4.142   4.956  19.509  0.00  0.00    +0.000 A 
ATOM      8  O   UNL     1       5.046   4.027  19.880  0.00  0.00    +0.000 OA
ATOM      9  N   UNL     1       5.996   3.906  18.867  0.00  0.00    +0.000 NA
ATOM     10  C   UNL     1       5.634   4.791  17.912  0.00  0.00    +0.000 A 
ATOM     11  C   UNL     1       4.451   5.478  18.284  0.00  0.00    +0.000 A 
ATOM     12  C   UNL     1       3.619   6.509  17.605  0.00  0.00    +0.000 C 
ATOM     13  H   UNL     1       1.209   8.341  20.155  0.00  0.00    +0.000 HD
ENDROOT
BRANCH  10  14
ATOM     14  C   UNL     1       6.401   4.967  16.673  0.00  0.00    +0.000 C 
ATOM     15  O   UNL     1       7.424   5.642  16.682  0.00  0.00    +0.000 OA
ATOM     16  N   UNL     1       5.843   4.357  15.560  0.00  0.00    +0.000 N 
ATOM     17  H   UNL     1       4.923   3.947  15.699  0.00  0.00    +0.000 HD
BRANCH  16  18
ATOM     18  C   UNL     1       6.387   4.362  14.256  0.00  0.00    +0.000 A 
ATOM     19  C   UNL     1       7.429   5.197  13.859  0.00  0.00    +0.000 A 
ATOM     20  C   UNL     1       7.884   5.177  12.542  0.00  0.00    +0.000 A 
ATOM     21  C   UNL     1       7.285   4.303  11.652  0.00  0.00    +0.000 A 
ATOM     22  N   UNL     1       6.298   3.450  11.998  0.00  0.00    +0.000 NA
ATOM     23  C   UNL     1       5.880   3.493  13.289  0.00  0.00    +0.000 A 
ENDBRANCH  16  18
ENDBRANCH  10  14
BRANCH   1  25
ATOM     24  C   UNL     1      -0.667  10.155  18.623  0.00  0.00    +0.000 C 
ATOM     25  C   UNL     1       0.726  10.154  19.248  0.00  0.00    +0.000 C 
ATOM     26  C   UNL     1       0.666  10.704  20.672  0.00  0.00    +0.000 C 
ENDBRANCH   1  25
TORSDOF 3
ENDMDL
MODEL 8
REMARK VINA RESULT:      -7.3      1.358      8.457
REMARK  Name = 
REMARK  5 active torsions:
REMARK  status: ('A' for Active; 'I' for Inactive)
REMARK    1  A    between atoms: C_1  and  C_2
REMARK    2  A    between atoms: C_2  and  C_3
REMARK    3  A    between atoms: C_2  and  N_4
REMARK    4  A    between atoms: C_13  and  C_14
REMARK    5  A    between atoms: N_16  and  C_17
REMARK                            x       y       z     vdW  Elec       q    Type
REMARK                         _______ _______ _______ _____ _____    ______ ____
ROOT
ATOM      1  N   UNL     1       0.979   8.128  21.040  0.00  0.00    +0.000 N 
ATOM      2  C   UNL     1       1.760   7.909  19.935  0.00  0.00    +0.000 C 
ATOM      3  O   UNL     1       2.116   8.823  19.196  0.00  0.00    +0.000 OA
ATOM      4  N   UNL     1       2.091   6.581  19.701  0.00  0.00    +0.000 N 
ATOM      5  C   UNL     1       1.555   5.407  20.440  0.00  0.00    +0.000 C 
ATOM      6  C   UNL     1       2.687   4.472  20.921  0.00  0.00    +0.000 C 
ATOM      7  C   UNL     1       3.614   4.302  19.790  0.00  0.00    +0.000 A 
ATOM      8  O   UNL     1       4.510   3.296  19.741  0.00  0.00    +0.000 OA
ATOM      9  N   UNL     1       5.237   3.410  18.557  0.00  0.00    +0.000 NA
ATOM     10  C   UNL     1       4.756   4.506  17.930  0.00  0.00    +0.000 A 
ATOM     11  C   UNL     1       3.713   5.101  18.685  0.00  0.00    +0.000 A 
ATOM     12  C   UNL     1       2.834   6.280  18.451  0.00  0.00    +0.000 C 
ATOM     13  H   UNL     1       1.085   7.475  21.794  0.00  0.00    +0.000 HD
ENDROOT
BRANCH  10  14
ATOM     14  C   UNL     1       5.278   4.966  16.637  0.00  0.00    +0.000 C 
ATOM     15  O   UNL     1       5.269   6.162  16.370  0.00  0.00    +0.000 OA
ATOM     16  N   UNL     1       5.713   3.951  15.799  0.00  0.00    +0.000 N 
ATOM     17  H   UNL     1       5.530   3.004  16.123  0.00  0.00    +0.000 HD
BRANCH  16  18
ATOM     18  C   UNL     1       6.272   4.125  14.513  0.00  0.00    +0.000 A 
ATOM     19  C   UNL     1       7.298   5.025  14.234  0.00  0.00    +0.000 A 
ATOM     20  C   UNL     1       7.768   5.174  12.931  0.00  0.00    +0.000 A 
ATOM     21  C   UNL     1       7.200   4.402  11.934  0.00  0.00    +0.000 A 
ATOM     22  N   UNL     1       6.229   3.491  12.160  0.00  0.00    +0.000 NA
ATOM     23  C   UNL     1       5.796   3.368  13.441  0.00  0.00    +0.000 A 
ENDBRANCH  16  18
ENDBRANCH  10  14
BRANCH   1  25
ATOM     24  C   UNL     1      -0.533   9.962  20.508  0.00  0.00    +0.000 C 
ATOM     25  C   UNL     1       0.554   9.461  21.456  0.00  0.00    +0.000 C 
ATOM     26  C   UNL     1       0.028   9.420  22.889  0.00  0.00    +0.000 C 
ENDBRANCH   1  25
TORSDOF 3
ENDMDL
MODEL 9
REMARK VINA RESULT:      -7.2      1.752      2.016
REMARK  Name = 
REMARK  5 active torsions:
REMARK  status: ('A' for Active; 'I' for Inactive)
REMARK    1  A    between atoms: C_1  and  C_2
REMARK    2  A    between atoms: C_2  and  C_3
REMARK    3  A    between atoms: C_2  and  N_4
REMARK    4  A    between atoms: C_13  and  C_14
REMARK    5  A    between atoms: N_16  and  C_17
REMARK                            x       y       z     vdW  Elec       q    Type
REMARK                         _______ _______ _______ _____ _____    ______ ____
ROOT
ATOM      1  N   UNL     1       5.859   4.668  15.059  0.00  0.00    +0.000 N 
ATOM      2  C   UNL     1       5.216   5.650  15.769  0.00  0.00    +0.000 C 
ATOM      3  O   UNL     1       5.029   6.772  15.306  0.00  0.00    +0.000 OA
ATOM      4  N   UNL     1       4.824   5.290  17.051  0.00  0.00    +0.000 N 
ATOM      5  C   UNL     1       5.171   4.021  17.744  0.00  0.00    +0.000 C 
ATOM      6  C   UNL     1       3.921   3.338  18.342  0.00  0.00    +0.000 C 
ATOM      7  C   UNL     1       3.142   4.388  19.020  0.00  0.00    +0.000 A 
ATOM      8  O   UNL     1       2.189   4.101  19.930  0.00  0.00    +0.000 OA
ATOM      9  N   UNL     1       1.636   5.298  20.382  0.00  0.00    +0.000 NA
ATOM     10  C   UNL     1       2.274   6.280  19.708  0.00  0.00    +0.000 A 
ATOM     11  C   UNL     1       3.248   5.738  18.831  0.00  0.00    +0.000 A 
ATOM     12  C   UNL     1       4.233   6.355  17.901  0.00  0.00    +0.000 C 
ATOM     13  H   UNL     1       5.606   3.723  15.283  0.00  0.00    +0.000 HD
ENDROOT
BRANCH  10  14
ATOM     14  C   UNL     1       1.961   7.701  19.905  0.00  0.00    +0.000 C 
ATOM     15  O   UNL     1       1.905   8.158  21.041  0.00  0.00    +0.000 OA
ATOM     16  N   UNL     1       1.713   8.402  18.735  0.00  0.00    +0.000 N 
ATOM     17  H   UNL     1       1.672   7.842  17.887  0.00  0.00    +0.000 HD
BRANCH  16  18
ATOM     18  C   UNL     1       1.406   9.778  18.648  0.00  0.00    +0.000 A 
ATOM     19  C   UNL     1       2.314  10.744  18.220  0.00  0.00    +0.000 A 
ATOM     20  C   UNL     1       1.953  12.091  18.202  0.00  0.00    +0.000 A 
ATOM     21  C   UNL     1       0.676  12.435  18.607  0.00  0.00    +0.000 A 
ATOM     22  N   UNL     1      -0.250  11.532  18.995  0.00  0.00    +0.000 NA
ATOM     23  C   UNL     1       0.133  10.229  18.998  0.00  0.00    +0.000 A 
ENDBRANCH  16  18
ENDBRANCH  10  14
BRANCH   1  25
ATOM     24  C   UNL     1       7.799   5.237  13.702  0.00  0.00    +0.000 C 
ATOM     25  C   UNL     1       6.320   4.857  13.688  0.00  0.00    +0.000 C 
ATOM     26  C   UNL     1       6.112   3.575  12.883  0.00  0.00    +0.000 C 
ENDBRANCH   1  25
TORSDOF 3
ENDMDL
