MODEL 1
REMARK VINA RESULT:      -7.5      0.000      0.000
REMARK  Name = 
REMARK  4 active torsions:
REMARK  status: ('A' for Active; 'I' for Inactive)
REMARK    1  A    between atoms: C_2  and  C_3
REMARK    2  A    between atoms: N_7  and  C_8
REMARK    3  A    between atoms: C_8  and  C_9
REMARK    4  A    between atoms: C_11  and  C_12
REMARK                            x       y       z     vdW  Elec       q    Type
REMARK                         _______ _______ _______ _____ _____    ______ ____
ROOT
ATOM      1  C   UNL     1       5.662   4.346  17.027  0.00  0.00    +0.000 C 
ATOM      2  C   UNL     1       7.074   4.527  16.487  0.00  0.00    +0.000 C 
ATOM      3  C   UNL     1       6.797   5.048  15.081  0.00  0.00    +0.000 C 
ATOM      4  C   UNL     1       5.456   5.778  15.170  0.00  0.00    +0.000 C 
ATOM      5  N   UNL     1       4.917   5.516  16.499  0.00  0.00    +0.000 NA
ENDROOT
BRANCH   1   7
ATOM      6  O   UNL     1       6.246   4.407  19.377  0.00  0.00    +0.000 OA
ATOM      7  C   UNL     1       5.428   4.080  18.515  0.00  0.00    +0.000 C 
ATOM      8  N   UNL     1       4.221   3.412  18.824  0.00  0.00    +0.000 N 
ATOM      9  C   UNL     1       3.953   3.173  20.242  0.00  0.00    +0.000 C 
ATOM     10  C   UNL     1       2.482   3.050  20.640  0.00  0.00    +0.000 C 
ATOM     11  S   UNL     1       1.347   2.147  19.533  0.00  0.00    +0.000 S 
ATOM     12  C   UNL     1       2.042   2.565  17.911  0.00  0.00    +0.000 C 
ATOM     13  C   UNL     1       3.562   2.498  17.882  0.00  0.00    +0.000 C 
ENDBRANCH   1   7
BRANCH   5  14
ATOM     14  C   UNL     1       4.742   6.707  17.361  0.00  0.00    +0.000 C 
BRANCH  14  15
ATOM     15  C   UNL     1       3.425   7.068  17.976  0.00  0.00    +0.000 A 
ATOM     16  N   UNL     1       2.614   8.058  17.711  0.00  0.00    +0.000 NA
ATOM     17  C   UNL     1       1.923   8.218  18.891  0.00  0.00    +0.000 A 
ATOM     18  N   UNL     1       2.177   7.272  19.809  0.00  0.00    +0.000 NA
ATOM     19  O   UNL     1       3.169   6.498  19.200  0.00  0.00    +0.000 OA
BRANCH  17  20
ATOM     20  C   UNL     1       1.148   9.463  19.151  0.00  0.00    +0.000 A 
ATOM     21  C   UNL     1       0.735   9.857  20.411  0.00  0.00    +0.000 A 
ATOM     22  C   UNL     1      -0.129  10.962  20.238  0.00  0.00    +0.000 A 
ATOM     23  C   UNL     1      -0.170  11.197  18.884  0.00  0.00    +0.000 A 
ATOM     24  O   UNL     1       0.627  10.319  18.218  0.00  0.00    +0.000 OA
ENDBRANCH  17  20
ENDBRANCH  14  15
ENDBRANCH   5  14
TORSDOF 4
ENDMDL
MODEL 2
REMARK VINA RESULT:      -7.3      2.448      4.377
REMARK  Name = 
REMARK  4 active torsions:
REMARK  status: ('A' for Active; 'I' for Inactive)
REMARK    1  A    between atoms: C_2  and  C_3
REMARK    2  A    between atoms: N_7  and  C_8
REMARK    3  A    between atoms: C_8  and  C_9
REMARK    4  A    between atoms: C_11  and  C_12
REMARK                            x       y       z     vdW  Elec       q    Type
REMARK                         _______ _______ _______ _____ _____    ______ ____
ROOT
ATOM      1  C   UNL     1       2.877   3.417  19.403  0.00  0.00    +0.000 C 
ATOM      2  C   UNL     1       1.704   2.586  19.904  0.00  0.00    +0.000 C 
ATOM      3  C   UNL     1       1.592   3.058  21.349  0.00  0.00    +0.000 C 
ATOM      4  C   UNL     1       2.118   4.494  21.354  0.00  0.00    +0.000 C 
ATOM      5  N   UNL     1       2.675   4.747  20.031  0.00  0.00    +0.000 NA
ENDROOT
BRANCH   1   7
ATOM      6  O   UNL     1       2.469   2.980  17.055  0.00  0.00    +0.000 OA
ATOM      7  C   UNL     1       3.204   3.478  17.910  0.00  0.00    +0.000 C 
ATOM      8  N   UNL     1       4.419   4.124  17.587  0.00  0.00    +0.000 N 
ATOM      9  C   UNL     1       4.744   4.227  16.164  0.00  0.00    +0.000 C 
ATOM     10  C   UNL     1       5.647   5.393  15.760  0.00  0.00    +0.000 C 
ATOM     11  S   UNL     1       7.041   5.839  16.848  0.00  0.00    +0.000 S 
ATOM     12  C   UNL     1       6.336   5.475  18.479  0.00  0.00    +0.000 C 
ATOM     13  C   UNL     1       5.560   4.167  18.511  0.00  0.00    +0.000 C 
ENDBRANCH   1   7
BRANCH   5  14
ATOM     14  C   UNL     1       2.008   5.816  19.253  0.00  0.00    +0.000 C 
BRANCH  14  15
ATOM     15  C   UNL     1       1.965   7.240  19.717  0.00  0.00    +0.000 A 
ATOM     16  N   UNL     1       1.608   7.741  20.870  0.00  0.00    +0.000 NA
ATOM     17  C   UNL     1       1.226   9.023  20.547  0.00  0.00    +0.000 A 
ATOM     18  N   UNL     1       1.477   9.367  19.274  0.00  0.00    +0.000 NA
ATOM     19  O   UNL     1       1.979   8.185  18.719  0.00  0.00    +0.000 OA
BRANCH  17  20
ATOM     20  C   UNL     1       0.416   9.834  21.497  0.00  0.00    +0.000 A 
ATOM     21  C   UNL     1      -0.090   9.341  22.686  0.00  0.00    +0.000 A 
ATOM     22  C   UNL     1      -0.956  10.327  23.210  0.00  0.00    +0.000 A 
ATOM     23  C   UNL     1      -0.907  11.377  22.326  0.00  0.00    +0.000 A 
ATOM     24  O   UNL     1      -0.053  11.107  21.302  0.00  0.00    +0.000 OA
ENDBRANCH  17  20
ENDBRANCH  14  15
ENDBRANCH   5  14
TORSDOF 4
ENDMDL
MODEL 3
REMARK VINA RESULT:      -7.1      3.309      6.899
REMARK  Name = 
REMARK  4 active torsions:
REMARK  status: ('A' for Active; 'I' for Inactive)
REMARK    1  A    between atoms: C_2  and  C_3
REMARK    2  A    between atoms: N_7  and  C_8
REMARK    3  A    between atoms: C_8  and  C_9
REMARK    4  A    between atoms: C_11  and  C_12
REMARK                            x       y       z     vdW  Elec       q    Type
REMARK                         _______ _______ _______ _____ _____    ______ ____
ROOT
ATOM      1  C   UNL     1       5.788   4.859  18.985  0.00  0.00    +0.000 C 
ATOM      2  C   UNL     1       6.910   5.795  19.417  0.00  0.00    +0.000 C 
ATOM      3  C   UNL     1       8.114   5.165  18.726  0.00  0.00    +0.000 C 
ATOM      4  C   UNL     1       7.558   4.472  17.481  0.00  0.00    +0.000 C 
ATOM      5  N   UNL     1       6.105   4.541  17.571  0.00  0.00    +0.000 NA
ENDROOT
BRANCH   1   7
ATOM      6  O   UNL     1       3.976   6.396  19.453  0.00  0.00    +0.000 OA
ATOM      7  C   UNL     1       4.327   5.237  19.226  0.00  0.00    +0.000 C 
ATOM      8  N   UNL     1       3.414   4.158  19.193  0.00  0.00    +0.000 N 
ATOM      9  C   UNL     1       2.002   4.491  19.387  0.00  0.00    +0.000 C 
ATOM     10  C   UNL     1       0.989   3.532  18.762  0.00  0.00    +0.000 C 
ATOM     11  S   UNL     1       1.319   1.739  18.837  0.00  0.00    +0.000 S 
ATOM     12  C   UNL     1       3.127   1.715  18.695  0.00  0.00    +0.000 C 
ATOM     13  C   UNL     1       3.803   2.785  19.540  0.00  0.00    +0.000 C 
ENDBRANCH   1   7
BRANCH   5  14
ATOM     14  C   UNL     1       5.436   5.306  16.494  0.00  0.00    +0.000 C 
BRANCH  14  15
ATOM     15  C   UNL     1       5.816   5.166  15.052  0.00  0.00    +0.000 A 
ATOM     16  N   UNL     1       5.353   4.361  14.132  0.00  0.00    +0.000 NA
ATOM     17  C   UNL     1       6.400   4.270  13.243  0.00  0.00    +0.000 A 
ATOM     18  N   UNL     1       7.420   5.101  13.508  0.00  0.00    +0.000 NA
ATOM     19  O   UNL     1       7.032   5.707  14.707  0.00  0.00    +0.000 OA
BRANCH  17  20
ATOM     20  C   UNL     1       6.439   3.180  12.229  0.00  0.00    +0.000 A 
ATOM     21  C   UNL     1       5.329   2.448  11.850  0.00  0.00    +0.000 A 
ATOM     22  C   UNL     1       5.788   1.392  11.030  0.00  0.00    +0.000 A 
ATOM     23  C   UNL     1       7.149   1.558  10.932  0.00  0.00    +0.000 A 
ATOM     24  O   UNL     1       7.551   2.658  11.624  0.00  0.00    +0.000 OA
ENDBRANCH  17  20
ENDBRANCH  14  15
ENDBRANCH   5  14
TORSDOF 4
ENDMDL
MODEL 4
REMARK VINA RESULT:      -7.0      3.449      6.744
REMARK  Name = 
REMARK  4 active torsions:
REMARK  status: ('A' for Active; 'I' for Inactive)
REMARK    1  A    between atoms: C_2  and  C_3
REMARK    2  A    between atoms: N_7  and  C_8
REMARK    3  A    between atoms: C_8  and  C_9
REMARK    4  A    between atoms: C_11  and  C_12
REMARK                            x       y       z     vdW  Elec       q    Type
REMARK                         _______ _______ _______ _____ _____    ______ ____
ROOT
ATOM      1  C   UNL     1       5.933   6.493  18.213  0.00  0.00    +0.000 C 
ATOM      2  C   UNL     1       6.770   7.622  17.627  0.00  0.00    +0.000 C 
ATOM      3  C   UNL     1       8.069   7.477  18.413  0.00  0.00    +0.000 C 
ATOM      4  C   UNL     1       8.163   5.996  18.781  0.00  0.00    +0.000 C 
ATOM      5  N   UNL     1       6.899   5.381  18.396  0.00  0.00    +0.000 NA
ENDROOT
BRANCH   1   7
ATOM      6  O   UNL     1       4.195   6.622  16.531  0.00  0.00    +0.000 OA
ATOM      7  C   UNL     1       4.621   6.074  17.549  0.00  0.00    +0.000 C 
ATOM      8  N   UNL     1       3.923   5.032  18.201  0.00  0.00    +0.000 N 
ATOM      9  C   UNL     1       2.680   4.586  17.572  0.00  0.00    +0.000 C 
ATOM     10  C   UNL     1       2.260   3.143  17.854  0.00  0.00    +0.000 C 
ATOM     11  S   UNL     1       2.492   2.475  19.535  0.00  0.00    +0.000 S 
ATOM     12  C   UNL     1       4.017   3.320  20.035  0.00  0.00    +0.000 C 
ATOM     13  C   UNL     1       4.034   4.792  19.646  0.00  0.00    +0.000 C 
ENDBRANCH   1   7
BRANCH   5  14
ATOM     14  C   UNL     1       6.993   4.331  17.356  0.00  0.00    +0.000 C 
BRANCH  14  15
ATOM     15  C   UNL     1       6.745   4.611  15.906  0.00  0.00    +0.000 A 
ATOM     16  N   UNL     1       5.926   4.037  15.064  0.00  0.00    +0.000 NA
ATOM     17  C   UNL     1       6.514   4.280  13.844  0.00  0.00    +0.000 A 
ATOM     18  N   UNL     1       7.573   5.103  13.898  0.00  0.00    +0.000 NA
ATOM     19  O   UNL     1       7.724   5.334  15.269  0.00  0.00    +0.000 OA
BRANCH  17  20
ATOM     20  C   UNL     1       6.108   3.504  12.639  0.00  0.00    +0.000 A 
ATOM     21  C   UNL     1       4.807   3.439  12.175  0.00  0.00    +0.000 A 
ATOM     22  C   UNL     1       4.781   2.466  11.149  0.00  0.00    +0.000 A 
ATOM     23  C   UNL     1       6.073   2.014  11.028  0.00  0.00    +0.000 A 
ATOM     24  O   UNL     1       6.893   2.659  11.900  0.00  0.00    +0.000 OA
ENDBRANCH  17  20
ENDBRANCH  14  15
ENDBRANCH   5  14
TORSDOF 4
ENDMDL
MODEL 5
REMARK VINA RESULT:      -6.9      1.079      1.281
REMARK  Name = 
REMARK  4 active torsions:
REMARK  status: ('A' for Active; 'I' for Inactive)
REMARK    1  A    between atoms: C_2  and  C_3
REMARK    2  A    between atoms: N_7  and  C_8
REMARK    3  A    between atoms: C_8  and  C_9
REMARK    4  A    between atoms: C_11  and  C_12
REMARK                            x       y       z     vdW  Elec       q    Type
REMARK                         _______ _______ _______ _____ _____    ______ ____
ROOT
ATOM      1  C   UNL     1       5.853   4.292  16.921  0.00  0.00    +0.000 C 
ATOM      2  C   UNL     1       7.286   4.481  16.440  0.00  0.00    +0.000 C 
ATOM      3  C   UNL     1       7.069   4.872  14.983  0.00  0.00    +0.000 C 
ATOM      4  C   UNL     1       5.702   5.556  14.940  0.00  0.00    +0.000 C 
ATOM      5  N   UNL     1       5.100   5.385  16.257  0.00  0.00    +0.000 NA
ENDROOT
BRANCH   1   7
ATOM      6  O   UNL     1       6.302   4.578  19.284  0.00  0.00    +0.000 OA
ATOM      7  C   UNL     1       5.548   4.143  18.411  0.00  0.00    +0.000 C 
ATOM      8  N   UNL     1       4.353   3.450  18.714  0.00  0.00    +0.000 N 
ATOM      9  C   UNL     1       4.016   3.320  20.132  0.00  0.00    +0.000 C 
ATOM     10  C   UNL     1       2.531   3.165  20.462  0.00  0.00    +0.000 C 
ATOM     11  S   UNL     1       1.497   2.121  19.380  0.00  0.00    +0.000 S 
ATOM     12  C   UNL     1       2.265   2.432  17.766  0.00  0.00    +0.000 C 
ATOM     13  C   UNL     1       3.785   2.431  17.822  0.00  0.00    +0.000 C 
ENDBRANCH   1   7
BRANCH   5  14
ATOM     14  C   UNL     1       4.838   6.636  17.004  0.00  0.00    +0.000 C 
BRANCH  14  15
ATOM     15  C   UNL     1       3.494   6.964  17.578  0.00  0.00    +0.000 A 
ATOM     16  N   UNL     1       3.056   8.069  18.122  0.00  0.00    +0.000 NA
ATOM     17  C   UNL     1       2.040   7.631  18.940  0.00  0.00    +0.000 A 
ATOM     18  N   UNL     1       1.745   6.329  18.802  0.00  0.00    +0.000 NA
ATOM     19  O   UNL     1       2.706   5.882  17.888  0.00  0.00    +0.000 OA
BRANCH  17  20
ATOM     20  C   UNL     1       1.500   8.510  20.014  0.00  0.00    +0.000 A 
ATOM     21  C   UNL     1       0.908   9.737  19.773  0.00  0.00    +0.000 A 
ATOM     22  C   UNL     1       0.705  10.354  21.028  0.00  0.00    +0.000 A 
ATOM     23  C   UNL     1       1.158   9.456  21.965  0.00  0.00    +0.000 A 
ATOM     24  O   UNL     1       1.609   8.321  21.366  0.00  0.00    +0.000 OA
ENDBRANCH  17  20
ENDBRANCH  14  15
ENDBRANCH   5  14
TORSDOF 4
ENDMDL
MODEL 6
REMARK VINA RESULT:      -6.9      2.165      4.108
REMARK  Name = 
REMARK  4 active torsions:
REMARK  status: ('A' for Active; 'I' for Inactive)
REMARK    1  A    between atoms: C_2  and  C_3
REMARK    2  A    between atoms: N_7  and  C_8
REMARK    3  A    between atoms: C_8  and  C_9
REMARK    4  A    between atoms: C_11  and  C_12
REMARK                            x       y       z     vdW  Elec       q    Type
REMARK                         _______ _______ _______ _____ _____    ______ ____
ROOT
ATOM      1  C   UNL     1       3.232   3.342  19.567  0.00  0.00    +0.000 C 
ATOM      2  C   UNL     1       2.067   2.521  20.101  0.00  0.00    +0.000 C 
ATOM      3  C   UNL     1       1.733   3.266  21.388  0.00  0.00    +0.000 C 
ATOM      4  C   UNL     1       2.150   4.717  21.142  0.00  0.00    +0.000 C 
ATOM      5  N   UNL     1       2.856   4.746  19.867  0.00  0.00    +0.000 NA
ENDROOT
BRANCH   1   7
ATOM      6  O   UNL     1       3.263   2.278  17.391  0.00  0.00    +0.000 OA
ATOM      7  C   UNL     1       3.746   3.127  18.143  0.00  0.00    +0.000 C 
ATOM      8  N   UNL     1       4.827   3.954  17.762  0.00  0.00    +0.000 N 
ATOM      9  C   UNL     1       5.320   3.796  16.394  0.00  0.00    +0.000 C 
ATOM     10  C   UNL     1       5.999   5.017  15.774  0.00  0.00    +0.000 C 
ATOM     11  S   UNL     1       7.097   6.033  16.818  0.00  0.00    +0.000 S 
ATOM     12  C   UNL     1       6.263   5.903  18.424  0.00  0.00    +0.000 C 
ATOM     13  C   UNL     1       5.790   4.490  18.733  0.00  0.00    +0.000 C 
ENDBRANCH   1   7
BRANCH   5  14
ATOM     14  C   UNL     1       2.222   5.563  18.807  0.00  0.00    +0.000 C 
BRANCH  14  15
ATOM     15  C   UNL     1       2.301   7.059  18.789  0.00  0.00    +0.000 A 
ATOM     16  N   UNL     1       1.761   7.941  19.588  0.00  0.00    +0.000 NA
ATOM     17  C   UNL     1       1.685   9.067  18.801  0.00  0.00    +0.000 A 
ATOM     18  N   UNL     1       2.291   8.947  17.609  0.00  0.00    +0.000 NA
ATOM     19  O   UNL     1       2.712   7.613  17.601  0.00  0.00    +0.000 OA
BRANCH  17  20
ATOM     20  C   UNL     1       0.813  10.209  19.193  0.00  0.00    +0.000 A 
ATOM     21  C   UNL     1      -0.449  10.422  18.670  0.00  0.00    +0.000 A 
ATOM     22  C   UNL     1      -0.880  11.689  19.126  0.00  0.00    +0.000 A 
ATOM     23  C   UNL     1       0.133  12.164  19.924  0.00  0.00    +0.000 A 
ATOM     24  O   UNL     1       1.148  11.262  20.002  0.00  0.00    +0.000 OA
ENDBRANCH  17  20
ENDBRANCH  14  15
ENDBRANCH   5  14
TORSDOF 4
ENDMDL
MODEL 7
REMARK VINA RESULT:      -6.8      2.355      4.145
REMARK  Name = 
REMARK  4 active torsions:
REMARK  status: ('A' for Active; 'I' for Inactive)
REMARK    1  A    between atoms: C_2  and  C_3
REMARK    2  A    between atoms: N_7  and  C_8
REMARK    3  A    between atoms: C_8  and  C_9
REMARK    4  A    between atoms: C_11  and  C_12
REMARK                            x       y       z     vdW  Elec       q    Type
REMARK                         _______ _______ _______ _____ _____    ______ ____
ROOT
ATOM      1  C   UNL     1       2.550   4.022  19.024  0.00  0.00    +0.000 C 
ATOM      2  C   UNL     1       1.185   3.497  19.450  0.00  0.00    +0.000 C 
ATOM      3  C   UNL     1       0.939   4.291  20.728  0.00  0.00    +0.000 C 
ATOM      4  C   UNL     1       1.705   5.603  20.551  0.00  0.00    +0.000 C 
ATOM      5  N   UNL     1       2.494   5.473  19.332  0.00  0.00    +0.000 NA
ENDROOT
BRANCH   1   7
ATOM      6  O   UNL     1       2.408   3.222  16.742  0.00  0.00    +0.000 OA
ATOM      7  C   UNL     1       3.107   3.703  17.637  0.00  0.00    +0.000 C 
ATOM      8  N   UNL     1       4.483   3.975  17.464  0.00  0.00    +0.000 N 
ATOM      9  C   UNL     1       5.039   3.710  16.137  0.00  0.00    +0.000 C 
ATOM     10  C   UNL     1       6.266   4.532  15.742  0.00  0.00    +0.000 C 
ATOM     11  S   UNL     1       7.544   4.860  17.002  0.00  0.00    +0.000 S 
ATOM     12  C   UNL     1       6.526   5.006  18.496  0.00  0.00    +0.000 C 
ATOM     13  C   UNL     1       5.440   3.943  18.578  0.00  0.00    +0.000 C 
ENDBRANCH   1   7
BRANCH   5  14
ATOM     14  C   UNL     1       2.155   6.426  18.250  0.00  0.00    +0.000 C 
BRANCH  14  15
ATOM     15  C   UNL     1       2.150   7.909  18.457  0.00  0.00    +0.000 A 
ATOM     16  N   UNL     1       1.537   8.634  19.356  0.00  0.00    +0.000 NA
ATOM     17  C   UNL     1       1.422   9.860  18.741  0.00  0.00    +0.000 A 
ATOM     18  N   UNL     1       2.071   9.950  17.570  0.00  0.00    +0.000 NA
ATOM     19  O   UNL     1       2.566   8.656  17.381  0.00  0.00    +0.000 OA
BRANCH  17  20
ATOM     20  C   UNL     1       0.475  10.883  19.264  0.00  0.00    +0.000 A 
ATOM     21  C   UNL     1      -0.848  10.617  19.565  0.00  0.00    +0.000 A 
ATOM     22  C   UNL     1      -1.469  11.858  19.839  0.00  0.00    +0.000 A 
ATOM     23  C   UNL     1      -0.482  12.806  19.717  0.00  0.00    +0.000 A 
ATOM     24  O   UNL     1       0.708  12.226  19.404  0.00  0.00    +0.000 OA
ENDBRANCH  17  20
ENDBRANCH  14  15
ENDBRANCH   5  14
TORSDOF 4
ENDMDL
MODEL 8
REMARK VINA RESULT:      -6.8      2.588      6.996
REMARK  Name = 
REMARK  4 active torsions:
REMARK  status: ('A' for Active; 'I' for Inactive)
REMARK    1  A    between atoms: C_2  and  C_3
REMARK    2  A    between atoms: N_7  and  C_8
REMARK    3  A    between atoms: C_8  and  C_9
REMARK    4  A    between atoms: C_11  and  C_12
REMARK                            x       y       z     vdW  Elec       q    Type
REMARK                         _______ _______ _______ _____ _____    ______ ____
ROOT
ATOM      1  C   UNL     1       2.346   5.533  19.176  0.00  0.00    +0.000 C 
ATOM      2  C   UNL     1       1.873   5.347  20.611  0.00  0.00    +0.000 C 
ATOM      3  C   UNL     1       2.203   3.878  20.852  0.00  0.00    +0.000 C 
ATOM      4  C   UNL     1       3.394   3.570  19.945  0.00  0.00    +0.000 C 
ATOM      5  N   UNL     1       3.599   4.741  19.100  0.00  0.00    +0.000 NA
ENDROOT
BRANCH   1   7
ATOM      6  O   UNL     1       3.058   7.146  17.515  0.00  0.00    +0.000 OA
ATOM      7  C   UNL     1       2.458   6.933  18.571  0.00  0.00    +0.000 C 
ATOM      8  N   UNL     1       1.848   7.963  19.321  0.00  0.00    +0.000 N 
ATOM      9  C   UNL     1       1.910   9.310  18.752  0.00  0.00    +0.000 C 
ATOM     10  C   UNL     1       0.794  10.270  19.165  0.00  0.00    +0.000 C 
ATOM     11  S   UNL     1       0.215  10.249  20.895  0.00  0.00    +0.000 S 
ATOM     12  C   UNL     1       0.390   8.488  21.295  0.00  0.00    +0.000 C 
ATOM     13  C   UNL     1       1.690   7.889  20.780  0.00  0.00    +0.000 C 
ENDBRANCH   1   7
BRANCH   5  14
ATOM     14  C   UNL     1       4.898   5.430  19.271  0.00  0.00    +0.000 C 
BRANCH  14  15
ATOM     15  C   UNL     1       5.947   5.445  18.203  0.00  0.00    +0.000 A 
ATOM     16  N   UNL     1       5.864   5.785  16.944  0.00  0.00    +0.000 NA
ATOM     17  C   UNL     1       6.896   5.083  16.363  0.00  0.00    +0.000 A 
ATOM     18  N   UNL     1       7.692   4.450  17.240  0.00  0.00    +0.000 NA
ATOM     19  O   UNL     1       7.069   4.697  18.468  0.00  0.00    +0.000 OA
BRANCH  17  20
ATOM     20  C   UNL     1       6.949   4.897  14.887  0.00  0.00    +0.000 A 
ATOM     21  C   UNL     1       6.192   3.961  14.206  0.00  0.00    +0.000 A 
ATOM     22  C   UNL     1       6.653   3.946  12.870  0.00  0.00    +0.000 A 
ATOM     23  C   UNL     1       7.646   4.894  12.805  0.00  0.00    +0.000 A 
ATOM     24  O   UNL     1       7.811   5.502  14.011  0.00  0.00    +0.000 OA
ENDBRANCH  17  20
ENDBRANCH  14  15
ENDBRANCH   5  14
TORSDOF 4
ENDMDL
MODEL 9
REMARK VINA RESULT:      -6.7      3.763      4.899
REMARK  Name = 
REMARK  4 active torsions:
REMARK  status: ('A' for Active; 'I' for Inactive)
REMARK    1  A    between atoms: C_2  and  C_3
REMARK    2  A    between atoms: N_7  and  C_8
REMARK    3  A    between atoms: C_8  and  C_9
REMARK    4  A    between atoms: C_11  and  C_12
REMARK                            x       y       z     vdW  Elec       q    Type
REMARK                         _______ _______ _______ _____ _____    ______ ____
ROOT
ATOM      1  C   UNL     1       5.245   4.481  16.475  0.00  0.00    +0.000 C 
ATOM      2  C   UNL     1       5.668   3.420  15.467  0.00  0.00    +0.000 C 
ATOM      3  C   UNL     1       5.803   4.247  14.193  0.00  0.00    +0.000 C 
ATOM      4  C   UNL     1       6.168   5.658  14.656  0.00  0.00    +0.000 C 
ATOM      5  N   UNL     1       6.052   5.672  16.109  0.00  0.00    +0.000 NA
ENDROOT
BRANCH   1   7
ATOM      6  O   UNL     1       6.273   4.129  18.640  0.00  0.00    +0.000 OA
ATOM      7  C   UNL     1       5.238   4.172  17.972  0.00  0.00    +0.000 C 
ATOM      8  N   UNL     1       3.963   3.914  18.526  0.00  0.00    +0.000 N 
ATOM      9  C   UNL     1       3.919   3.646  19.964  0.00  0.00    +0.000 C 
ATOM     10  C   UNL     1       2.606   3.979  20.673  0.00  0.00    +0.000 C 
ATOM     11  S   UNL     1       1.033   3.608  19.826  0.00  0.00    +0.000 S 
ATOM     12  C   UNL     1       1.490   3.922  18.098  0.00  0.00    +0.000 C 
ATOM     13  C   UNL     1       2.857   3.359  17.735  0.00  0.00    +0.000 C 
ENDBRANCH   1   7
BRANCH   5  14
ATOM     14  C   UNL     1       7.309   5.943  16.844  0.00  0.00    +0.000 C 
BRANCH  14  15
ATOM     15  C   UNL     1       7.526   7.200  17.629  0.00  0.00    +0.000 A 
ATOM     16  N   UNL     1       7.413   8.451  17.267  0.00  0.00    +0.000 NA
ATOM     17  C   UNL     1       8.247   9.106  18.144  0.00  0.00    +0.000 A 
ATOM     18  N   UNL     1       8.745   8.325  19.116  0.00  0.00    +0.000 NA
ATOM     19  O   UNL     1       8.259   7.056  18.783  0.00  0.00    +0.000 OA
BRANCH  17  20
ATOM     20  C   UNL     1       8.695  10.498  17.867  0.00  0.00    +0.000 A 
ATOM     21  C   UNL     1       9.968  10.962  18.144  0.00  0.00    +0.000 A 
ATOM     22  C   UNL     1       9.957  12.359  17.932  0.00  0.00    +0.000 A 
ATOM     23  C   UNL     1       8.685  12.664  17.511  0.00  0.00    +0.000 A 
ATOM     24  O   UNL     1       7.921  11.542  17.432  0.00  0.00    +0.000 OA
ENDBRANCH  17  20
ENDBRANCH  14  15
ENDBRANCH   5  14
TORSDOF 4
ENDMDL
