MODEL 1
REMARK VINA RESULT:      -8.0      0.000      0.000
REMARK  Name = 
REMARK  4 active torsions:
REMARK  status: ('A' for Active; 'I' for Inactive)
REMARK    1  A    between atoms: C_4  and  C_5
REMARK    2  A    between atoms: C_16  and  O_17
REMARK    3  A    between atoms: C_18  and  C_19
REMARK    4  A    between atoms: C_19  and  N_20
REMARK                            x       y       z     vdW  Elec       q    Type
REMARK                         _______ _______ _______ _____ _____    ______ ____
ROOT
ATOM      1  O   UNL     1       0.467   9.669  23.915  0.00  0.00    +0.000 OA
ATOM      2  C   UNL     1       0.165   9.847  22.748  0.00  0.00    +0.000 C 
ATOM      3  C   UNL     1       0.587   9.113  21.541  0.00  0.00    +0.000 C 
ATOM      4  C   UNL     1       1.449   8.089  21.544  0.00  0.00    +0.000 C 
ATOM      5  O   UNL     1      -0.012   9.641  20.401  0.00  0.00    +0.000 OA
ATOM      6  C   UNL     1      -0.774  10.709  20.824  0.00  0.00    +0.000 A 
ATOM      7  C   UNL     1      -0.713  10.883  22.212  0.00  0.00    +0.000 A 
ATOM      8  C   UNL     1      -1.350  11.915  22.864  0.00  0.00    +0.000 A 
ATOM      9  C   UNL     1      -2.038  12.826  22.063  0.00  0.00    +0.000 A 
ATOM     10  C   UNL     1      -2.082  12.657  20.658  0.00  0.00    +0.000 A 
ATOM     11  C   UNL     1      -1.474  11.575  20.000  0.00  0.00    +0.000 A 
ENDROOT
BRANCH   4  12
ATOM     12  C   UNL     1       1.804   7.428  20.289  0.00  0.00    +0.000 A 
ATOM     13  C   UNL     1       1.935   6.036  20.228  0.00  0.00    +0.000 A 
ATOM     14  C   UNL     1       2.391   5.425  19.059  0.00  0.00    +0.000 A 
ATOM     15  C   UNL     1       2.714   6.202  17.946  0.00  0.00    +0.000 A 
ATOM     16  C   UNL     1       2.559   7.587  17.995  0.00  0.00    +0.000 A 
ATOM     17  C   UNL     1       2.105   8.200  19.162  0.00  0.00    +0.000 A 
ENDBRANCH   4  12
BRANCH  10  18
ATOM     18  O   UNL     1      -2.694  13.621  19.904  0.00  0.00    +0.000 OA
ATOM     19  H   UNL     1      -3.184  13.186  19.188  0.00  0.00    +0.000 HD
ENDBRANCH  10  18
BRANCH  11  20
ATOM     20  C   UNL     1      -1.456  11.427  18.497  0.00  0.00    +0.000 C 
BRANCH  20  21
ATOM     21  N   UNL     1      -2.396  10.524  17.844  0.00  0.00    +0.000 NA
ATOM     22  C   UNL     1      -2.060   9.877  16.586  0.00  0.00    +0.000 C 
ATOM     23  C   UNL     1      -2.855  10.327  15.338  0.00  0.00    +0.000 C 
ATOM     24  O   UNL     1      -4.201  10.761  15.563  0.00  0.00    +0.000 OA
ATOM     25  C   UNL     1      -4.370  11.536  16.753  0.00  0.00    +0.000 C 
ATOM     26  C   UNL     1      -3.820  10.795  17.968  0.00  0.00    +0.000 C 
ENDBRANCH  20  21
ENDBRANCH  11  20
TORSDOF 4
ENDMDL
MODEL 2
REMARK VINA RESULT:      -7.7      4.028      8.510
REMARK  Name = 
REMARK  4 active torsions:
REMARK  status: ('A' for Active; 'I' for Inactive)
REMARK    1  A    between atoms: C_4  and  C_5
REMARK    2  A    between atoms: C_16  and  O_17
REMARK    3  A    between atoms: C_18  and  C_19
REMARK    4  A    between atoms: C_19  and  N_20
REMARK                            x       y       z     vdW  Elec       q    Type
REMARK                         _______ _______ _______ _____ _____    ______ ____
ROOT
ATOM      1  O   UNL     1       5.486   7.388  16.960  0.00  0.00    +0.000 OA
ATOM      2  C   UNL     1       4.470   6.794  17.274  0.00  0.00    +0.000 C 
ATOM      3  C   UNL     1       3.196   7.317  17.800  0.00  0.00    +0.000 C 
ATOM      4  C   UNL     1       2.960   8.610  18.058  0.00  0.00    +0.000 C 
ATOM      5  O   UNL     1       2.283   6.288  18.013  0.00  0.00    +0.000 OA
ATOM      6  C   UNL     1       2.934   5.120  17.679  0.00  0.00    +0.000 A 
ATOM      7  C   UNL     1       4.239   5.354  17.228  0.00  0.00    +0.000 A 
ATOM      8  C   UNL     1       5.103   4.338  16.885  0.00  0.00    +0.000 A 
ATOM      9  C   UNL     1       4.630   3.037  17.048  0.00  0.00    +0.000 A 
ATOM     10  C   UNL     1       3.316   2.804  17.522  0.00  0.00    +0.000 A 
ATOM     11  C   UNL     1       2.419   3.842  17.823  0.00  0.00    +0.000 A 
ENDROOT
BRANCH   4  12
ATOM     12  C   UNL     1       1.660   9.026  18.582  0.00  0.00    +0.000 A 
ATOM     13  C   UNL     1       0.713   9.627  17.744  0.00  0.00    +0.000 A 
ATOM     14  C   UNL     1      -0.475  10.130  18.277  0.00  0.00    +0.000 A 
ATOM     15  C   UNL     1      -0.722  10.030  19.646  0.00  0.00    +0.000 A 
ATOM     16  C   UNL     1       0.207   9.408  20.479  0.00  0.00    +0.000 A 
ATOM     17  C   UNL     1       1.395   8.906  19.950  0.00  0.00    +0.000 A 
ENDBRANCH   4  12
BRANCH  10  18
ATOM     18  O   UNL     1       2.924   1.513  17.750  0.00  0.00    +0.000 OA
ATOM     19  H   UNL     1       2.812   1.391  18.707  0.00  0.00    +0.000 HD
ENDBRANCH  10  18
BRANCH  11  20
ATOM     20  C   UNL     1       1.042   3.602  18.395  0.00  0.00    +0.000 C 
BRANCH  20  21
ATOM     21  N   UNL     1       0.842   3.614  19.839  0.00  0.00    +0.000 NA
ATOM     22  C   UNL     1       1.146   4.799  20.625  0.00  0.00    +0.000 C 
ATOM     23  C   UNL     1       2.349   4.703  21.593  0.00  0.00    +0.000 C 
ATOM     24  O   UNL     1       2.621   3.409  22.144  0.00  0.00    +0.000 OA
ATOM     25  C   UNL     1       2.447   2.335  21.216  0.00  0.00    +0.000 C 
ATOM     26  C   UNL     1       1.062   2.383  20.581  0.00  0.00    +0.000 C 
ENDBRANCH  20  21
ENDBRANCH  11  20
TORSDOF 4
ENDMDL
MODEL 3
REMARK VINA RESULT:      -7.6      6.876      9.965
REMARK  Name = 
REMARK  4 active torsions:
REMARK  status: ('A' for Active; 'I' for Inactive)
REMARK    1  A    between atoms: C_4  and  C_5
REMARK    2  A    between atoms: C_16  and  O_17
REMARK    3  A    between atoms: C_18  and  C_19
REMARK    4  A    between atoms: C_19  and  N_20
REMARK                            x       y       z     vdW  Elec       q    Type
REMARK                         _______ _______ _______ _____ _____    ______ ____
ROOT
ATOM      1  O   UNL     1       7.913   6.305  15.687  0.00  0.00    +0.000 OA
ATOM      2  C   UNL     1       7.069   5.446  15.874  0.00  0.00    +0.000 C 
ATOM      3  C   UNL     1       6.400   4.555  14.909  0.00  0.00    +0.000 C 
ATOM      4  C   UNL     1       6.612   4.580  13.587  0.00  0.00    +0.000 C 
ATOM      5  O   UNL     1       5.504   3.705  15.552  0.00  0.00    +0.000 OA
ATOM      6  C   UNL     1       5.546   4.040  16.888  0.00  0.00    +0.000 A 
ATOM      7  C   UNL     1       6.461   5.068  17.145  0.00  0.00    +0.000 A 
ATOM      8  C   UNL     1       6.642   5.610  18.399  0.00  0.00    +0.000 A 
ATOM      9  C   UNL     1       5.828   5.110  19.415  0.00  0.00    +0.000 A 
ATOM     10  C   UNL     1       4.891   4.084  19.147  0.00  0.00    +0.000 A 
ATOM     11  C   UNL     1       4.744   3.497  17.879  0.00  0.00    +0.000 A 
ENDROOT
BRANCH   4  12
ATOM     12  C   UNL     1       5.894   3.653  12.713  0.00  0.00    +0.000 A 
ATOM     13  C   UNL     1       6.513   2.488  12.246  0.00  0.00    +0.000 A 
ATOM     14  C   UNL     1       5.864   1.673  11.318  0.00  0.00    +0.000 A 
ATOM     15  C   UNL     1       4.592   2.016  10.857  0.00  0.00    +0.000 A 
ATOM     16  C   UNL     1       3.962   3.161  11.341  0.00  0.00    +0.000 A 
ATOM     17  C   UNL     1       4.609   3.979  12.267  0.00  0.00    +0.000 A 
ENDBRANCH   4  12
BRANCH  10  18
ATOM     18  O   UNL     1       4.054   3.686  20.153  0.00  0.00    +0.000 OA
ATOM     19  H   UNL     1       3.375   3.103  19.775  0.00  0.00    +0.000 HD
ENDBRANCH  10  18
BRANCH  11  20
ATOM     20  C   UNL     1       3.698   2.452  17.569  0.00  0.00    +0.000 C 
BRANCH  20  21
ATOM     21  N   UNL     1       2.285   2.763  17.747  0.00  0.00    +0.000 NA
ATOM     22  C   UNL     1       1.809   4.135  17.689  0.00  0.00    +0.000 C 
ATOM     23  C   UNL     1       1.293   4.750  19.012  0.00  0.00    +0.000 C 
ATOM     24  O   UNL     1       0.697   3.841  19.945  0.00  0.00    +0.000 OA
ATOM     25  C   UNL     1       1.363   2.579  20.033  0.00  0.00    +0.000 C 
ATOM     26  C   UNL     1       1.503   1.940  18.655  0.00  0.00    +0.000 C 
ENDBRANCH  20  21
ENDBRANCH  11  20
TORSDOF 4
ENDMDL
MODEL 4
REMARK VINA RESULT:      -7.5      1.171      1.675
REMARK  Name = 
REMARK  4 active torsions:
REMARK  status: ('A' for Active; 'I' for Inactive)
REMARK    1  A    between atoms: C_4  and  C_5
REMARK    2  A    between atoms: C_16  and  O_17
REMARK    3  A    between atoms: C_18  and  C_19
REMARK    4  A    between atoms: C_19  and  N_20
REMARK                            x       y       z     vdW  Elec       q    Type
REMARK                         _______ _______ _______ _____ _____    ______ ____
ROOT
ATOM      1  O   UNL     1       1.286   9.688  23.175  0.00  0.00    +0.000 OA
ATOM      2  C   UNL     1       0.914   9.601  22.018  0.00  0.00    +0.000 C 
ATOM      3  C   UNL     1       1.103   8.510  21.046  0.00  0.00    +0.000 C 
ATOM      4  C   UNL     1       1.787   7.386  21.296  0.00  0.00    +0.000 C 
ATOM      5  O   UNL     1       0.498   8.815  19.829  0.00  0.00    +0.000 OA
ATOM      6  C   UNL     1      -0.041  10.074  19.972  0.00  0.00    +0.000 A 
ATOM      7  C   UNL     1       0.170  10.597  21.253  0.00  0.00    +0.000 A 
ATOM      8  C   UNL     1      -0.232  11.862  21.619  0.00  0.00    +0.000 A 
ATOM      9  C   UNL     1      -0.834  12.635  20.627  0.00  0.00    +0.000 A 
ATOM     10  C   UNL     1      -1.029  12.110  19.326  0.00  0.00    +0.000 A 
ATOM     11  C   UNL     1      -0.663  10.801  18.969  0.00  0.00    +0.000 A 
ENDROOT
BRANCH   4  12
ATOM     12  C   UNL     1       1.918   6.363  20.260  0.00  0.00    +0.000 A 
ATOM     13  C   UNL     1       2.526   6.662  19.035  0.00  0.00    +0.000 A 
ATOM     14  C   UNL     1       2.538   5.715  18.009  0.00  0.00    +0.000 A 
ATOM     15  C   UNL     1       1.948   4.467  18.206  0.00  0.00    +0.000 A 
ATOM     16  C   UNL     1       1.366   4.156  19.434  0.00  0.00    +0.000 A 
ATOM     17  C   UNL     1       1.350   5.100  20.460  0.00  0.00    +0.000 A 
ENDBRANCH   4  12
BRANCH  10  18
ATOM     18  O   UNL     1      -1.542  12.932  18.361  0.00  0.00    +0.000 OA
ATOM     19  H   UNL     1      -1.257  13.842  18.549  0.00  0.00    +0.000 HD
ENDBRANCH  10  18
BRANCH  11  20
ATOM     20  C   UNL     1      -0.803  10.259  17.567  0.00  0.00    +0.000 C 
BRANCH  20  21
ATOM     21  N   UNL     1      -2.098   9.781  17.098  0.00  0.00    +0.000 NA
ATOM     22  C   UNL     1      -2.517   9.987  15.721  0.00  0.00    +0.000 C 
ATOM     23  C   UNL     1      -3.689  10.970  15.490  0.00  0.00    +0.000 C 
ATOM     24  O   UNL     1      -4.662  11.058  16.538  0.00  0.00    +0.000 OA
ATOM     25  C   UNL     1      -4.103  11.012  17.853  0.00  0.00    +0.000 C 
ATOM     26  C   UNL     1      -3.217   9.783  18.027  0.00  0.00    +0.000 C 
ENDBRANCH  20  21
ENDBRANCH  11  20
TORSDOF 4
ENDMDL
MODEL 5
REMARK VINA RESULT:      -7.5      0.992      1.175
REMARK  Name = 
REMARK  4 active torsions:
REMARK  status: ('A' for Active; 'I' for Inactive)
REMARK    1  A    between atoms: C_4  and  C_5
REMARK    2  A    between atoms: C_16  and  O_17
REMARK    3  A    between atoms: C_18  and  C_19
REMARK    4  A    between atoms: C_19  and  N_20
REMARK                            x       y       z     vdW  Elec       q    Type
REMARK                         _______ _______ _______ _____ _____    ______ ____
ROOT
ATOM      1  O   UNL     1       0.912   9.630  23.384  0.00  0.00    +0.000 OA
ATOM      2  C   UNL     1       0.600   9.599  22.206  0.00  0.00    +0.000 C 
ATOM      3  C   UNL     1       0.897   8.585  21.178  0.00  0.00    +0.000 C 
ATOM      4  C   UNL     1       1.629   7.485  21.393  0.00  0.00    +0.000 C 
ATOM      5  O   UNL     1       0.334   8.936  19.954  0.00  0.00    +0.000 OA
ATOM      6  C   UNL     1      -0.281  10.154  20.147  0.00  0.00    +0.000 A 
ATOM      7  C   UNL     1      -0.161  10.602  21.468  0.00  0.00    +0.000 A 
ATOM      8  C   UNL     1      -0.650  11.818  21.891  0.00  0.00    +0.000 A 
ATOM      9  C   UNL     1      -1.246  12.621  20.920  0.00  0.00    +0.000 A 
ATOM     10  C   UNL     1      -1.349  12.172  19.581  0.00  0.00    +0.000 A 
ATOM     11  C   UNL     1      -0.894  10.911  19.162  0.00  0.00    +0.000 A 
ENDROOT
BRANCH   4  12
ATOM     12  C   UNL     1       1.866   6.540  20.303  0.00  0.00    +0.000 A 
ATOM     13  C   UNL     1       1.440   5.211  20.405  0.00  0.00    +0.000 A 
ATOM     14  C   UNL     1       1.777   4.288  19.414  0.00  0.00    +0.000 A 
ATOM     15  C   UNL     1       2.537   4.691  18.315  0.00  0.00    +0.000 A 
ATOM     16  C   UNL     1       2.940   6.021  18.197  0.00  0.00    +0.000 A 
ATOM     17  C   UNL     1       2.606   6.944  19.187  0.00  0.00    +0.000 A 
ENDBRANCH   4  12
BRANCH  10  18
ATOM     18  O   UNL     1      -1.860  13.028  18.644  0.00  0.00    +0.000 OA
ATOM     19  H   UNL     1      -1.714  13.939  18.947  0.00  0.00    +0.000 HD
ENDBRANCH  10  18
BRANCH  11  20
ATOM     20  C   UNL     1      -0.937  10.454  17.723  0.00  0.00    +0.000 C 
BRANCH  20  21
ATOM     21  N   UNL     1      -2.174   9.920  17.166  0.00  0.00    +0.000 NA
ATOM     22  C   UNL     1      -2.560  10.207  15.794  0.00  0.00    +0.000 C 
ATOM     23  C   UNL     1      -3.798  11.114  15.596  0.00  0.00    +0.000 C 
ATOM     24  O   UNL     1      -4.809  11.041  16.607  0.00  0.00    +0.000 OA
ATOM     25  C   UNL     1      -4.294  10.929  17.937  0.00  0.00    +0.000 C 
ATOM     26  C   UNL     1      -3.320   9.760  18.047  0.00  0.00    +0.000 C 
ENDBRANCH  20  21
ENDBRANCH  11  20
TORSDOF 4
ENDMDL
MODEL 6
REMARK VINA RESULT:      -7.4      7.245      9.782
REMARK  Name = 
REMARK  4 active torsions:
REMARK  status: ('A' for Active; 'I' for Inactive)
REMARK    1  A    between atoms: C_4  and  C_5
REMARK    2  A    between atoms: C_16  and  O_17
REMARK    3  A    between atoms: C_18  and  C_19
REMARK    4  A    between atoms: C_19  and  N_20
REMARK                            x       y       z     vdW  Elec       q    Type
REMARK                         _______ _______ _______ _____ _____    ______ ____
ROOT
ATOM      1  O   UNL     1       7.825   6.236  15.861  0.00  0.00    +0.000 OA
ATOM      2  C   UNL     1       6.772   5.626  15.916  0.00  0.00    +0.000 C 
ATOM      3  C   UNL     1       6.138   4.745  14.919  0.00  0.00    +0.000 C 
ATOM      4  C   UNL     1       6.645   4.490  13.706  0.00  0.00    +0.000 C 
ATOM      5  O   UNL     1       4.934   4.235  15.397  0.00  0.00    +0.000 OA
ATOM      6  C   UNL     1       4.752   4.783  16.648  0.00  0.00    +0.000 A 
ATOM      7  C   UNL     1       5.813   5.618  17.017  0.00  0.00    +0.000 A 
ATOM      8  C   UNL     1       5.834   6.320  18.202  0.00  0.00    +0.000 A 
ATOM      9  C   UNL     1       4.711   6.194  19.019  0.00  0.00    +0.000 A 
ATOM     10  C   UNL     1       3.632   5.363  18.634  0.00  0.00    +0.000 A 
ATOM     11  C   UNL     1       3.634   4.609  17.448  0.00  0.00    +0.000 A 
ENDROOT
BRANCH   4  12
ATOM     12  C   UNL     1       5.935   3.602  12.788  0.00  0.00    +0.000 A 
ATOM     13  C   UNL     1       6.547   2.440  12.303  0.00  0.00    +0.000 A 
ATOM     14  C   UNL     1       5.909   1.664  11.334  0.00  0.00    +0.000 A 
ATOM     15  C   UNL     1       4.656   2.042  10.852  0.00  0.00    +0.000 A 
ATOM     16  C   UNL     1       4.031   3.183  11.354  0.00  0.00    +0.000 A 
ATOM     17  C   UNL     1       4.667   3.962  12.319  0.00  0.00    +0.000 A 
ENDBRANCH   4  12
BRANCH  10  18
ATOM     18  O   UNL     1       2.514   5.339  19.422  0.00  0.00    +0.000 OA
ATOM     19  H   UNL     1       2.137   4.444  19.394  0.00  0.00    +0.000 HD
ENDBRANCH  10  18
BRANCH  11  20
ATOM     20  C   UNL     1       2.458   3.776  16.997  0.00  0.00    +0.000 C 
BRANCH  20  21
ATOM     21  N   UNL     1       2.043   2.620  17.782  0.00  0.00    +0.000 NA
ATOM     22  C   UNL     1       0.824   2.654  18.573  0.00  0.00    +0.000 C 
ATOM     23  C   UNL     1       0.991   2.636  20.111  0.00  0.00    +0.000 C 
ATOM     24  O   UNL     1       2.136   1.941  20.618  0.00  0.00    +0.000 OA
ATOM     25  C   UNL     1       3.320   2.126  19.838  0.00  0.00    +0.000 C 
ATOM     26  C   UNL     1       3.069   1.778  18.375  0.00  0.00    +0.000 C 
ENDBRANCH  20  21
ENDBRANCH  11  20
TORSDOF 4
ENDMDL
MODEL 7
REMARK VINA RESULT:      -7.2      7.037      9.926
REMARK  Name = 
REMARK  4 active torsions:
REMARK  status: ('A' for Active; 'I' for Inactive)
REMARK    1  A    between atoms: C_4  and  C_5
REMARK    2  A    between atoms: C_16  and  O_17
REMARK    3  A    between atoms: C_18  and  C_19
REMARK    4  A    between atoms: C_19  and  N_20
REMARK                            x       y       z     vdW  Elec       q    Type
REMARK                         _______ _______ _______ _____ _____    ______ ____
ROOT
ATOM      1  O   UNL     1       7.939   6.552  16.068  0.00  0.00    +0.000 OA
ATOM      2  C   UNL     1       7.123   5.650  16.151  0.00  0.00    +0.000 C 
ATOM      3  C   UNL     1       6.564   4.784  15.098  0.00  0.00    +0.000 C 
ATOM      4  C   UNL     1       6.867   4.886  13.797  0.00  0.00    +0.000 C 
ATOM      5  O   UNL     1       5.665   3.865  15.632  0.00  0.00    +0.000 OA
ATOM      6  C   UNL     1       5.598   4.131  16.982  0.00  0.00    +0.000 A 
ATOM      7  C   UNL     1       6.445   5.181  17.356  0.00  0.00    +0.000 A 
ATOM      8  C   UNL     1       6.513   5.664  18.644  0.00  0.00    +0.000 A 
ATOM      9  C   UNL     1       5.654   5.079  19.573  0.00  0.00    +0.000 A 
ATOM     10  C   UNL     1       4.786   4.030  19.188  0.00  0.00    +0.000 A 
ATOM     11  C   UNL     1       4.754   3.505  17.885  0.00  0.00    +0.000 A 
ENDROOT
BRANCH   4  12
ATOM     12  C   UNL     1       6.254   3.977  12.830  0.00  0.00    +0.000 A 
ATOM     13  C   UNL     1       4.883   4.043  12.558  0.00  0.00    +0.000 A 
ATOM     14  C   UNL     1       4.287   3.094  11.726  0.00  0.00    +0.000 A 
ATOM     15  C   UNL     1       5.059   2.079  11.160  0.00  0.00    +0.000 A 
ATOM     16  C   UNL     1       6.430   2.027  11.407  0.00  0.00    +0.000 A 
ATOM     17  C   UNL     1       7.028   2.972  12.240  0.00  0.00    +0.000 A 
ENDBRANCH   4  12
BRANCH  10  18
ATOM     18  O   UNL     1       3.899   3.546  20.110  0.00  0.00    +0.000 OA
ATOM     19  H   UNL     1       4.151   2.634  20.330  0.00  0.00    +0.000 HD
ENDBRANCH  10  18
BRANCH  11  20
ATOM     20  C   UNL     1       3.781   2.435  17.450  0.00  0.00    +0.000 C 
BRANCH  20  21
ATOM     21  N   UNL     1       2.347   2.660  17.582  0.00  0.00    +0.000 NA
ATOM     22  C   UNL     1       1.796   4.005  17.550  0.00  0.00    +0.000 C 
ATOM     23  C   UNL     1       1.195   4.543  18.870  0.00  0.00    +0.000 C 
ATOM     24  O   UNL     1       0.617   3.571  19.748  0.00  0.00    +0.000 OA
ATOM     25  C   UNL     1       1.350   2.345  19.821  0.00  0.00    +0.000 C 
ATOM     26  C   UNL     1       1.578   1.763  18.430  0.00  0.00    +0.000 C 
ENDBRANCH  20  21
ENDBRANCH  11  20
TORSDOF 4
ENDMDL
MODEL 8
REMARK VINA RESULT:      -7.0      2.988      7.406
REMARK  Name = 
REMARK  4 active torsions:
REMARK  status: ('A' for Active; 'I' for Inactive)
REMARK    1  A    between atoms: C_4  and  C_5
REMARK    2  A    between atoms: C_16  and  O_17
REMARK    3  A    between atoms: C_18  and  C_19
REMARK    4  A    between atoms: C_19  and  N_20
REMARK                            x       y       z     vdW  Elec       q    Type
REMARK                         _______ _______ _______ _____ _____    ______ ____
ROOT
ATOM      1  O   UNL     1      -1.899   9.453  16.524  0.00  0.00    +0.000 OA
ATOM      2  C   UNL     1      -2.056  10.216  17.462  0.00  0.00    +0.000 C 
ATOM      3  C   UNL     1      -3.250  10.978  17.869  0.00  0.00    +0.000 C 
ATOM      4  C   UNL     1      -4.413  10.970  17.205  0.00  0.00    +0.000 C 
ATOM      5  O   UNL     1      -2.999  11.723  19.018  0.00  0.00    +0.000 OA
ATOM      6  C   UNL     1      -1.679  11.497  19.344  0.00  0.00    +0.000 A 
ATOM      7  C   UNL     1      -1.062  10.606  18.458  0.00  0.00    +0.000 A 
ATOM      8  C   UNL     1       0.269  10.265  18.548  0.00  0.00    +0.000 A 
ATOM      9  C   UNL     1       1.004  10.890  19.554  0.00  0.00    +0.000 A 
ATOM     10  C   UNL     1       0.381  11.804  20.437  0.00  0.00    +0.000 A 
ATOM     11  C   UNL     1      -0.988  12.113  20.375  0.00  0.00    +0.000 A 
ENDROOT
BRANCH   4  12
ATOM     12  C   UNL     1      -5.539  11.765  17.692  0.00  0.00    +0.000 A 
ATOM     13  C   UNL     1      -6.269  11.356  18.814  0.00  0.00    +0.000 A 
ATOM     14  C   UNL     1      -7.415  12.055  19.198  0.00  0.00    +0.000 A 
ATOM     15  C   UNL     1      -7.831  13.167  18.466  0.00  0.00    +0.000 A 
ATOM     16  C   UNL     1      -7.091  13.593  17.364  0.00  0.00    +0.000 A 
ATOM     17  C   UNL     1      -5.947  12.896  16.977  0.00  0.00    +0.000 A 
ENDBRANCH   4  12
BRANCH  10  18
ATOM     18  O   UNL     1       1.158  12.460  21.353  0.00  0.00    +0.000 OA
ATOM     19  H   UNL     1       1.707  11.805  21.814  0.00  0.00    +0.000 HD
ENDBRANCH  10  18
BRANCH  11  20
ATOM     20  C   UNL     1      -1.644  13.140  21.267  0.00  0.00    +0.000 C 
BRANCH  20  21
ATOM     21  N   UNL     1      -1.705  12.920  22.707  0.00  0.00    +0.000 NA
ATOM     22  C   UNL     1      -2.666  11.993  23.281  0.00  0.00    +0.000 C 
ATOM     23  C   UNL     1      -3.804  12.607  24.130  0.00  0.00    +0.000 C 
ATOM     24  O   UNL     1      -3.492  13.815  24.833  0.00  0.00    +0.000 OA
ATOM     25  C   UNL     1      -2.673  14.723  24.091  0.00  0.00    +0.000 C 
ATOM     26  C   UNL     1      -1.408  14.034  23.593  0.00  0.00    +0.000 C 
ENDBRANCH  20  21
ENDBRANCH  11  20
TORSDOF 4
ENDMDL
MODEL 9
REMARK VINA RESULT:      -7.0      3.550      7.731
REMARK  Name = 
REMARK  4 active torsions:
REMARK  status: ('A' for Active; 'I' for Inactive)
REMARK    1  A    between atoms: C_4  and  C_5
REMARK    2  A    between atoms: C_16  and  O_17
REMARK    3  A    between atoms: C_18  and  C_19
REMARK    4  A    between atoms: C_19  and  N_20
REMARK                            x       y       z     vdW  Elec       q    Type
REMARK                         _______ _______ _______ _____ _____    ______ ____
ROOT
ATOM      1  O   UNL     1       2.413  10.007  17.081  0.00  0.00    +0.000 OA
ATOM      2  C   UNL     1       2.274   9.187  17.972  0.00  0.00    +0.000 C 
ATOM      3  C   UNL     1       1.500   9.275  19.223  0.00  0.00    +0.000 C 
ATOM      4  C   UNL     1       0.809  10.356  19.609  0.00  0.00    +0.000 C 
ATOM      5  O   UNL     1       1.601   8.096  19.957  0.00  0.00    +0.000 OA
ATOM      6  C   UNL     1       2.440   7.269  19.244  0.00  0.00    +0.000 A 
ATOM      7  C   UNL     1       2.873   7.858  18.050  0.00  0.00    +0.000 A 
ATOM      8  C   UNL     1       3.760   7.245  17.193  0.00  0.00    +0.000 A 
ATOM      9  C   UNL     1       4.252   6.003  17.592  0.00  0.00    +0.000 A 
ATOM     10  C   UNL     1       3.826   5.418  18.808  0.00  0.00    +0.000 A 
ATOM     11  C   UNL     1       2.883   6.022  19.657  0.00  0.00    +0.000 A 
ENDROOT
BRANCH   4  12
ATOM     12  C   UNL     1       0.074  10.342  20.872  0.00  0.00    +0.000 A 
ATOM     13  C   UNL     1      -0.809  11.378  21.195  0.00  0.00    +0.000 A 
ATOM     14  C   UNL     1      -1.414  11.418  22.453  0.00  0.00    +0.000 A 
ATOM     15  C   UNL     1      -1.142  10.420  23.389  0.00  0.00    +0.000 A 
ATOM     16  C   UNL     1      -0.285   9.371  23.060  0.00  0.00    +0.000 A 
ATOM     17  C   UNL     1       0.322   9.330  21.806  0.00  0.00    +0.000 A 
ENDBRANCH   4  12
BRANCH  10  18
ATOM     18  O   UNL     1       4.401   4.241  19.202  0.00  0.00    +0.000 OA
ATOM     19  H   UNL     1       5.165   4.445  19.766  0.00  0.00    +0.000 HD
ENDBRANCH  10  18
BRANCH  11  20
ATOM     20  C   UNL     1       2.478   5.438  20.989  0.00  0.00    +0.000 C 
BRANCH  20  21
ATOM     21  N   UNL     1       1.696   4.208  21.035  0.00  0.00    +0.000 NA
ATOM     22  C   UNL     1       2.294   2.960  21.481  0.00  0.00    +0.000 C 
ATOM     23  C   UNL     1       2.485   1.858  20.413  0.00  0.00    +0.000 C 
ATOM     24  O   UNL     1       1.529   1.834  19.346  0.00  0.00    +0.000 OA
ATOM     25  C   UNL     1       1.146   3.131  18.880  0.00  0.00    +0.000 C 
ATOM     26  C   UNL     1       0.662   4.004  20.034  0.00  0.00    +0.000 C 
ENDBRANCH  20  21
ENDBRANCH  11  20
TORSDOF 4
ENDMDL
