MODEL 1
REMARK VINA RESULT:      -7.6      0.000      0.000
REMARK  Name = 
REMARK  3 active torsions:
REMARK  status: ('A' for Active; 'I' for Inactive)
REMARK    1  A    between atoms: C_1  and  C_2
REMARK    2  A    between atoms: N_4  and  C_5
REMARK    3  A    between atoms: C_13  and  C_14
REMARK                            x       y       z     vdW  Elec       q    Type
REMARK                         _______ _______ _______ _____ _____    ______ ____
ROOT
ATOM      1  C   UNL     1       5.717   6.902  16.097  0.00  0.00    +0.000 C 
ATOM      2  C   UNL     1       4.550   6.616  16.977  0.00  0.00    +0.000 A 
ATOM      3  N   UNL     1       3.892   7.657  17.487  0.00  0.00    +0.000 NA
ATOM      4  N   UNL     1       2.896   7.137  18.251  0.00  0.00    +0.000 N 
ATOM      5  C   UNL     1       2.915   5.734  18.194  0.00  0.00    +0.000 A 
ATOM      6  N   UNL     1       2.015   4.939  18.824  0.00  0.00    +0.000 NA
ATOM      7  C   UNL     1       2.100   3.646  18.710  0.00  0.00    +0.000 A 
ATOM      8  S   UNL     1       3.311   2.748  17.817  0.00  0.00    +0.000 S 
ATOM      9  C   UNL     1       4.297   3.996  17.111  0.00  0.00    +0.000 A 
ATOM     10  S   UNL     1       5.589   3.582  16.138  0.00  0.00    +0.000 S 
ATOM     11  C   UNL     1       3.981   5.377  17.384  0.00  0.00    +0.000 A 
ENDROOT
BRANCH   4  12
ATOM     12  C   UNL     1       2.023   8.034  18.950  0.00  0.00    +0.000 A 
ATOM     13  C   UNL     1       1.410   9.083  18.239  0.00  0.00    +0.000 A 
ATOM     14  C   UNL     1       0.544   9.976  18.877  0.00  0.00    +0.000 A 
ATOM     15  C   UNL     1       0.284   9.838  20.237  0.00  0.00    +0.000 A 
ATOM     16  C   UNL     1       0.891   8.811  20.955  0.00  0.00    +0.000 A 
ATOM     17  C   UNL     1       1.757   7.911  20.319  0.00  0.00    +0.000 A 
ENDBRANCH   4  12
BRANCH   7  18
ATOM     18  C   UNL     1       1.066   2.756  19.417  0.00  0.00    +0.000 C 
ATOM     19  F   UNL     1       0.208   2.112  18.576  0.00  0.00    +0.000 F 
ATOM     20  F   UNL     1       1.660   1.783  20.163  0.00  0.00    +0.000 F 
ATOM     21  F   UNL     1       0.284   3.470  20.274  0.00  0.00    +0.000 F 
ENDBRANCH   7  18
TORSDOF 2
ENDMDL
MODEL 2
REMARK VINA RESULT:      -7.6      0.103      1.055
REMARK  Name = 
REMARK  3 active torsions:
REMARK  status: ('A' for Active; 'I' for Inactive)
REMARK    1  A    between atoms: C_1  and  C_2
REMARK    2  A    between atoms: N_4  and  C_5
REMARK    3  A    between atoms: C_13  and  C_14
REMARK                            x       y       z     vdW  Elec       q    Type
REMARK                         _______ _______ _______ _____ _____    ______ ____
ROOT
ATOM      1  C   UNL     1       5.692   6.900  16.070  0.00  0.00    +0.000 C 
ATOM      2  C   UNL     1       4.536   6.611  16.963  0.00  0.00    +0.000 A 
ATOM      3  N   UNL     1       3.883   7.650  17.483  0.00  0.00    +0.000 NA
ATOM      4  N   UNL     1       2.896   7.128  18.257  0.00  0.00    +0.000 N 
ATOM      5  C   UNL     1       2.915   5.725  18.196  0.00  0.00    +0.000 A 
ATOM      6  N   UNL     1       2.022   4.929  18.834  0.00  0.00    +0.000 NA
ATOM      7  C   UNL     1       2.106   3.635  18.715  0.00  0.00    +0.000 A 
ATOM      8  S   UNL     1       3.307   2.741  17.805  0.00  0.00    +0.000 S 
ATOM      9  C   UNL     1       4.285   3.991  17.092  0.00  0.00    +0.000 A 
ATOM     10  S   UNL     1       5.565   3.580  16.103  0.00  0.00    +0.000 S 
ATOM     11  C   UNL     1       3.972   5.371  17.373  0.00  0.00    +0.000 A 
ENDROOT
BRANCH   4  12
ATOM     12  C   UNL     1       2.031   8.023  18.969  0.00  0.00    +0.000 A 
ATOM     13  C   UNL     1       1.796   7.799  20.339  0.00  0.00    +0.000 A 
ATOM     14  C   UNL     1       0.968   8.651  21.076  0.00  0.00    +0.000 A 
ATOM     15  C   UNL     1       0.359   9.736  20.453  0.00  0.00    +0.000 A 
ATOM     16  C   UNL     1       0.574   9.964  19.096  0.00  0.00    +0.000 A 
ATOM     17  C   UNL     1       1.406   9.114  18.354  0.00  0.00    +0.000 A 
ENDBRANCH   4  12
BRANCH   7  18
ATOM     18  C   UNL     1       1.081   2.743  19.431  0.00  0.00    +0.000 C 
ATOM     19  F   UNL     1       0.160   2.169  18.606  0.00  0.00    +0.000 F 
ATOM     20  F   UNL     1       1.679   1.717  20.098  0.00  0.00    +0.000 F 
ATOM     21  F   UNL     1       0.366   3.437  20.361  0.00  0.00    +0.000 F 
ENDBRANCH   7  18
TORSDOF 2
ENDMDL
MODEL 3
REMARK VINA RESULT:      -7.6      3.123      4.293
REMARK  Name = 
REMARK  3 active torsions:
REMARK  status: ('A' for Active; 'I' for Inactive)
REMARK    1  A    between atoms: C_1  and  C_2
REMARK    2  A    between atoms: N_4  and  C_5
REMARK    3  A    between atoms: C_13  and  C_14
REMARK                            x       y       z     vdW  Elec       q    Type
REMARK                         _______ _______ _______ _____ _____    ______ ____
ROOT
ATOM      1  C   UNL     1       2.045   3.639  21.577  0.00  0.00    +0.000 C 
ATOM      2  C   UNL     1       2.392   4.638  20.528  0.00  0.00    +0.000 A 
ATOM      3  N   UNL     1       1.856   5.853  20.631  0.00  0.00    +0.000 NA
ATOM      4  N   UNL     1       2.312   6.560  19.564  0.00  0.00    +0.000 N 
ATOM      5  C   UNL     1       3.179   5.772  18.788  0.00  0.00    +0.000 A 
ATOM      6  N   UNL     1       3.821   6.221  17.682  0.00  0.00    +0.000 NA
ATOM      7  C   UNL     1       4.616   5.426  17.026  0.00  0.00    +0.000 A 
ATOM      8  S   UNL     1       4.965   3.749  17.398  0.00  0.00    +0.000 S 
ATOM      9  C   UNL     1       4.042   3.459  18.845  0.00  0.00    +0.000 A 
ATOM     10  S   UNL     1       4.097   1.959  19.576  0.00  0.00    +0.000 S 
ATOM     11  C   UNL     1       3.237   4.525  19.389  0.00  0.00    +0.000 A 
ENDROOT
BRANCH   4  12
ATOM     12  C   UNL     1       1.879   7.916  19.398  0.00  0.00    +0.000 A 
ATOM     13  C   UNL     1       1.274   8.577  20.485  0.00  0.00    +0.000 A 
ATOM     14  C   UNL     1       0.845   9.903  20.373  0.00  0.00    +0.000 A 
ATOM     15  C   UNL     1       1.008  10.586  19.172  0.00  0.00    +0.000 A 
ATOM     16  C   UNL     1       1.596   9.942  18.086  0.00  0.00    +0.000 A 
ATOM     17  C   UNL     1       2.031   8.614  18.194  0.00  0.00    +0.000 A 
ENDBRANCH   4  12
BRANCH   7  18
ATOM     18  C   UNL     1       5.349   5.949  15.781  0.00  0.00    +0.000 C 
ATOM     19  F   UNL     1       6.673   6.208  15.975  0.00  0.00    +0.000 F 
ATOM     20  F   UNL     1       5.286   5.065  14.747  0.00  0.00    +0.000 F 
ATOM     21  F   UNL     1       4.805   7.112  15.323  0.00  0.00    +0.000 F 
ENDBRANCH   7  18
TORSDOF 2
ENDMDL
MODEL 4
REMARK VINA RESULT:      -7.5      3.243      4.415
REMARK  Name = 
REMARK  3 active torsions:
REMARK  status: ('A' for Active; 'I' for Inactive)
REMARK    1  A    between atoms: C_1  and  C_2
REMARK    2  A    between atoms: N_4  and  C_5
REMARK    3  A    between atoms: C_13  and  C_14
REMARK                            x       y       z     vdW  Elec       q    Type
REMARK                         _______ _______ _______ _____ _____    ______ ____
ROOT
ATOM      1  C   UNL     1       1.942   3.535  21.580  0.00  0.00    +0.000 C 
ATOM      2  C   UNL     1       2.337   4.627  20.648  0.00  0.00    +0.000 A 
ATOM      3  N   UNL     1       1.722   5.802  20.777  0.00  0.00    +0.000 NA
ATOM      4  N   UNL     1       2.244   6.610  19.817  0.00  0.00    +0.000 N 
ATOM      5  C   UNL     1       3.232   5.929  19.087  0.00  0.00    +0.000 A 
ATOM      6  N   UNL     1       3.958   6.493  18.091  0.00  0.00    +0.000 NA
ATOM      7  C   UNL     1       4.863   5.792  17.471  0.00  0.00    +0.000 A 
ATOM      8  S   UNL     1       5.269   4.112  17.760  0.00  0.00    +0.000 S 
ATOM      9  C   UNL     1       4.220   3.666  19.074  0.00  0.00    +0.000 A 
ATOM     10  S   UNL     1       4.288   2.120  19.701  0.00  0.00    +0.000 S 
ATOM     11  C   UNL     1       3.301   4.645  19.602  0.00  0.00    +0.000 A 
ENDROOT
BRANCH   4  12
ATOM     12  C   UNL     1       1.751   7.951  19.702  0.00  0.00    +0.000 A 
ATOM     13  C   UNL     1       1.209   8.579  20.839  0.00  0.00    +0.000 A 
ATOM     14  C   UNL     1       0.725   9.890  20.776  0.00  0.00    +0.000 A 
ATOM     15  C   UNL     1       0.771  10.589  19.574  0.00  0.00    +0.000 A 
ATOM     16  C   UNL     1       1.295   9.977  18.438  0.00  0.00    +0.000 A 
ATOM     17  C   UNL     1       1.784   8.664  18.498  0.00  0.00    +0.000 A 
ENDBRANCH   4  12
BRANCH   7  18
ATOM     18  C   UNL     1       5.689   6.445  16.352  0.00  0.00    +0.000 C 
ATOM     19  F   UNL     1       4.945   7.009  15.359  0.00  0.00    +0.000 F 
ATOM     20  F   UNL     1       6.492   7.437  16.828  0.00  0.00    +0.000 F 
ATOM     21  F   UNL     1       6.512   5.549  15.739  0.00  0.00    +0.000 F 
ENDBRANCH   7  18
TORSDOF 2
ENDMDL
MODEL 5
REMARK VINA RESULT:      -7.5      3.236      4.315
REMARK  Name = 
REMARK  3 active torsions:
REMARK  status: ('A' for Active; 'I' for Inactive)
REMARK    1  A    between atoms: C_1  and  C_2
REMARK    2  A    between atoms: N_4  and  C_5
REMARK    3  A    between atoms: C_13  and  C_14
REMARK                            x       y       z     vdW  Elec       q    Type
REMARK                         _______ _______ _______ _____ _____    ______ ____
ROOT
ATOM      1  C   UNL     1       1.942   3.477  21.560  0.00  0.00    +0.000 C 
ATOM      2  C   UNL     1       2.340   4.577  20.638  0.00  0.00    +0.000 A 
ATOM      3  N   UNL     1       1.725   5.751  20.777  0.00  0.00    +0.000 NA
ATOM      4  N   UNL     1       2.250   6.568  19.826  0.00  0.00    +0.000 N 
ATOM      5  C   UNL     1       3.240   5.894  19.093  0.00  0.00    +0.000 A 
ATOM      6  N   UNL     1       3.969   6.467  18.103  0.00  0.00    +0.000 NA
ATOM      7  C   UNL     1       4.875   5.771  17.480  0.00  0.00    +0.000 A 
ATOM      8  S   UNL     1       5.281   4.089  17.754  0.00  0.00    +0.000 S 
ATOM      9  C   UNL     1       4.227   3.630  19.061  0.00  0.00    +0.000 A 
ATOM     10  S   UNL     1       4.293   2.078  19.674  0.00  0.00    +0.000 S 
ATOM     11  C   UNL     1       3.307   4.605  19.595  0.00  0.00    +0.000 A 
ENDROOT
BRANCH   4  12
ATOM     12  C   UNL     1       1.757   7.910  19.722  0.00  0.00    +0.000 A 
ATOM     13  C   UNL     1       1.834   8.570  18.480  0.00  0.00    +0.000 A 
ATOM     14  C   UNL     1       1.357   9.876  18.329  0.00  0.00    +0.000 A 
ATOM     15  C   UNL     1       0.803  10.543  19.417  0.00  0.00    +0.000 A 
ATOM     16  C   UNL     1       0.730   9.906  20.653  0.00  0.00    +0.000 A 
ATOM     17  C   UNL     1       1.203   8.596  20.809  0.00  0.00    +0.000 A 
ENDBRANCH   4  12
BRANCH   7  18
ATOM     18  C   UNL     1       5.704   6.435  16.369  0.00  0.00    +0.000 C 
ATOM     19  F   UNL     1       4.963   7.010  15.381  0.00  0.00    +0.000 F 
ATOM     20  F   UNL     1       6.509   7.420  16.857  0.00  0.00    +0.000 F 
ATOM     21  F   UNL     1       6.527   5.543  15.748  0.00  0.00    +0.000 F 
ENDBRANCH   7  18
TORSDOF 2
ENDMDL
MODEL 6
REMARK VINA RESULT:      -7.4      0.860      1.308
REMARK  Name = 
REMARK  3 active torsions:
REMARK  status: ('A' for Active; 'I' for Inactive)
REMARK    1  A    between atoms: C_1  and  C_2
REMARK    2  A    between atoms: N_4  and  C_5
REMARK    3  A    between atoms: C_13  and  C_14
REMARK                            x       y       z     vdW  Elec       q    Type
REMARK                         _______ _______ _______ _____ _____    ______ ____
ROOT
ATOM      1  C   UNL     1       5.030   7.019  15.951  0.00  0.00    +0.000 C 
ATOM      2  C   UNL     1       4.146   6.707  17.108  0.00  0.00    +0.000 A 
ATOM      3  N   UNL     1       3.449   7.711  17.640  0.00  0.00    +0.000 NA
ATOM      4  N   UNL     1       2.742   7.177  18.670  0.00  0.00    +0.000 N 
ATOM      5  C   UNL     1       2.982   5.796  18.766  0.00  0.00    +0.000 A 
ATOM      6  N   UNL     1       2.384   4.986  19.674  0.00  0.00    +0.000 NA
ATOM      7  C   UNL     1       2.656   3.714  19.686  0.00  0.00    +0.000 A 
ATOM      8  S   UNL     1       3.778   2.870  18.637  0.00  0.00    +0.000 S 
ATOM      9  C   UNL     1       4.367   4.125  17.586  0.00  0.00    +0.000 A 
ATOM     10  S   UNL     1       5.468   3.754  16.388  0.00  0.00    +0.000 S 
ATOM     11  C   UNL     1       3.892   5.475  17.772  0.00  0.00    +0.000 A 
ENDROOT
BRANCH   4  12
ATOM     12  C   UNL     1       1.905   8.038  19.452  0.00  0.00    +0.000 A 
ATOM     13  C   UNL     1       1.362   9.190  18.852  0.00  0.00    +0.000 A 
ATOM     14  C   UNL     1       0.531  10.054  19.574  0.00  0.00    +0.000 A 
ATOM     15  C   UNL     1       0.238   9.783  20.906  0.00  0.00    +0.000 A 
ATOM     16  C   UNL     1       0.776   8.652  21.515  0.00  0.00    +0.000 A 
ATOM     17  C   UNL     1       1.606   7.782  20.796  0.00  0.00    +0.000 A 
ENDBRANCH   4  12
BRANCH   7  18
ATOM     18  C   UNL     1       1.962   2.803  20.711  0.00  0.00    +0.000 C 
ATOM     19  F   UNL     1       2.739   2.464  21.780  0.00  0.00    +0.000 F 
ATOM     20  F   UNL     1       0.844   3.383  21.229  0.00  0.00    +0.000 F 
ATOM     21  F   UNL     1       1.559   1.627  20.155  0.00  0.00    +0.000 F 
ENDBRANCH   7  18
TORSDOF 2
ENDMDL
MODEL 7
REMARK VINA RESULT:      -7.3      3.102      4.257
REMARK  Name = 
REMARK  3 active torsions:
REMARK  status: ('A' for Active; 'I' for Inactive)
REMARK    1  A    between atoms: C_1  and  C_2
REMARK    2  A    between atoms: N_4  and  C_5
REMARK    3  A    between atoms: C_13  and  C_14
REMARK                            x       y       z     vdW  Elec       q    Type
REMARK                         _______ _______ _______ _____ _____    ______ ____
ROOT
ATOM      1  C   UNL     1       1.350   3.096  20.995  0.00  0.00    +0.000 C 
ATOM      2  C   UNL     1       1.873   4.294  20.281  0.00  0.00    +0.000 A 
ATOM      3  N   UNL     1       1.390   5.484  20.637  0.00  0.00    +0.000 NA
ATOM      4  N   UNL     1       2.008   6.396  19.842  0.00  0.00    +0.000 N 
ATOM      5  C   UNL     1       2.923   5.762  18.986  0.00  0.00    +0.000 A 
ATOM      6  N   UNL     1       3.716   6.420  18.106  0.00  0.00    +0.000 NA
ATOM      7  C   UNL     1       4.545   5.754  17.356  0.00  0.00    +0.000 A 
ATOM      8  S   UNL     1       4.761   4.015  17.317  0.00  0.00    +0.000 S 
ATOM      9  C   UNL     1       3.655   3.447  18.535  0.00  0.00    +0.000 A 
ATOM     10  S   UNL     1       3.545   1.812  18.856  0.00  0.00    +0.000 S 
ATOM     11  C   UNL     1       2.844   4.404  19.247  0.00  0.00    +0.000 A 
ENDROOT
BRANCH   4  12
ATOM     12  C   UNL     1       1.667   7.781  19.988  0.00  0.00    +0.000 A 
ATOM     13  C   UNL     1       1.633   8.600  18.842  0.00  0.00    +0.000 A 
ATOM     14  C   UNL     1       1.295   9.953  18.935  0.00  0.00    +0.000 A 
ATOM     15  C   UNL     1       0.994  10.510  20.173  0.00  0.00    +0.000 A 
ATOM     16  C   UNL     1       1.034   9.716  21.316  0.00  0.00    +0.000 A 
ATOM     17  C   UNL     1       1.368   8.357  21.228  0.00  0.00    +0.000 A 
ENDBRANCH   4  12
BRANCH   7  18
ATOM     18  C   UNL     1       5.450   6.512  16.372  0.00  0.00    +0.000 C 
ATOM     19  F   UNL     1       6.258   7.443  16.954  0.00  0.00    +0.000 F 
ATOM     20  F   UNL     1       6.276   5.670  15.692  0.00  0.00    +0.000 F 
ATOM     21  F   UNL     1       4.727   7.181  15.431  0.00  0.00    +0.000 F 
ENDBRANCH   7  18
TORSDOF 2
ENDMDL
MODEL 8
REMARK VINA RESULT:      -7.3      0.827      1.652
REMARK  Name = 
REMARK  3 active torsions:
REMARK  status: ('A' for Active; 'I' for Inactive)
REMARK    1  A    between atoms: C_1  and  C_2
REMARK    2  A    between atoms: N_4  and  C_5
REMARK    3  A    between atoms: C_13  and  C_14
REMARK                            x       y       z     vdW  Elec       q    Type
REMARK                         _______ _______ _______ _____ _____    ______ ____
ROOT
ATOM      1  C   UNL     1       5.071   7.017  15.896  0.00  0.00    +0.000 C 
ATOM      2  C   UNL     1       4.172   6.723  17.046  0.00  0.00    +0.000 A 
ATOM      3  N   UNL     1       3.466   7.734  17.552  0.00  0.00    +0.000 NA
ATOM      4  N   UNL     1       2.747   7.215  18.581  0.00  0.00    +0.000 N 
ATOM      5  C   UNL     1       2.988   5.836  18.703  0.00  0.00    +0.000 A 
ATOM      6  N   UNL     1       2.380   5.041  19.616  0.00  0.00    +0.000 NA
ATOM      7  C   UNL     1       2.655   3.769  19.653  0.00  0.00    +0.000 A 
ATOM      8  S   UNL     1       3.792   2.910  18.634  0.00  0.00    +0.000 S 
ATOM      9  C   UNL     1       4.392   4.150  17.570  0.00  0.00    +0.000 A 
ATOM     10  S   UNL     1       5.510   3.761  16.393  0.00  0.00    +0.000 S 
ATOM     11  C   UNL     1       3.912   5.501  17.727  0.00  0.00    +0.000 A 
ENDROOT
BRANCH   4  12
ATOM     12  C   UNL     1       1.897   8.087  19.337  0.00  0.00    +0.000 A 
ATOM     13  C   UNL     1       1.656   7.798  20.694  0.00  0.00    +0.000 A 
ATOM     14  C   UNL     1       0.843   8.627  21.473  0.00  0.00    +0.000 A 
ATOM     15  C   UNL     1       0.252   9.751  20.906  0.00  0.00    +0.000 A 
ATOM     16  C   UNL     1       0.472  10.043  19.562  0.00  0.00    +0.000 A 
ATOM     17  C   UNL     1       1.290   9.218  18.778  0.00  0.00    +0.000 A 
ENDBRANCH   4  12
BRANCH   7  18
ATOM     18  C   UNL     1       1.949   2.874  20.684  0.00  0.00    +0.000 C 
ATOM     19  F   UNL     1       2.757   2.424  21.686  0.00  0.00    +0.000 F 
ATOM     20  F   UNL     1       0.918   3.521  21.296  0.00  0.00    +0.000 F 
ATOM     21  F   UNL     1       1.414   1.761  20.108  0.00  0.00    +0.000 F 
ENDBRANCH   7  18
TORSDOF 2
ENDMDL
MODEL 9
REMARK VINA RESULT:      -7.2      3.355      4.484
REMARK  Name = 
REMARK  3 active torsions:
REMARK  status: ('A' for Active; 'I' for Inactive)
REMARK    1  A    between atoms: C_1  and  C_2
REMARK    2  A    between atoms: N_4  and  C_5
REMARK    3  A    between atoms: C_13  and  C_14
REMARK                            x       y       z     vdW  Elec       q    Type
REMARK                         _______ _______ _______ _____ _____    ______ ____
ROOT
ATOM      1  C   UNL     1       1.554   3.373  21.156  0.00  0.00    +0.000 C 
ATOM      2  C   UNL     1       2.188   4.502  20.421  0.00  0.00    +0.000 A 
ATOM      3  N   UNL     1       1.556   5.675  20.426  0.00  0.00    +0.000 NA
ATOM      4  N   UNL     1       2.321   6.521  19.689  0.00  0.00    +0.000 N 
ATOM      5  C   UNL     1       3.478   5.866  19.234  0.00  0.00    +0.000 A 
ATOM      6  N   UNL     1       4.451   6.469  18.507  0.00  0.00    +0.000 NA
ATOM      7  C   UNL     1       5.497   5.789  18.135  0.00  0.00    +0.000 A 
ATOM      8  S   UNL     1       5.815   4.095  18.449  0.00  0.00    +0.000 S 
ATOM      9  C   UNL     1       4.442   3.598  19.396  0.00  0.00    +0.000 A 
ATOM     10  S   UNL     1       4.340   2.025  19.945  0.00  0.00    +0.000 S 
ATOM     11  C   UNL     1       3.407   4.560  19.689  0.00  0.00    +0.000 A 
ENDROOT
BRANCH   4  12
ATOM     12  C   UNL     1       1.873   7.870  19.500  0.00  0.00    +0.000 A 
ATOM     13  C   UNL     1       2.034   8.472  18.238  0.00  0.00    +0.000 A 
ATOM     14  C   UNL     1       1.603   9.782  18.005  0.00  0.00    +0.000 A 
ATOM     15  C   UNL     1       1.011  10.510  19.032  0.00  0.00    +0.000 A 
ATOM     16  C   UNL     1       0.855   9.931  20.289  0.00  0.00    +0.000 A 
ATOM     17  C   UNL     1       1.282   8.617  20.526  0.00  0.00    +0.000 A 
ENDBRANCH   4  12
BRANCH   7  18
ATOM     18  C   UNL     1       6.599   6.486  17.322  0.00  0.00    +0.000 C 
ATOM     19  F   UNL     1       7.846   6.389  17.866  0.00  0.00    +0.000 F 
ATOM     20  F   UNL     1       6.698   5.978  16.062  0.00  0.00    +0.000 F 
ATOM     21  F   UNL     1       6.358   7.820  17.179  0.00  0.00    +0.000 F 
ENDBRANCH   7  18
TORSDOF 2
ENDMDL
