MODEL 1
REMARK VINA RESULT:      -7.8      0.000      0.000
REMARK  Name = 
REMARK  13 active torsions:
REMARK  status: ('A' for Active; 'I' for Inactive)
REMARK    1  A    between atoms: C_1  and  O_2
REMARK    2  A    between atoms: O_2  and  C_3
REMARK    3  A    between atoms: C_6  and  C_7
REMARK    4  A    between atoms: C_7  and  C_8
REMARK    5  A    between atoms: C_8  and  N_9
REMARK    6  A    between atoms: C_10  and  C_12
REMARK    7  A    between atoms: C_12  and  C_13
REMARK    8  A    between atoms: C_13  and  C_14
REMARK    9  A    between atoms: C_17  and  S_18
REMARK   10  A    between atoms: S_18  and  N_21
REMARK   11  A    between atoms: N_21  and  C_22
REMARK   12  A    between atoms: C_22  and  C_23
REMARK   13  A    between atoms: C_22  and  C_24
REMARK                            x       y       z     vdW  Elec       q    Type
REMARK                         _______ _______ _______ _____ _____    ______ ____
ROOT
ATOM      1  C   UNL     1       8.145   7.782  18.062  0.00  0.00    +0.000 C 
ENDROOT
BRANCH   1   3
ATOM      2  N   UNL     1       9.080   9.501  19.510  0.00  0.00    +0.000 N 
ATOM      3  C   UNL     1       8.405   9.249  18.335  0.00  0.00    +0.000 C 
ATOM      4  O   UNL     1       8.024  10.142  17.583  0.00  0.00    +0.000 OA
ATOM      5  H   UNL     1       9.225   8.750  20.173  0.00  0.00    +0.000 HD
BRANCH   2   6
ATOM      6  C   UNL     1       9.370  10.872  19.893  0.00  0.00    +0.000 C 
BRANCH   6   7
ATOM      7  C   UNL     1      10.827  11.268  19.659  0.00  0.00    +0.000 C 
BRANCH   7  11
ATOM      8  C   UNL     1      11.086  14.815  17.194  0.00  0.00    +0.000 A 
ATOM      9  C   UNL     1      10.785  14.917  18.553  0.00  0.00    +0.000 A 
ATOM     10  C   UNL     1      10.718  13.775  19.355  0.00  0.00    +0.000 A 
ATOM     11  C   UNL     1      10.937  12.507  18.804  0.00  0.00    +0.000 A 
ATOM     12  C   UNL     1      11.212  12.407  17.434  0.00  0.00    +0.000 A 
ATOM     13  C   UNL     1      11.289  13.554  16.635  0.00  0.00    +0.000 A 
BRANCH   8  15
ATOM     14  C   UNL     1      10.858  17.167  17.282  0.00  0.00    +0.000 C 
ATOM     15  O   UNL     1      11.105  15.999  16.509  0.00  0.00    +0.000 OA
ENDBRANCH   8  15
ENDBRANCH   7  11
ENDBRANCH   6   7
ENDBRANCH   2   6
ENDBRANCH   1   3
BRANCH   1  16
ATOM     16  C   UNL     1       6.819   7.613  17.323  0.00  0.00    +0.000 C 
BRANCH  16  17
ATOM     17  C   UNL     1       6.105   6.337  17.697  0.00  0.00    +0.000 A 
ATOM     18  C   UNL     1       6.432   5.687  18.895  0.00  0.00    +0.000 A 
ATOM     19  C   UNL     1       5.781   4.511  19.263  0.00  0.00    +0.000 A 
ATOM     20  C   UNL     1       4.781   3.985  18.442  0.00  0.00    +0.000 A 
ATOM     21  C   UNL     1       4.455   4.608  17.235  0.00  0.00    +0.000 A 
ATOM     22  C   UNL     1       5.119   5.784  16.864  0.00  0.00    +0.000 A 
BRANCH  20  23
ATOM     23  S   UNL     1       3.948   2.496  18.928  0.00  0.00    +0.000 S 
ATOM     24  O   UNL     1       3.670   1.753  17.720  0.00  0.00    +0.000 OA
ATOM     25  O   UNL     1       4.658   1.893  20.038  0.00  0.00    +0.000 OA
BRANCH  23  26
ATOM     26  N   UNL     1       2.451   3.025  19.498  0.00  0.00    +0.000 NA
ATOM     27  H   UNL     1       1.757   2.296  19.328  0.00  0.00    +0.000 HD
BRANCH  26  28
ATOM     28  C   UNL     1       2.354   3.721  20.799  0.00  0.00    +0.000 C 
ATOM     29  C   UNL     1       1.762   5.116  20.653  0.00  0.00    +0.000 C 
ATOM     30  C   UNL     1       1.462   2.888  21.720  0.00  0.00    +0.000 C 
ENDBRANCH  26  28
ENDBRANCH  23  26
ENDBRANCH  20  23
ENDBRANCH  16  17
ENDBRANCH   1  16
TORSDOF 10
ENDMDL
MODEL 2
REMARK VINA RESULT:      -7.5      3.660     10.844
REMARK  Name = 
REMARK  13 active torsions:
REMARK  status: ('A' for Active; 'I' for Inactive)
REMARK    1  A    between atoms: C_1  and  O_2
REMARK    2  A    between atoms: O_2  and  C_3
REMARK    3  A    between atoms: C_6  and  C_7
REMARK    4  A    between atoms: C_7  and  C_8
REMARK    5  A    between atoms: C_8  and  N_9
REMARK    6  A    between atoms: C_10  and  C_12
REMARK    7  A    between atoms: C_12  and  C_13
REMARK    8  A    between atoms: C_13  and  C_14
REMARK    9  A    between atoms: C_17  and  S_18
REMARK   10  A    between atoms: S_18  and  N_21
REMARK   11  A    between atoms: N_21  and  C_22
REMARK   12  A    between atoms: C_22  and  C_23
REMARK   13  A    between atoms: C_22  and  C_24
REMARK                            x       y       z     vdW  Elec       q    Type
REMARK                         _______ _______ _______ _____ _____    ______ ____
ROOT
ATOM      1  C   UNL     1       7.887   8.551  17.723  0.00  0.00    +0.000 C 
ENDROOT
BRANCH   1   3
ATOM      2  N   UNL     1       7.330   6.586  16.400  0.00  0.00    +0.000 N 
ATOM      3  C   UNL     1       7.516   7.084  17.672  0.00  0.00    +0.000 C 
ATOM      4  O   UNL     1       7.369   6.400  18.681  0.00  0.00    +0.000 OA
ATOM      5  H   UNL     1       7.299   7.223  15.614  0.00  0.00    +0.000 HD
BRANCH   2   6
ATOM      6  C   UNL     1       6.949   5.195  16.220  0.00  0.00    +0.000 C 
BRANCH   6   7
ATOM      7  C   UNL     1       5.558   5.025  15.612  0.00  0.00    +0.000 C 
BRANCH   7  11
ATOM      8  C   UNL     1       2.557   4.627  18.703  0.00  0.00    +0.000 A 
ATOM      9  C   UNL     1       3.017   5.888  18.320  0.00  0.00    +0.000 A 
ATOM     10  C   UNL     1       3.972   6.021  17.310  0.00  0.00    +0.000 A 
ATOM     11  C   UNL     1       4.497   4.887  16.676  0.00  0.00    +0.000 A 
ATOM     12  C   UNL     1       4.052   3.623  17.083  0.00  0.00    +0.000 A 
ATOM     13  C   UNL     1       3.087   3.494  18.088  0.00  0.00    +0.000 A 
BRANCH   8  15
ATOM     14  C   UNL     1       2.129   4.279  21.003  0.00  0.00    +0.000 C 
ATOM     15  O   UNL     1       1.636   4.623  19.714  0.00  0.00    +0.000 OA
ENDBRANCH   8  15
ENDBRANCH   7  11
ENDBRANCH   6   7
ENDBRANCH   2   6
ENDBRANCH   1   3
BRANCH   1  16
ATOM     16  C   UNL     1       8.888   8.800  18.849  0.00  0.00    +0.000 C 
BRANCH  16  17
ATOM     17  C   UNL     1       9.206  10.265  19.030  0.00  0.00    +0.000 A 
ATOM     18  C   UNL     1       9.375  10.781  20.322  0.00  0.00    +0.000 A 
ATOM     19  C   UNL     1       9.676  12.128  20.512  0.00  0.00    +0.000 A 
ATOM     20  C   UNL     1       9.829  12.968  19.406  0.00  0.00    +0.000 A 
ATOM     21  C   UNL     1       9.645  12.476  18.113  0.00  0.00    +0.000 A 
ATOM     22  C   UNL     1       9.333  11.123  17.927  0.00  0.00    +0.000 A 
BRANCH  20  23
ATOM     23  S   UNL     1      10.226  14.679  19.660  0.00  0.00    +0.000 S 
ATOM     24  O   UNL     1      10.729  14.801  21.009  0.00  0.00    +0.000 OA
ATOM     25  O   UNL     1      10.985  15.165  18.525  0.00  0.00    +0.000 OA
BRANCH  23  26
ATOM     26  N   UNL     1       8.730  15.457  19.653  0.00  0.00    +0.000 NA
ATOM     27  H   UNL     1       8.718  16.155  20.398  0.00  0.00    +0.000 HD
BRANCH  26  28
ATOM     28  C   UNL     1       8.108  15.864  18.375  0.00  0.00    +0.000 C 
ATOM     29  C   UNL     1       6.933  14.969  18.005  0.00  0.00    +0.000 C 
ATOM     30  C   UNL     1       7.618  17.305  18.520  0.00  0.00    +0.000 C 
ENDBRANCH  26  28
ENDBRANCH  23  26
ENDBRANCH  20  23
ENDBRANCH  16  17
ENDBRANCH   1  16
TORSDOF 10
ENDMDL
MODEL 3
REMARK VINA RESULT:      -7.5      3.585     11.253
REMARK  Name = 
REMARK  13 active torsions:
REMARK  status: ('A' for Active; 'I' for Inactive)
REMARK    1  A    between atoms: C_1  and  O_2
REMARK    2  A    between atoms: O_2  and  C_3
REMARK    3  A    between atoms: C_6  and  C_7
REMARK    4  A    between atoms: C_7  and  C_8
REMARK    5  A    between atoms: C_8  and  N_9
REMARK    6  A    between atoms: C_10  and  C_12
REMARK    7  A    between atoms: C_12  and  C_13
REMARK    8  A    between atoms: C_13  and  C_14
REMARK    9  A    between atoms: C_17  and  S_18
REMARK   10  A    between atoms: S_18  and  N_21
REMARK   11  A    between atoms: N_21  and  C_22
REMARK   12  A    between atoms: C_22  and  C_23
REMARK   13  A    between atoms: C_22  and  C_24
REMARK                            x       y       z     vdW  Elec       q    Type
REMARK                         _______ _______ _______ _____ _____    ______ ____
ROOT
ATOM      1  C   UNL     1       8.113   9.051  17.885  0.00  0.00    +0.000 C 
ENDROOT
BRANCH   1   3
ATOM      2  N   UNL     1       7.243   7.134  16.663  0.00  0.00    +0.000 N 
ATOM      3  C   UNL     1       7.827   7.564  17.835  0.00  0.00    +0.000 C 
ATOM      4  O   UNL     1       8.073   6.809  18.771  0.00  0.00    +0.000 OA
ATOM      5  H   UNL     1       6.910   7.814  15.992  0.00  0.00    +0.000 HD
BRANCH   2   6
ATOM      6  C   UNL     1       6.901   5.731  16.502  0.00  0.00    +0.000 C 
BRANCH   6   7
ATOM      7  C   UNL     1       5.459   5.512  16.047  0.00  0.00    +0.000 C 
BRANCH   7  11
ATOM      8  C   UNL     1       3.035   3.935  19.265  0.00  0.00    +0.000 A 
ATOM      9  C   UNL     1       3.723   5.139  19.421  0.00  0.00    +0.000 A 
ATOM     10  C   UNL     1       4.493   5.660  18.378  0.00  0.00    +0.000 A 
ATOM     11  C   UNL     1       4.597   4.972  17.162  0.00  0.00    +0.000 A 
ATOM     12  C   UNL     1       3.926   3.751  17.020  0.00  0.00    +0.000 A 
ATOM     13  C   UNL     1       3.148   3.237  18.064  0.00  0.00    +0.000 A 
BRANCH   8  15
ATOM     14  C   UNL     1       1.032   4.077  20.514  0.00  0.00    +0.000 C 
ATOM     15  O   UNL     1       2.331   3.518  20.362  0.00  0.00    +0.000 OA
ENDBRANCH   8  15
ENDBRANCH   7  11
ENDBRANCH   6   7
ENDBRANCH   2   6
ENDBRANCH   1   3
BRANCH   1  16
ATOM     16  C   UNL     1       8.982   9.378  19.097  0.00  0.00    +0.000 C 
BRANCH  16  17
ATOM     17  C   UNL     1       9.549  10.776  19.045  0.00  0.00    +0.000 A 
ATOM     18  C   UNL     1       9.466  11.512  17.855  0.00  0.00    +0.000 A 
ATOM     19  C   UNL     1       9.977  12.806  17.787  0.00  0.00    +0.000 A 
ATOM     20  C   UNL     1      10.560  13.383  18.917  0.00  0.00    +0.000 A 
ATOM     21  C   UNL     1      10.669  12.658  20.105  0.00  0.00    +0.000 A 
ATOM     22  C   UNL     1      10.163  11.354  20.167  0.00  0.00    +0.000 A 
BRANCH  20  23
ATOM     23  S   UNL     1      11.194  15.038  18.823  0.00  0.00    +0.000 S 
ATOM     24  O   UNL     1      12.326  15.109  19.717  0.00  0.00    +0.000 OA
ATOM     25  O   UNL     1      11.307  15.426  17.430  0.00  0.00    +0.000 OA
BRANCH  23  26
ATOM     26  N   UNL     1       9.988  15.985  19.527  0.00  0.00    +0.000 NA
ATOM     27  H   UNL     1      10.425  16.783  19.989  0.00  0.00    +0.000 HD
BRANCH  26  28
ATOM     28  C   UNL     1       8.738  16.266  18.790  0.00  0.00    +0.000 C 
ATOM     29  C   UNL     1       7.582  15.406  19.284  0.00  0.00    +0.000 C 
ATOM     30  C   UNL     1       8.389  17.742  18.989  0.00  0.00    +0.000 C 
ENDBRANCH  26  28
ENDBRANCH  23  26
ENDBRANCH  20  23
ENDBRANCH  16  17
ENDBRANCH   1  16
TORSDOF 10
ENDMDL
MODEL 4
REMARK VINA RESULT:      -7.4      6.434      8.616
REMARK  Name = 
REMARK  13 active torsions:
REMARK  status: ('A' for Active; 'I' for Inactive)
REMARK    1  A    between atoms: C_1  and  O_2
REMARK    2  A    between atoms: O_2  and  C_3
REMARK    3  A    between atoms: C_6  and  C_7
REMARK    4  A    between atoms: C_7  and  C_8
REMARK    5  A    between atoms: C_8  and  N_9
REMARK    6  A    between atoms: C_10  and  C_12
REMARK    7  A    between atoms: C_12  and  C_13
REMARK    8  A    between atoms: C_13  and  C_14
REMARK    9  A    between atoms: C_17  and  S_18
REMARK   10  A    between atoms: S_18  and  N_21
REMARK   11  A    between atoms: N_21  and  C_22
REMARK   12  A    between atoms: C_22  and  C_23
REMARK   13  A    between atoms: C_22  and  C_24
REMARK                            x       y       z     vdW  Elec       q    Type
REMARK                         _______ _______ _______ _____ _____    ______ ____
ROOT
ATOM      1  C   UNL     1       1.921   2.172  19.812  0.00  0.00    +0.000 C 
ENDROOT
BRANCH   1   3
ATOM      2  N   UNL     1       1.510   4.562  20.016  0.00  0.00    +0.000 N 
ATOM      3  C   UNL     1       1.864   3.410  20.683  0.00  0.00    +0.000 C 
ATOM      4  O   UNL     1       2.133   3.392  21.880  0.00  0.00    +0.000 OA
ATOM      5  H   UNL     1       1.459   4.558  19.005  0.00  0.00    +0.000 HD
BRANCH   2   6
ATOM      6  C   UNL     1       1.442   5.820  20.739  0.00  0.00    +0.000 C 
BRANCH   6   7
ATOM      7  C   UNL     1       2.428   6.867  20.222  0.00  0.00    +0.000 C 
BRANCH   7  11
ATOM      8  C   UNL     1       0.462  10.524  19.006  0.00  0.00    +0.000 A 
ATOM      9  C   UNL     1       1.219   9.790  18.093  0.00  0.00    +0.000 A 
ATOM     10  C   UNL     1       1.841   8.599  18.477  0.00  0.00    +0.000 A 
ATOM     11  C   UNL     1       1.725   8.132  19.792  0.00  0.00    +0.000 A 
ATOM     12  C   UNL     1       0.986   8.886  20.712  0.00  0.00    +0.000 A 
ATOM     13  C   UNL     1       0.357  10.073  20.321  0.00  0.00    +0.000 A 
BRANCH   8  15
ATOM     14  C   UNL     1      -1.468  11.627  18.198  0.00  0.00    +0.000 C 
ATOM     15  O   UNL     1      -0.083  11.680  18.518  0.00  0.00    +0.000 OA
ENDBRANCH   8  15
ENDBRANCH   7  11
ENDBRANCH   6   7
ENDBRANCH   2   6
ENDBRANCH   1   3
BRANCH   1  16
ATOM     16  C   UNL     1       3.372   1.829  19.483  0.00  0.00    +0.000 C 
BRANCH  16  17
ATOM     17  C   UNL     1       4.050   2.896  18.659  0.00  0.00    +0.000 A 
ATOM     18  C   UNL     1       5.089   3.649  19.223  0.00  0.00    +0.000 A 
ATOM     19  C   UNL     1       5.733   4.636  18.478  0.00  0.00    +0.000 A 
ATOM     20  C   UNL     1       5.353   4.864  17.153  0.00  0.00    +0.000 A 
ATOM     21  C   UNL     1       4.307   4.137  16.581  0.00  0.00    +0.000 A 
ATOM     22  C   UNL     1       3.656   3.154  17.337  0.00  0.00    +0.000 A 
BRANCH  20  23
ATOM     23  S   UNL     1       6.190   6.112  16.210  0.00  0.00    +0.000 S 
ATOM     24  O   UNL     1       5.200   6.738  15.364  0.00  0.00    +0.000 OA
ATOM     25  O   UNL     1       7.030   6.895  17.094  0.00  0.00    +0.000 OA
BRANCH  23  26
ATOM     26  N   UNL     1       7.199   5.243  15.174  0.00  0.00    +0.000 NA
ATOM     27  H   UNL     1       7.484   4.381  15.640  0.00  0.00    +0.000 HD
BRANCH  26  28
ATOM     28  C   UNL     1       6.867   5.125  13.738  0.00  0.00    +0.000 C 
ATOM     29  C   UNL     1       8.095   5.301  12.855  0.00  0.00    +0.000 C 
ATOM     30  C   UNL     1       6.269   3.737  13.500  0.00  0.00    +0.000 C 
ENDBRANCH  26  28
ENDBRANCH  23  26
ENDBRANCH  20  23
ENDBRANCH  16  17
ENDBRANCH   1  16
TORSDOF 10
ENDMDL
MODEL 5
REMARK VINA RESULT:      -7.3      6.625      8.807
REMARK  Name = 
REMARK  13 active torsions:
REMARK  status: ('A' for Active; 'I' for Inactive)
REMARK    1  A    between atoms: C_1  and  O_2
REMARK    2  A    between atoms: O_2  and  C_3
REMARK    3  A    between atoms: C_6  and  C_7
REMARK    4  A    between atoms: C_7  and  C_8
REMARK    5  A    between atoms: C_8  and  N_9
REMARK    6  A    between atoms: C_10  and  C_12
REMARK    7  A    between atoms: C_12  and  C_13
REMARK    8  A    between atoms: C_13  and  C_14
REMARK    9  A    between atoms: C_17  and  S_18
REMARK   10  A    between atoms: S_18  and  N_21
REMARK   11  A    between atoms: N_21  and  C_22
REMARK   12  A    between atoms: C_22  and  C_23
REMARK   13  A    between atoms: C_22  and  C_24
REMARK                            x       y       z     vdW  Elec       q    Type
REMARK                         _______ _______ _______ _____ _____    ______ ____
ROOT
ATOM      1  C   UNL     1       1.078   2.794  19.522  0.00  0.00    +0.000 C 
ENDROOT
BRANCH   1   3
ATOM      2  N   UNL     1       1.167   5.173  20.026  0.00  0.00    +0.000 N 
ATOM      3  C   UNL     1       1.416   3.902  20.497  0.00  0.00    +0.000 C 
ATOM      4  O   UNL     1       1.896   3.688  21.606  0.00  0.00    +0.000 OA
ATOM      5  H   UNL     1       0.930   5.306  19.051  0.00  0.00    +0.000 HD
BRANCH   2   6
ATOM      6  C   UNL     1       1.472   6.323  20.860  0.00  0.00    +0.000 C 
BRANCH   6   7
ATOM      7  C   UNL     1       2.243   7.416  20.122  0.00  0.00    +0.000 C 
BRANCH   7  11
ATOM      8  C   UNL     1      -0.241  10.832  19.187  0.00  0.00    +0.000 A 
ATOM      9  C   UNL     1       0.577  10.263  18.211  0.00  0.00    +0.000 A 
ATOM     10  C   UNL     1       1.368   9.149  18.504  0.00  0.00    +0.000 A 
ATOM     11  C   UNL     1       1.361   8.595  19.790  0.00  0.00    +0.000 A 
ATOM     12  C   UNL     1       0.558   9.185  20.774  0.00  0.00    +0.000 A 
ATOM     13  C   UNL     1      -0.240  10.295  20.474  0.00  0.00    +0.000 A 
BRANCH   8  15
ATOM     14  C   UNL     1      -2.362  11.859  18.981  0.00  0.00    +0.000 C 
ATOM     15  O   UNL     1      -0.954  11.928  18.786  0.00  0.00    +0.000 OA
ENDBRANCH   8  15
ENDBRANCH   7  11
ENDBRANCH   6   7
ENDBRANCH   2   6
ENDBRANCH   1   3
BRANCH   1  16
ATOM     16  C   UNL     1       2.345   2.041  19.122  0.00  0.00    +0.000 C 
BRANCH  16  17
ATOM     17  C   UNL     1       3.381   2.940  18.494  0.00  0.00    +0.000 A 
ATOM     18  C   UNL     1       3.142   3.491  17.228  0.00  0.00    +0.000 A 
ATOM     19  C   UNL     1       4.082   4.329  16.632  0.00  0.00    +0.000 A 
ATOM     20  C   UNL     1       5.265   4.639  17.308  0.00  0.00    +0.000 A 
ATOM     21  C   UNL     1       5.529   4.083  18.561  0.00  0.00    +0.000 A 
ATOM     22  C   UNL     1       4.586   3.233  19.152  0.00  0.00    +0.000 A 
BRANCH  20  23
ATOM     23  S   UNL     1       6.448   5.719  16.545  0.00  0.00    +0.000 S 
ATOM     24  O   UNL     1       6.085   7.069  16.910  0.00  0.00    +0.000 OA
ATOM     25  O   UNL     1       7.783   5.206  16.783  0.00  0.00    +0.000 OA
BRANCH  23  26
ATOM     26  N   UNL     1       6.128   5.584  14.894  0.00  0.00    +0.000 NA
ATOM     27  H   UNL     1       6.120   6.519  14.484  0.00  0.00    +0.000 HD
BRANCH  26  28
ATOM     28  C   UNL     1       6.786   4.530  14.093  0.00  0.00    +0.000 C 
ATOM     29  C   UNL     1       5.776   3.686  13.327  0.00  0.00    +0.000 C 
ATOM     30  C   UNL     1       7.733   5.206  13.101  0.00  0.00    +0.000 C 
ENDBRANCH  26  28
ENDBRANCH  23  26
ENDBRANCH  20  23
ENDBRANCH  16  17
ENDBRANCH   1  16
TORSDOF 10
ENDMDL
MODEL 6
REMARK VINA RESULT:      -7.2      6.268      8.547
REMARK  Name = 
REMARK  13 active torsions:
REMARK  status: ('A' for Active; 'I' for Inactive)
REMARK    1  A    between atoms: C_1  and  O_2
REMARK    2  A    between atoms: O_2  and  C_3
REMARK    3  A    between atoms: C_6  and  C_7
REMARK    4  A    between atoms: C_7  and  C_8
REMARK    5  A    between atoms: C_8  and  N_9
REMARK    6  A    between atoms: C_10  and  C_12
REMARK    7  A    between atoms: C_12  and  C_13
REMARK    8  A    between atoms: C_13  and  C_14
REMARK    9  A    between atoms: C_17  and  S_18
REMARK   10  A    between atoms: S_18  and  N_21
REMARK   11  A    between atoms: N_21  and  C_22
REMARK   12  A    between atoms: C_22  and  C_23
REMARK   13  A    between atoms: C_22  and  C_24
REMARK                            x       y       z     vdW  Elec       q    Type
REMARK                         _______ _______ _______ _____ _____    ______ ____
ROOT
ATOM      1  C   UNL     1       1.912   2.317  19.659  0.00  0.00    +0.000 C 
ENDROOT
BRANCH   1   3
ATOM      2  N   UNL     1       1.412   4.691  19.847  0.00  0.00    +0.000 N 
ATOM      3  C   UNL     1       1.787   3.552  20.526  0.00  0.00    +0.000 C 
ATOM      4  O   UNL     1       2.023   3.545  21.731  0.00  0.00    +0.000 OA
ATOM      5  H   UNL     1       1.391   4.684  18.835  0.00  0.00    +0.000 HD
BRANCH   2   6
ATOM      6  C   UNL     1       1.280   5.947  20.565  0.00  0.00    +0.000 C 
BRANCH   6   7
ATOM      7  C   UNL     1       2.270   7.014  20.101  0.00  0.00    +0.000 C 
BRANCH   7  11
ATOM      8  C   UNL     1       0.356  10.824  19.363  0.00  0.00    +0.000 A 
ATOM      9  C   UNL     1       1.102  10.200  18.362  0.00  0.00    +0.000 A 
ATOM     10  C   UNL     1       1.707   8.962  18.591  0.00  0.00    +0.000 A 
ATOM     11  C   UNL     1       1.586   8.333  19.837  0.00  0.00    +0.000 A 
ATOM     12  C   UNL     1       0.858   8.976  20.847  0.00  0.00    +0.000 A 
ATOM     13  C   UNL     1       0.246  10.212  20.611  0.00  0.00    +0.000 A 
BRANCH   8  15
ATOM     14  C   UNL     1       0.764  13.035  18.629  0.00  0.00    +0.000 C 
ATOM     15  O   UNL     1      -0.172  12.040  19.027  0.00  0.00    +0.000 OA
ENDBRANCH   8  15
ENDBRANCH   7  11
ENDBRANCH   6   7
ENDBRANCH   2   6
ENDBRANCH   1   3
BRANCH   1  16
ATOM     16  C   UNL     1       3.384   1.955  19.471  0.00  0.00    +0.000 C 
BRANCH  16  17
ATOM     17  C   UNL     1       4.138   2.986  18.667  0.00  0.00    +0.000 A 
ATOM     18  C   UNL     1       3.789   3.208  17.328  0.00  0.00    +0.000 A 
ATOM     19  C   UNL     1       4.467   4.159  16.569  0.00  0.00    +0.000 A 
ATOM     20  C   UNL     1       5.491   4.911  17.151  0.00  0.00    +0.000 A 
ATOM     21  C   UNL     1       5.865   4.689  18.477  0.00  0.00    +0.000 A 
ATOM     22  C   UNL     1       5.187   3.725  19.234  0.00  0.00    +0.000 A 
BRANCH  20  23
ATOM     23  S   UNL     1       6.338   6.130  16.178  0.00  0.00    +0.000 S 
ATOM     24  O   UNL     1       5.342   6.790  15.366  0.00  0.00    +0.000 OA
ATOM     25  O   UNL     1       7.233   6.883  17.034  0.00  0.00    +0.000 OA
BRANCH  23  26
ATOM     26  N   UNL     1       7.280   5.226  15.110  0.00  0.00    +0.000 NA
ATOM     27  H   UNL     1       7.566   4.363  15.573  0.00  0.00    +0.000 HD
BRANCH  26  28
ATOM     28  C   UNL     1       6.884   5.102  13.691  0.00  0.00    +0.000 C 
ATOM     29  C   UNL     1       8.072   5.263  12.753  0.00  0.00    +0.000 C 
ATOM     30  C   UNL     1       6.266   3.717  13.489  0.00  0.00    +0.000 C 
ENDBRANCH  26  28
ENDBRANCH  23  26
ENDBRANCH  20  23
ENDBRANCH  16  17
ENDBRANCH   1  16
TORSDOF 10
ENDMDL
MODEL 7
REMARK VINA RESULT:      -7.1      6.906      8.816
REMARK  Name = 
REMARK  13 active torsions:
REMARK  status: ('A' for Active; 'I' for Inactive)
REMARK    1  A    between atoms: C_1  and  O_2
REMARK    2  A    between atoms: O_2  and  C_3
REMARK    3  A    between atoms: C_6  and  C_7
REMARK    4  A    between atoms: C_7  and  C_8
REMARK    5  A    between atoms: C_8  and  N_9
REMARK    6  A    between atoms: C_10  and  C_12
REMARK    7  A    between atoms: C_12  and  C_13
REMARK    8  A    between atoms: C_13  and  C_14
REMARK    9  A    between atoms: C_17  and  S_18
REMARK   10  A    between atoms: S_18  and  N_21
REMARK   11  A    between atoms: N_21  and  C_22
REMARK   12  A    between atoms: C_22  and  C_23
REMARK   13  A    between atoms: C_22  and  C_24
REMARK                            x       y       z     vdW  Elec       q    Type
REMARK                         _______ _______ _______ _____ _____    ______ ____
ROOT
ATOM      1  C   UNL     1       1.180   3.878  19.755  0.00  0.00    +0.000 C 
ENDROOT
BRANCH   1   3
ATOM      2  N   UNL     1       2.004   6.031  18.977  0.00  0.00    +0.000 N 
ATOM      3  C   UNL     1       1.737   5.249  20.079  0.00  0.00    +0.000 C 
ATOM      4  O   UNL     1       1.954   5.623  21.228  0.00  0.00    +0.000 OA
ATOM      5  H   UNL     1       1.966   5.621  18.052  0.00  0.00    +0.000 HD
BRANCH   2   6
ATOM      6  C   UNL     1       2.562   7.360  19.156  0.00  0.00    +0.000 C 
BRANCH   6   7
ATOM      7  C   UNL     1       1.818   8.438  18.368  0.00  0.00    +0.000 C 
BRANCH   7  11
ATOM      8  C   UNL     1      -0.582  10.937  20.959  0.00  0.00    +0.000 A 
ATOM      9  C   UNL     1      -0.492  11.213  19.593  0.00  0.00    +0.000 A 
ATOM     10  C   UNL     1       0.269  10.397  18.751  0.00  0.00    +0.000 A 
ATOM     11  C   UNL     1       0.965   9.298  19.268  0.00  0.00    +0.000 A 
ATOM     12  C   UNL     1       0.893   9.041  20.643  0.00  0.00    +0.000 A 
ATOM     13  C   UNL     1       0.122   9.854  21.482  0.00  0.00    +0.000 A 
BRANCH   8  15
ATOM     14  C   UNL     1      -1.518  11.495  23.058  0.00  0.00    +0.000 C 
ATOM     15  O   UNL     1      -1.340  11.816  21.683  0.00  0.00    +0.000 OA
ENDBRANCH   8  15
ENDBRANCH   7  11
ENDBRANCH   6   7
ENDBRANCH   2   6
ENDBRANCH   1   3
BRANCH   1  16
ATOM     16  C   UNL     1       2.316   2.861  19.657  0.00  0.00    +0.000 C 
BRANCH  16  17
ATOM     17  C   UNL     1       3.417   3.308  18.727  0.00  0.00    +0.000 A 
ATOM     18  C   UNL     1       3.205   3.281  17.342  0.00  0.00    +0.000 A 
ATOM     19  C   UNL     1       4.207   3.695  16.465  0.00  0.00    +0.000 A 
ATOM     20  C   UNL     1       5.424   4.158  16.970  0.00  0.00    +0.000 A 
ATOM     21  C   UNL     1       5.660   4.172  18.346  0.00  0.00    +0.000 A 
ATOM     22  C   UNL     1       4.655   3.746  19.223  0.00  0.00    +0.000 A 
BRANCH  20  23
ATOM     23  S   UNL     1       6.686   4.696  15.845  0.00  0.00    +0.000 S 
ATOM     24  O   UNL     1       6.312   6.016  15.391  0.00  0.00    +0.000 OA
ATOM     25  O   UNL     1       7.987   4.440  16.430  0.00  0.00    +0.000 OA
BRANCH  23  26
ATOM     26  N   UNL     1       6.510   3.682  14.509  0.00  0.00    +0.000 NA
ATOM     27  H   UNL     1       5.904   2.902  14.765  0.00  0.00    +0.000 HD
BRANCH  26  28
ATOM     28  C   UNL     1       6.296   4.255  13.163  0.00  0.00    +0.000 C 
ATOM     29  C   UNL     1       7.592   4.768  12.551  0.00  0.00    +0.000 C 
ATOM     30  C   UNL     1       5.714   3.160  12.266  0.00  0.00    +0.000 C 
ENDBRANCH  26  28
ENDBRANCH  23  26
ENDBRANCH  20  23
ENDBRANCH  16  17
ENDBRANCH   1  16
TORSDOF 10
ENDMDL
MODEL 8
REMARK VINA RESULT:      -7.1      6.540      8.513
REMARK  Name = 
REMARK  13 active torsions:
REMARK  status: ('A' for Active; 'I' for Inactive)
REMARK    1  A    between atoms: C_1  and  O_2
REMARK    2  A    between atoms: O_2  and  C_3
REMARK    3  A    between atoms: C_6  and  C_7
REMARK    4  A    between atoms: C_7  and  C_8
REMARK    5  A    between atoms: C_8  and  N_9
REMARK    6  A    between atoms: C_10  and  C_12
REMARK    7  A    between atoms: C_12  and  C_13
REMARK    8  A    between atoms: C_13  and  C_14
REMARK    9  A    between atoms: C_17  and  S_18
REMARK   10  A    between atoms: S_18  and  N_21
REMARK   11  A    between atoms: N_21  and  C_22
REMARK   12  A    between atoms: C_22  and  C_23
REMARK   13  A    between atoms: C_22  and  C_24
REMARK                            x       y       z     vdW  Elec       q    Type
REMARK                         _______ _______ _______ _____ _____    ______ ____
ROOT
ATOM      1  C   UNL     1       1.096   3.185  19.616  0.00  0.00    +0.000 C 
ENDROOT
BRANCH   1   3
ATOM      2  N   UNL     1       1.652   5.554  19.669  0.00  0.00    +0.000 N 
ATOM      3  C   UNL     1       1.662   4.369  20.373  0.00  0.00    +0.000 C 
ATOM      4  O   UNL     1       2.114   4.276  21.510  0.00  0.00    +0.000 OA
ATOM      5  H   UNL     1       1.424   5.547  18.682  0.00  0.00    +0.000 HD
BRANCH   2   6
ATOM      6  C   UNL     1       2.189   6.758  20.279  0.00  0.00    +0.000 C 
BRANCH   6   7
ATOM      7  C   UNL     1       1.147   7.549  21.069  0.00  0.00    +0.000 C 
BRANCH   7  11
ATOM      8  C   UNL     1       0.157  11.282  19.120  0.00  0.00    +0.000 A 
ATOM      9  C   UNL     1      -0.453  10.928  20.323  0.00  0.00    +0.000 A 
ATOM     10  C   UNL     1      -0.123   9.731  20.965  0.00  0.00    +0.000 A 
ATOM     11  C   UNL     1       0.817   8.860  20.400  0.00  0.00    +0.000 A 
ATOM     12  C   UNL     1       1.407   9.208  19.178  0.00  0.00    +0.000 A 
ATOM     13  C   UNL     1       1.081  10.412  18.544  0.00  0.00    +0.000 A 
BRANCH   8  15
ATOM     14  C   UNL     1      -1.000  13.319  19.446  0.00  0.00    +0.000 C 
ATOM     15  O   UNL     1      -0.260  12.467  18.579  0.00  0.00    +0.000 OA
ENDBRANCH   8  15
ENDBRANCH   7  11
ENDBRANCH   6   7
ENDBRANCH   2   6
ENDBRANCH   1   3
BRANCH   1  16
ATOM     16  C   UNL     1       2.231   2.315  19.078  0.00  0.00    +0.000 C 
BRANCH  16  17
ATOM     17  C   UNL     1       3.339   3.126  18.453  0.00  0.00    +0.000 A 
ATOM     18  C   UNL     1       4.472   3.449  19.212  0.00  0.00    +0.000 A 
ATOM     19  C   UNL     1       5.510   4.192  18.653  0.00  0.00    +0.000 A 
ATOM     20  C   UNL     1       5.430   4.603  17.320  0.00  0.00    +0.000 A 
ATOM     21  C   UNL     1       4.300   4.308  16.555  0.00  0.00    +0.000 A 
ATOM     22  C   UNL     1       3.255   3.570  17.124  0.00  0.00    +0.000 A 
BRANCH  20  23
ATOM     23  S   UNL     1       6.765   5.536  16.615  0.00  0.00    +0.000 S 
ATOM     24  O   UNL     1       6.188   6.727  16.035  0.00  0.00    +0.000 OA
ATOM     25  O   UNL     1       7.851   5.612  17.572  0.00  0.00    +0.000 OA
BRANCH  23  26
ATOM     26  N   UNL     1       7.286   4.595  15.315  0.00  0.00    +0.000 NA
ATOM     27  H   UNL     1       7.240   3.611  15.581  0.00  0.00    +0.000 HD
BRANCH  26  28
ATOM     28  C   UNL     1       6.845   4.916  13.941  0.00  0.00    +0.000 C 
ATOM     29  C   UNL     1       8.008   5.346  13.057  0.00  0.00    +0.000 C 
ATOM     30  C   UNL     1       6.194   3.667  13.345  0.00  0.00    +0.000 C 
ENDBRANCH  26  28
ENDBRANCH  23  26
ENDBRANCH  20  23
ENDBRANCH  16  17
ENDBRANCH   1  16
TORSDOF 10
ENDMDL
MODEL 9
REMARK VINA RESULT:      -7.1      4.562      8.554
REMARK  Name = 
REMARK  13 active torsions:
REMARK  status: ('A' for Active; 'I' for Inactive)
REMARK    1  A    between atoms: C_1  and  O_2
REMARK    2  A    between atoms: O_2  and  C_3
REMARK    3  A    between atoms: C_6  and  C_7
REMARK    4  A    between atoms: C_7  and  C_8
REMARK    5  A    between atoms: C_8  and  N_9
REMARK    6  A    between atoms: C_10  and  C_12
REMARK    7  A    between atoms: C_12  and  C_13
REMARK    8  A    between atoms: C_13  and  C_14
REMARK    9  A    between atoms: C_17  and  S_18
REMARK   10  A    between atoms: S_18  and  N_21
REMARK   11  A    between atoms: N_21  and  C_22
REMARK   12  A    between atoms: C_22  and  C_23
REMARK   13  A    between atoms: C_22  and  C_24
REMARK                            x       y       z     vdW  Elec       q    Type
REMARK                         _______ _______ _______ _____ _____    ______ ____
ROOT
ATOM      1  C   UNL     1       2.241   3.176  21.103  0.00  0.00    +0.000 C 
ENDROOT
BRANCH   1   3
ATOM      2  N   UNL     1       2.271   5.605  20.957  0.00  0.00    +0.000 N 
ATOM      3  C   UNL     1       1.565   4.459  20.665  0.00  0.00    +0.000 C 
ATOM      4  O   UNL     1       0.467   4.477  20.116  0.00  0.00    +0.000 OA
ATOM      5  H   UNL     1       3.087   5.551  21.553  0.00  0.00    +0.000 HD
BRANCH   2   6
ATOM      6  C   UNL     1       1.717   6.901  20.606  0.00  0.00    +0.000 C 
BRANCH   6   7
ATOM      7  C   UNL     1       0.758   7.452  21.660  0.00  0.00    +0.000 C 
BRANCH   7  11
ATOM      8  C   UNL     1      -0.071  11.650  21.018  0.00  0.00    +0.000 A 
ATOM      9  C   UNL     1       0.592  10.901  20.044  0.00  0.00    +0.000 A 
ATOM     10  C   UNL     1       0.846   9.541  20.241  0.00  0.00    +0.000 A 
ATOM     11  C   UNL     1       0.451   8.911  21.427  0.00  0.00    +0.000 A 
ATOM     12  C   UNL     1      -0.190   9.673  22.413  0.00  0.00    +0.000 A 
ATOM     13  C   UNL     1      -0.452  11.032  22.208  0.00  0.00    +0.000 A 
BRANCH   8  15
ATOM     14  C   UNL     1       0.347  13.897  21.624  0.00  0.00    +0.000 C 
ATOM     15  O   UNL     1      -0.246  12.973  20.719  0.00  0.00    +0.000 OA
ENDBRANCH   8  15
ENDBRANCH   7  11
ENDBRANCH   6   7
ENDBRANCH   2   6
ENDBRANCH   1   3
BRANCH   1  16
ATOM     16  C   UNL     1       2.697   2.380  19.883  0.00  0.00    +0.000 C 
BRANCH  16  17
ATOM     17  C   UNL     1       3.561   3.192  18.949  0.00  0.00    +0.000 A 
ATOM     18  C   UNL     1       4.832   3.607  19.368  0.00  0.00    +0.000 A 
ATOM     19  C   UNL     1       5.648   4.353  18.520  0.00  0.00    +0.000 A 
ATOM     20  C   UNL     1       5.205   4.674  17.235  0.00  0.00    +0.000 A 
ATOM     21  C   UNL     1       3.934   4.286  16.807  0.00  0.00    +0.000 A 
ATOM     22  C   UNL     1       3.113   3.546  17.667  0.00  0.00    +0.000 A 
BRANCH  20  23
ATOM     23  S   UNL     1       6.259   5.611  16.158  0.00  0.00    +0.000 S 
ATOM     24  O   UNL     1       7.547   4.956  16.152  0.00  0.00    +0.000 OA
ATOM     25  O   UNL     1       5.550   5.894  14.925  0.00  0.00    +0.000 OA
BRANCH  23  26
ATOM     26  N   UNL     1       6.488   7.072  16.970  0.00  0.00    +0.000 NA
ATOM     27  H   UNL     1       5.704   7.221  17.607  0.00  0.00    +0.000 HD
BRANCH  26  28
ATOM     28  C   UNL     1       7.824   7.432  17.491  0.00  0.00    +0.000 C 
ATOM     29  C   UNL     1       7.957   8.931  17.723  0.00  0.00    +0.000 C 
ATOM     30  C   UNL     1       8.033   6.696  18.815  0.00  0.00    +0.000 C 
ENDBRANCH  26  28
ENDBRANCH  23  26
ENDBRANCH  20  23
ENDBRANCH  16  17
ENDBRANCH   1  16
TORSDOF 10
ENDMDL
