MODEL 1
REMARK VINA RESULT:      -6.7      0.000      0.000
REMARK  Name = 
REMARK  7 active torsions:
REMARK  status: ('A' for Active; 'I' for Inactive)
REMARK    1  A    between atoms: C_1  and  O_2
REMARK    2  A    between atoms: O_2  and  C_3
REMARK    3  A    between atoms: C_3  and  C_4
REMARK    4  A    between atoms: C_4  and  C_5
REMARK    5  A    between atoms: C_5  and  C_6
REMARK    6  A    between atoms: N_10  and  N_11
REMARK    7  A    between atoms: C_12  and  C_14
REMARK                            x       y       z     vdW  Elec       q    Type
REMARK                         _______ _______ _______ _____ _____    ______ ____
ROOT
ATOM      1  C   UNL     1       6.539   4.912  15.620  0.00  0.00    +0.000 C 
ATOM      2  C   UNL     1       7.437   4.460  16.512  0.00  0.00    +0.000 C 
ATOM      3  C   UNL     1       7.252   4.680  17.982  0.00  0.00    +0.000 C 
ATOM      4  C   UNL     1       6.272   5.824  18.269  0.00  0.00    +0.000 C 
ATOM      5  N   UNL     1       5.026   5.674  17.501  0.00  0.00    +0.000 NA
ATOM      6  C   UNL     1       5.264   5.609  16.047  0.00  0.00    +0.000 C 
ENDROOT
BRANCH   5   7
ATOM      7  N   UNL     1       4.078   6.687  17.823  0.00  0.00    +0.000 N 
ATOM      8  C   UNL     1       3.170   6.562  18.876  0.00  0.00    +0.000 C 
ATOM      9  O   UNL     1       3.070   5.593  19.621  0.00  0.00    +0.000 OA
ATOM     10  H   UNL     1       4.061   7.494  17.208  0.00  0.00    +0.000 HD
BRANCH   8  11
ATOM     11  C   UNL     1       2.240   7.703  19.059  0.00  0.00    +0.000 A 
ATOM     12  C   UNL     1       1.902   8.459  17.927  0.00  0.00    +0.000 A 
ATOM     13  C   UNL     1       1.058   9.562  18.051  0.00  0.00    +0.000 A 
ATOM     14  C   UNL     1       0.540   9.901  19.300  0.00  0.00    +0.000 A 
ATOM     15  C   UNL     1       0.850   9.134  20.422  0.00  0.00    +0.000 A 
ATOM     16  C   UNL     1       1.694   8.030  20.305  0.00  0.00    +0.000 A 
ENDBRANCH   8  11
ENDBRANCH   5   7
BRANCH   1  17
ATOM     17  C   UNL     1       6.758   4.773  14.133  0.00  0.00    +0.000 C 
BRANCH  17  18
ATOM     18  C   UNL     1       5.857   3.699  13.507  0.00  0.00    +0.000 C 
BRANCH  18  19
ATOM     19  C   UNL     1       6.369   3.265  12.142  0.00  0.00    +0.000 C 
BRANCH  19  21
ATOM     20  C   UNL     1       6.123   1.137  11.165  0.00  0.00    +0.000 C 
ATOM     21  O   UNL     1       5.458   2.315  11.591  0.00  0.00    +0.000 OA
ENDBRANCH  19  21
ENDBRANCH  18  19
ENDBRANCH  17  18
ENDBRANCH   1  17
TORSDOF 6
ENDMDL
MODEL 2
REMARK VINA RESULT:      -6.4      2.866      3.754
REMARK  Name = 
REMARK  7 active torsions:
REMARK  status: ('A' for Active; 'I' for Inactive)
REMARK    1  A    between atoms: C_1  and  O_2
REMARK    2  A    between atoms: O_2  and  C_3
REMARK    3  A    between atoms: C_3  and  C_4
REMARK    4  A    between atoms: C_4  and  C_5
REMARK    5  A    between atoms: C_5  and  C_6
REMARK    6  A    between atoms: N_10  and  N_11
REMARK    7  A    between atoms: C_12  and  C_14
REMARK                            x       y       z     vdW  Elec       q    Type
REMARK                         _______ _______ _______ _____ _____    ______ ____
ROOT
ATOM      1  C   UNL     1       6.322   4.025  14.113  0.00  0.00    +0.000 C 
ATOM      2  C   UNL     1       7.245   4.989  14.264  0.00  0.00    +0.000 C 
ATOM      3  C   UNL     1       7.418   5.703  15.570  0.00  0.00    +0.000 C 
ATOM      4  C   UNL     1       6.179   5.564  16.463  0.00  0.00    +0.000 C 
ATOM      5  N   UNL     1       5.745   4.163  16.574  0.00  0.00    +0.000 NA
ATOM      6  C   UNL     1       5.450   3.559  15.261  0.00  0.00    +0.000 C 
ENDROOT
BRANCH   5   7
ATOM      7  N   UNL     1       4.646   4.016  17.467  0.00  0.00    +0.000 N 
ATOM      8  C   UNL     1       4.804   3.952  18.852  0.00  0.00    +0.000 C 
ATOM      9  O   UNL     1       5.873   4.001  19.451  0.00  0.00    +0.000 OA
ATOM     10  H   UNL     1       3.734   3.906  17.038  0.00  0.00    +0.000 HD
BRANCH   8  11
ATOM     11  C   UNL     1       3.554   3.777  19.633  0.00  0.00    +0.000 A 
ATOM     12  C   UNL     1       2.648   4.847  19.663  0.00  0.00    +0.000 A 
ATOM     13  C   UNL     1       1.474   4.744  20.409  0.00  0.00    +0.000 A 
ATOM     14  C   UNL     1       1.199   3.573  21.111  0.00  0.00    +0.000 A 
ATOM     15  C   UNL     1       2.084   2.496  21.059  0.00  0.00    +0.000 A 
ATOM     16  C   UNL     1       3.260   2.592  20.315  0.00  0.00    +0.000 A 
ENDBRANCH   8  11
ENDBRANCH   5   7
BRANCH   1  17
ATOM     17  C   UNL     1       6.080   3.361  12.779  0.00  0.00    +0.000 C 
BRANCH  17  18
ATOM     18  C   UNL     1       4.625   3.507  12.308  0.00  0.00    +0.000 C 
BRANCH  18  19
ATOM     19  C   UNL     1       4.443   2.996  10.887  0.00  0.00    +0.000 C 
BRANCH  19  21
ATOM     20  C   UNL     1       2.903   4.177   9.555  0.00  0.00    +0.000 C 
ATOM     21  O   UNL     1       3.074   3.149  10.517  0.00  0.00    +0.000 OA
ENDBRANCH  19  21
ENDBRANCH  18  19
ENDBRANCH  17  18
ENDBRANCH   1  17
TORSDOF 6
ENDMDL
MODEL 3
REMARK VINA RESULT:      -6.4      3.207      3.696
REMARK  Name = 
REMARK  7 active torsions:
REMARK  status: ('A' for Active; 'I' for Inactive)
REMARK    1  A    between atoms: C_1  and  O_2
REMARK    2  A    between atoms: O_2  and  C_3
REMARK    3  A    between atoms: C_3  and  C_4
REMARK    4  A    between atoms: C_4  and  C_5
REMARK    5  A    between atoms: C_5  and  C_6
REMARK    6  A    between atoms: N_10  and  N_11
REMARK    7  A    between atoms: C_12  and  C_14
REMARK                            x       y       z     vdW  Elec       q    Type
REMARK                         _______ _______ _______ _____ _____    ______ ____
ROOT
ATOM      1  C   UNL     1       6.528   4.282  14.024  0.00  0.00    +0.000 C 
ATOM      2  C   UNL     1       7.414   5.222  14.391  0.00  0.00    +0.000 C 
ATOM      3  C   UNL     1       7.397   5.812  15.768  0.00  0.00    +0.000 C 
ATOM      4  C   UNL     1       6.047   5.600  16.463  0.00  0.00    +0.000 C 
ATOM      5  N   UNL     1       5.611   4.197  16.382  0.00  0.00    +0.000 NA
ATOM      6  C   UNL     1       5.507   3.718  14.991  0.00  0.00    +0.000 C 
ENDROOT
BRANCH   5   7
ATOM      7  N   UNL     1       4.398   3.975  17.095  0.00  0.00    +0.000 N 
ATOM      8  C   UNL     1       4.366   3.734  18.469  0.00  0.00    +0.000 C 
ATOM      9  O   UNL     1       5.344   3.671  19.206  0.00  0.00    +0.000 OA
ATOM     10  H   UNL     1       3.551   3.950  16.538  0.00  0.00    +0.000 HD
BRANCH   8  11
ATOM     11  C   UNL     1       3.019   3.503  19.047  0.00  0.00    +0.000 A 
ATOM     12  C   UNL     1       2.722   4.113  20.275  0.00  0.00    +0.000 A 
ATOM     13  C   UNL     1       1.482   3.901  20.877  0.00  0.00    +0.000 A 
ATOM     14  C   UNL     1       0.535   3.095  20.248  0.00  0.00    +0.000 A 
ATOM     15  C   UNL     1       0.816   2.512  19.013  0.00  0.00    +0.000 A 
ATOM     16  C   UNL     1       2.054   2.719  18.406  0.00  0.00    +0.000 A 
ENDBRANCH   8  11
ENDBRANCH   5   7
BRANCH   1  17
ATOM     17  C   UNL     1       6.479   3.744  12.614  0.00  0.00    +0.000 C 
BRANCH  17  18
ATOM     18  C   UNL     1       5.041   3.527  12.119  0.00  0.00    +0.000 C 
BRANCH  18  19
ATOM     19  C   UNL     1       4.913   2.240  11.319  0.00  0.00    +0.000 C 
BRANCH  19  21
ATOM     20  C   UNL     1       6.086   0.205  11.165  0.00  0.00    +0.000 C 
ATOM     21  O   UNL     1       6.194   1.617  11.245  0.00  0.00    +0.000 OA
ENDBRANCH  19  21
ENDBRANCH  18  19
ENDBRANCH  17  18
ENDBRANCH   1  17
TORSDOF 6
ENDMDL
MODEL 4
REMARK VINA RESULT:      -6.4      0.510      1.227
REMARK  Name = 
REMARK  7 active torsions:
REMARK  status: ('A' for Active; 'I' for Inactive)
REMARK    1  A    between atoms: C_1  and  O_2
REMARK    2  A    between atoms: O_2  and  C_3
REMARK    3  A    between atoms: C_3  and  C_4
REMARK    4  A    between atoms: C_4  and  C_5
REMARK    5  A    between atoms: C_5  and  C_6
REMARK    6  A    between atoms: N_10  and  N_11
REMARK    7  A    between atoms: C_12  and  C_14
REMARK                            x       y       z     vdW  Elec       q    Type
REMARK                         _______ _______ _______ _____ _____    ______ ____
ROOT
ATOM      1  C   UNL     1       6.041   4.517  15.603  0.00  0.00    +0.000 C 
ATOM      2  C   UNL     1       7.215   4.327  16.228  0.00  0.00    +0.000 C 
ATOM      3  C   UNL     1       7.486   4.926  17.574  0.00  0.00    +0.000 C 
ATOM      4  C   UNL     1       6.539   6.093  17.880  0.00  0.00    +0.000 C 
ATOM      5  N   UNL     1       5.135   5.731  17.632  0.00  0.00    +0.000 NA
ATOM      6  C   UNL     1       4.905   5.287  16.244  0.00  0.00    +0.000 C 
ENDROOT
BRANCH   5   7
ATOM      7  N   UNL     1       4.244   6.781  17.991  0.00  0.00    +0.000 N 
ATOM      8  C   UNL     1       3.020   6.549  18.619  0.00  0.00    +0.000 C 
ATOM      9  O   UNL     1       2.569   5.448  18.919  0.00  0.00    +0.000 OA
ATOM     10  H   UNL     1       4.523   7.717  17.716  0.00  0.00    +0.000 HD
BRANCH   8  11
ATOM     11  C   UNL     1       2.205   7.756  18.904  0.00  0.00    +0.000 A 
ATOM     12  C   UNL     1       1.761   7.949  20.220  0.00  0.00    +0.000 A 
ATOM     13  C   UNL     1       0.965   9.051  20.532  0.00  0.00    +0.000 A 
ATOM     14  C   UNL     1       0.625   9.965  19.537  0.00  0.00    +0.000 A 
ATOM     15  C   UNL     1       1.090   9.792  18.233  0.00  0.00    +0.000 A 
ATOM     16  C   UNL     1       1.887   8.692  17.914  0.00  0.00    +0.000 A 
ENDBRANCH   8  11
ENDBRANCH   5   7
BRANCH   1  17
ATOM     17  C   UNL     1       5.790   3.992  14.210  0.00  0.00    +0.000 C 
BRANCH  17  18
ATOM     18  C   UNL     1       6.838   4.485  13.201  0.00  0.00    +0.000 C 
BRANCH  18  19
ATOM     19  C   UNL     1       6.940   3.557  12.001  0.00  0.00    +0.000 C 
BRANCH  19  21
ATOM     20  C   UNL     1       5.985   1.534  11.267  0.00  0.00    +0.000 C 
ATOM     21  O   UNL     1       5.755   2.765  11.932  0.00  0.00    +0.000 OA
ENDBRANCH  19  21
ENDBRANCH  18  19
ENDBRANCH  17  18
ENDBRANCH   1  17
TORSDOF 6
ENDMDL
MODEL 5
REMARK VINA RESULT:      -6.4      3.272      3.703
REMARK  Name = 
REMARK  7 active torsions:
REMARK  status: ('A' for Active; 'I' for Inactive)
REMARK    1  A    between atoms: C_1  and  O_2
REMARK    2  A    between atoms: O_2  and  C_3
REMARK    3  A    between atoms: C_3  and  C_4
REMARK    4  A    between atoms: C_4  and  C_5
REMARK    5  A    between atoms: C_5  and  C_6
REMARK    6  A    between atoms: N_10  and  N_11
REMARK    7  A    between atoms: C_12  and  C_14
REMARK                            x       y       z     vdW  Elec       q    Type
REMARK                         _______ _______ _______ _____ _____    ______ ____
ROOT
ATOM      1  C   UNL     1       6.136   3.912  13.724  0.00  0.00    +0.000 C 
ATOM      2  C   UNL     1       7.092   4.826  13.962  0.00  0.00    +0.000 C 
ATOM      3  C   UNL     1       7.239   5.466  15.308  0.00  0.00    +0.000 C 
ATOM      4  C   UNL     1       5.960   5.337  16.144  0.00  0.00    +0.000 C 
ATOM      5  N   UNL     1       5.464   3.952  16.165  0.00  0.00    +0.000 NA
ATOM      6  C   UNL     1       5.199   3.428  14.812  0.00  0.00    +0.000 C 
ENDROOT
BRANCH   5   7
ATOM      7  N   UNL     1       4.324   3.808  17.005  0.00  0.00    +0.000 N 
ATOM      8  C   UNL     1       4.417   3.735  18.396  0.00  0.00    +0.000 C 
ATOM      9  O   UNL     1       5.457   3.770  19.044  0.00  0.00    +0.000 OA
ATOM     10  H   UNL     1       3.431   3.709  16.533  0.00  0.00    +0.000 HD
BRANCH   8  11
ATOM     11  C   UNL     1       3.131   3.565  19.116  0.00  0.00    +0.000 A 
ATOM     12  C   UNL     1       2.118   2.833  18.481  0.00  0.00    +0.000 A 
ATOM     13  C   UNL     1       0.879   2.673  19.103  0.00  0.00    +0.000 A 
ATOM     14  C   UNL     1       0.657   3.230  20.360  0.00  0.00    +0.000 A 
ATOM     15  C   UNL     1       1.673   3.933  21.007  0.00  0.00    +0.000 A 
ATOM     16  C   UNL     1       2.914   4.097  20.392  0.00  0.00    +0.000 A 
ENDBRANCH   8  11
ENDBRANCH   5   7
BRANCH   1  17
ATOM     17  C   UNL     1       5.922   3.326  12.350  0.00  0.00    +0.000 C 
BRANCH  17  18
ATOM     18  C   UNL     1       7.234   2.854  11.704  0.00  0.00    +0.000 C 
BRANCH  18  19
ATOM     19  C   UNL     1       7.023   1.613  10.850  0.00  0.00    +0.000 C 
BRANCH  19  21
ATOM     20  C   UNL     1       6.069  -0.482  11.341  0.00  0.00    +0.000 C 
ATOM     21  O   UNL     1       5.868   0.922  11.324  0.00  0.00    +0.000 OA
ENDBRANCH  19  21
ENDBRANCH  18  19
ENDBRANCH  17  18
ENDBRANCH   1  17
TORSDOF 6
ENDMDL
MODEL 6
REMARK VINA RESULT:      -6.3      2.236      3.730
REMARK  Name = 
REMARK  7 active torsions:
REMARK  status: ('A' for Active; 'I' for Inactive)
REMARK    1  A    between atoms: C_1  and  O_2
REMARK    2  A    between atoms: O_2  and  C_3
REMARK    3  A    between atoms: C_3  and  C_4
REMARK    4  A    between atoms: C_4  and  C_5
REMARK    5  A    between atoms: C_5  and  C_6
REMARK    6  A    between atoms: N_10  and  N_11
REMARK    7  A    between atoms: C_12  and  C_14
REMARK                            x       y       z     vdW  Elec       q    Type
REMARK                         _______ _______ _______ _____ _____    ______ ____
ROOT
ATOM      1  C   UNL     1       5.382   4.909  19.080  0.00  0.00    +0.000 C 
ATOM      2  C   UNL     1       4.965   3.633  19.036  0.00  0.00    +0.000 C 
ATOM      3  C   UNL     1       3.548   3.265  19.350  0.00  0.00    +0.000 C 
ATOM      4  C   UNL     1       2.838   4.364  20.151  0.00  0.00    +0.000 C 
ATOM      5  N   UNL     1       3.014   5.686  19.531  0.00  0.00    +0.000 NA
ATOM      6  C   UNL     1       4.435   6.053  19.382  0.00  0.00    +0.000 C 
ENDROOT
BRANCH   5   7
ATOM      7  N   UNL     1       2.291   6.698  20.223  0.00  0.00    +0.000 N 
ATOM      8  C   UNL     1       1.839   7.862  19.598  0.00  0.00    +0.000 C 
ATOM      9  O   UNL     1       2.013   8.153  18.419  0.00  0.00    +0.000 OA
ATOM     10  H   UNL     1       2.164   6.555  21.219  0.00  0.00    +0.000 HD
BRANCH   8  11
ATOM     11  C   UNL     1       1.120   8.821  20.472  0.00  0.00    +0.000 A 
ATOM     12  C   UNL     1       1.125   8.577  21.853  0.00  0.00    +0.000 A 
ATOM     13  C   UNL     1       0.435   9.430  22.714  0.00  0.00    +0.000 A 
ATOM     14  C   UNL     1      -0.245  10.532  22.200  0.00  0.00    +0.000 A 
ATOM     15  C   UNL     1      -0.227  10.795  20.831  0.00  0.00    +0.000 A 
ATOM     16  C   UNL     1       0.460   9.946  19.964  0.00  0.00    +0.000 A 
ENDBRANCH   8  11
ENDBRANCH   5   7
BRANCH   1  17
ATOM     17  C   UNL     1       6.827   5.281  18.851  0.00  0.00    +0.000 C 
BRANCH  17  18
ATOM     18  C   UNL     1       7.373   4.723  17.529  0.00  0.00    +0.000 C 
BRANCH  18  19
ATOM     19  C   UNL     1       6.676   5.344  16.328  0.00  0.00    +0.000 C 
BRANCH  19  21
ATOM     20  C   UNL     1       6.936   4.808  14.051  0.00  0.00    +0.000 C 
ATOM     21  O   UNL     1       7.568   5.315  15.215  0.00  0.00    +0.000 OA
ENDBRANCH  19  21
ENDBRANCH  18  19
ENDBRANCH  17  18
ENDBRANCH   1  17
TORSDOF 6
ENDMDL
MODEL 7
REMARK VINA RESULT:      -6.3      2.304      8.190
REMARK  Name = 
REMARK  7 active torsions:
REMARK  status: ('A' for Active; 'I' for Inactive)
REMARK    1  A    between atoms: C_1  and  O_2
REMARK    2  A    between atoms: O_2  and  C_3
REMARK    3  A    between atoms: C_3  and  C_4
REMARK    4  A    between atoms: C_4  and  C_5
REMARK    5  A    between atoms: C_5  and  C_6
REMARK    6  A    between atoms: N_10  and  N_11
REMARK    7  A    between atoms: C_12  and  C_14
REMARK                            x       y       z     vdW  Elec       q    Type
REMARK                         _______ _______ _______ _____ _____    ______ ____
ROOT
ATOM      1  C   UNL     1       2.938   5.921  19.249  0.00  0.00    +0.000 C 
ATOM      2  C   UNL     1       2.689   4.852  20.025  0.00  0.00    +0.000 C 
ATOM      3  C   UNL     1       3.218   3.496  19.673  0.00  0.00    +0.000 C 
ATOM      4  C   UNL     1       3.603   3.400  18.192  0.00  0.00    +0.000 C 
ATOM      5  N   UNL     1       4.456   4.526  17.780  0.00  0.00    +0.000 NA
ATOM      6  C   UNL     1       3.817   5.833  18.018  0.00  0.00    +0.000 C 
ENDROOT
BRANCH   5   7
ATOM      7  N   UNL     1       4.884   4.401  16.428  0.00  0.00    +0.000 N 
ATOM      8  C   UNL     1       6.218   4.551  16.044  0.00  0.00    +0.000 C 
ATOM      9  O   UNL     1       7.152   4.813  16.795  0.00  0.00    +0.000 OA
ATOM     10  H   UNL     1       4.155   4.247  15.741  0.00  0.00    +0.000 HD
BRANCH   8  11
ATOM     11  C   UNL     1       6.486   4.409  14.592  0.00  0.00    +0.000 A 
ATOM     12  C   UNL     1       7.522   5.178  14.040  0.00  0.00    +0.000 A 
ATOM     13  C   UNL     1       7.792   5.105  12.674  0.00  0.00    +0.000 A 
ATOM     14  C   UNL     1       7.041   4.257  11.863  0.00  0.00    +0.000 A 
ATOM     15  C   UNL     1       6.031   3.469  12.413  0.00  0.00    +0.000 A 
ATOM     16  C   UNL     1       5.755   3.537  13.779  0.00  0.00    +0.000 A 
ENDBRANCH   8  11
ENDBRANCH   5   7
BRANCH   1  17
ATOM     17  C   UNL     1       2.337   7.274  19.546  0.00  0.00    +0.000 C 
BRANCH  17  18
ATOM     18  C   UNL     1       1.449   7.258  20.800  0.00  0.00    +0.000 C 
BRANCH  18  19
ATOM     19  C   UNL     1       1.294   8.649  21.393  0.00  0.00    +0.000 C 
BRANCH  19  21
ATOM     20  C   UNL     1      -0.343   9.869  20.222  0.00  0.00    +0.000 C 
ATOM     21  O   UNL     1      -0.081   9.024  21.330  0.00  0.00    +0.000 OA
ENDBRANCH  19  21
ENDBRANCH  18  19
ENDBRANCH  17  18
ENDBRANCH   1  17
TORSDOF 6
ENDMDL
MODEL 8
REMARK VINA RESULT:      -6.3      2.224      7.813
REMARK  Name = 
REMARK  7 active torsions:
REMARK  status: ('A' for Active; 'I' for Inactive)
REMARK    1  A    between atoms: C_1  and  O_2
REMARK    2  A    between atoms: O_2  and  C_3
REMARK    3  A    between atoms: C_3  and  C_4
REMARK    4  A    between atoms: C_4  and  C_5
REMARK    5  A    between atoms: C_5  and  C_6
REMARK    6  A    between atoms: N_10  and  N_11
REMARK    7  A    between atoms: C_12  and  C_14
REMARK                            x       y       z     vdW  Elec       q    Type
REMARK                         _______ _______ _______ _____ _____    ______ ____
ROOT
ATOM      1  C   UNL     1       2.950   5.858  18.898  0.00  0.00    +0.000 C 
ATOM      2  C   UNL     1       2.929   4.896  19.836  0.00  0.00    +0.000 C 
ATOM      3  C   UNL     1       3.725   3.637  19.678  0.00  0.00    +0.000 C 
ATOM      4  C   UNL     1       4.116   3.389  18.216  0.00  0.00    +0.000 C 
ATOM      5  N   UNL     1       4.717   4.585  17.606  0.00  0.00    +0.000 NA
ATOM      6  C   UNL     1       3.823   5.757  17.664  0.00  0.00    +0.000 C 
ENDROOT
BRANCH   5   7
ATOM      7  N   UNL     1       5.156   4.339  16.274  0.00  0.00    +0.000 N 
ATOM      8  C   UNL     1       6.179   5.072  15.671  0.00  0.00    +0.000 C 
ATOM      9  O   UNL     1       6.796   5.997  16.189  0.00  0.00    +0.000 OA
ATOM     10  H   UNL     1       4.647   3.628  15.760  0.00  0.00    +0.000 HD
BRANCH   8  11
ATOM     11  C   UNL     1       6.497   4.697  14.271  0.00  0.00    +0.000 A 
ATOM     12  C   UNL     1       5.675   3.748  13.646  0.00  0.00    +0.000 A 
ATOM     13  C   UNL     1       5.951   3.337  12.342  0.00  0.00    +0.000 A 
ATOM     14  C   UNL     1       7.036   3.882  11.659  0.00  0.00    +0.000 A 
ATOM     15  C   UNL     1       7.837   4.848  12.266  0.00  0.00    +0.000 A 
ATOM     16  C   UNL     1       7.567   5.264  13.570  0.00  0.00    +0.000 A 
ENDBRANCH   8  11
ENDBRANCH   5   7
BRANCH   1  17
ATOM     17  C   UNL     1       2.085   7.090  19.005  0.00  0.00    +0.000 C 
BRANCH  17  18
ATOM     18  C   UNL     1       2.580   8.233  18.106  0.00  0.00    +0.000 C 
BRANCH  18  19
ATOM     19  C   UNL     1       1.489   9.264  17.859  0.00  0.00    +0.000 C 
BRANCH  19  21
ATOM     20  C   UNL     1      -0.108  10.528  19.038  0.00  0.00    +0.000 C 
ATOM     21  O   UNL     1       1.152   9.880  19.100  0.00  0.00    +0.000 OA
ENDBRANCH  19  21
ENDBRANCH  18  19
ENDBRANCH  17  18
ENDBRANCH   1  17
TORSDOF 6
ENDMDL
MODEL 9
REMARK VINA RESULT:      -6.2      2.702      7.530
REMARK  Name = 
REMARK  7 active torsions:
REMARK  status: ('A' for Active; 'I' for Inactive)
REMARK    1  A    between atoms: C_1  and  O_2
REMARK    2  A    between atoms: O_2  and  C_3
REMARK    3  A    between atoms: C_3  and  C_4
REMARK    4  A    between atoms: C_4  and  C_5
REMARK    5  A    between atoms: C_5  and  C_6
REMARK    6  A    between atoms: N_10  and  N_11
REMARK    7  A    between atoms: C_12  and  C_14
REMARK                            x       y       z     vdW  Elec       q    Type
REMARK                         _______ _______ _______ _____ _____    ______ ____
ROOT
ATOM      1  C   UNL     1       5.171   5.067  18.854  0.00  0.00    +0.000 C 
ATOM      2  C   UNL     1       6.370   5.463  19.313  0.00  0.00    +0.000 C 
ATOM      3  C   UNL     1       7.571   5.501  18.420  0.00  0.00    +0.000 C 
ATOM      4  C   UNL     1       7.385   4.625  17.175  0.00  0.00    +0.000 C 
ATOM      5  N   UNL     1       6.104   4.899  16.506  0.00  0.00    +0.000 NA
ATOM      6  C   UNL     1       4.948   4.702  17.400  0.00  0.00    +0.000 C 
ENDROOT
BRANCH   5   7
ATOM      7  N   UNL     1       5.959   4.149  15.306  0.00  0.00    +0.000 N 
ATOM      8  C   UNL     1       6.563   4.525  14.105  0.00  0.00    +0.000 C 
ATOM      9  O   UNL     1       7.258   5.521  13.937  0.00  0.00    +0.000 OA
ATOM     10  H   UNL     1       5.345   3.343  15.353  0.00  0.00    +0.000 HD
BRANCH   8  11
ATOM     11  C   UNL     1       6.291   3.639  12.945  0.00  0.00    +0.000 A 
ATOM     12  C   UNL     1       4.958   3.485  12.539  0.00  0.00    +0.000 A 
ATOM     13  C   UNL     1       4.647   2.638  11.476  0.00  0.00    +0.000 A 
ATOM     14  C   UNL     1       5.664   1.958  10.811  0.00  0.00    +0.000 A 
ATOM     15  C   UNL     1       6.994   2.133  11.192  0.00  0.00    +0.000 A 
ATOM     16  C   UNL     1       7.313   2.978  12.255  0.00  0.00    +0.000 A 
ENDBRANCH   8  11
ENDBRANCH   5   7
BRANCH   1  17
ATOM     17  C   UNL     1       3.974   4.941  19.766  0.00  0.00    +0.000 C 
BRANCH  17  18
ATOM     18  C   UNL     1       2.662   5.322  19.064  0.00  0.00    +0.000 C 
BRANCH  18  19
ATOM     19  C   UNL     1       1.521   4.402  19.473  0.00  0.00    +0.000 C 
BRANCH  19  21
ATOM     20  C   UNL     1       1.673   2.211  18.627  0.00  0.00    +0.000 C 
ATOM     21  O   UNL     1       1.221   3.532  18.383  0.00  0.00    +0.000 OA
ENDBRANCH  19  21
ENDBRANCH  18  19
ENDBRANCH  17  18
ENDBRANCH   1  17
TORSDOF 6
ENDMDL
