MODEL 1
REMARK VINA RESULT:      -7.5      0.000      0.000
REMARK  Name = 
REMARK  6 active torsions:
REMARK  status: ('A' for Active; 'I' for Inactive)
REMARK    1  A    between atoms: C_1  and  C_2
REMARK    2  A    between atoms: C_2  and  N_3
REMARK    3  A    between atoms: C_2  and  C_17
REMARK    4  A    between atoms: C_4  and  C_6
REMARK    5  A    between atoms: C_6  and  C_7
REMARK    6  A    between atoms: C_9  and  C_10
REMARK                            x       y       z     vdW  Elec       q    Type
REMARK                         _______ _______ _______ _____ _____    ______ ____
ROOT
ATOM      1  N   UNL     1       3.873   6.121  17.803  0.00  0.00    +0.000 N 
ATOM      2  C   UNL     1       5.049   5.473  18.102  0.00  0.00    +0.000 C 
ATOM      3  O   UNL     1       5.404   5.236  19.254  0.00  0.00    +0.000 OA
ATOM      4  H   UNL     1       3.550   6.187  16.847  0.00  0.00    +0.000 HD
ENDROOT
BRANCH   1   6
ATOM      5  C   UNL     1       1.920   7.506  18.337  0.00  0.00    +0.000 C 
ATOM      6  C   UNL     1       2.903   6.449  18.842  0.00  0.00    +0.000 C 
BRANCH   6   7
ATOM      7  C   UNL     1       2.182   5.200  19.317  0.00  0.00    +0.000 A 
ATOM      8  C   UNL     1       2.103   4.924  20.692  0.00  0.00    +0.000 A 
ATOM      9  C   UNL     1       1.448   3.780  21.154  0.00  0.00    +0.000 A 
ATOM     10  C   UNL     1       0.867   2.895  20.247  0.00  0.00    +0.000 A 
ATOM     11  C   UNL     1       0.937   3.156  18.880  0.00  0.00    +0.000 A 
ATOM     12  C   UNL     1       1.588   4.302  18.417  0.00  0.00    +0.000 A 
ENDBRANCH   6   7
ENDBRANCH   1   6
BRANCH   2  13
ATOM     13  C   UNL     1       5.907   5.097  16.943  0.00  0.00    +0.000 C 
ATOM     14  C   UNL     1       5.408   5.206  15.694  0.00  0.00    +0.000 C 
BRANCH  14  15
ATOM     15  C   UNL     1       6.192   4.827  14.518  0.00  0.00    +0.000 A 
ATOM     16  C   UNL     1       7.326   5.546  14.154  0.00  0.00    +0.000 A 
ATOM     17  C   UNL     1       7.940   5.250  12.939  0.00  0.00    +0.000 A 
ATOM     18  C   UNL     1       7.408   4.247  12.135  0.00  0.00    +0.000 A 
ATOM     19  C   UNL     1       6.282   3.572  12.588  0.00  0.00    +0.000 A 
ATOM     20 BR   UNL     1       5.546   2.202  11.504  0.00  0.00    +0.000 Br
ATOM     21  N   UNL     1       5.663   3.844  13.761  0.00  0.00    +0.000 NA
ENDBRANCH  14  15
BRANCH  13  22
ATOM     22  C   UNL     1       7.317   4.559  17.123  0.00  0.00    +0.000 C 
ATOM     23  N   UNL     1       8.486   4.112  17.271  0.00  0.00    +0.000 NA
ENDBRANCH  13  22
ENDBRANCH   2  13
TORSDOF 5
ENDMDL
MODEL 2
REMARK VINA RESULT:      -7.3      0.115      1.035
REMARK  Name = 
REMARK  6 active torsions:
REMARK  status: ('A' for Active; 'I' for Inactive)
REMARK    1  A    between atoms: C_1  and  C_2
REMARK    2  A    between atoms: C_2  and  N_3
REMARK    3  A    between atoms: C_2  and  C_17
REMARK    4  A    between atoms: C_4  and  C_6
REMARK    5  A    between atoms: C_6  and  C_7
REMARK    6  A    between atoms: C_9  and  C_10
REMARK                            x       y       z     vdW  Elec       q    Type
REMARK                         _______ _______ _______ _____ _____    ______ ____
ROOT
ATOM      1  N   UNL     1       3.909   6.224  17.842  0.00  0.00    +0.000 N 
ATOM      2  C   UNL     1       4.966   5.388  18.112  0.00  0.00    +0.000 C 
ATOM      3  O   UNL     1       5.209   4.964  19.239  0.00  0.00    +0.000 OA
ATOM      4  H   UNL     1       3.662   6.452  16.889  0.00  0.00    +0.000 HD
ENDROOT
BRANCH   1   6
ATOM      5  C   UNL     1       1.905   7.556  18.321  0.00  0.00    +0.000 C 
ATOM      6  C   UNL     1       2.922   6.552  18.865  0.00  0.00    +0.000 C 
BRANCH   6   7
ATOM      7  C   UNL     1       2.243   5.295  19.379  0.00  0.00    +0.000 A 
ATOM      8  C   UNL     1       1.654   4.401  18.470  0.00  0.00    +0.000 A 
ATOM      9  C   UNL     1       1.021   3.240  18.918  0.00  0.00    +0.000 A 
ATOM     10  C   UNL     1       0.964   2.959  20.282  0.00  0.00    +0.000 A 
ATOM     11  C   UNL     1       1.544   3.836  21.197  0.00  0.00    +0.000 A 
ATOM     12  C   UNL     1       2.181   4.995  20.749  0.00  0.00    +0.000 A 
ENDBRANCH   6   7
ENDBRANCH   1   6
BRANCH   2  13
ATOM     13  C   UNL     1       5.844   5.042  16.959  0.00  0.00    +0.000 C 
ATOM     14  C   UNL     1       5.347   5.126  15.708  0.00  0.00    +0.000 C 
BRANCH  14  15
ATOM     15  C   UNL     1       6.150   4.774  14.536  0.00  0.00    +0.000 A 
ATOM     16  C   UNL     1       7.290   5.502  14.208  0.00  0.00    +0.000 A 
ATOM     17  C   UNL     1       7.924   5.234  12.997  0.00  0.00    +0.000 A 
ATOM     18  C   UNL     1       7.406   4.250  12.161  0.00  0.00    +0.000 A 
ATOM     19  C   UNL     1       6.273   3.565  12.579  0.00  0.00    +0.000 A 
ATOM     20 BR   UNL     1       5.557   2.219  11.452  0.00  0.00    +0.000 Br
ATOM     21  N   UNL     1       5.635   3.809  13.748  0.00  0.00    +0.000 NA
ENDBRANCH  14  15
BRANCH  13  22
ATOM     22  C   UNL     1       7.274   4.563  17.146  0.00  0.00    +0.000 C 
ATOM     23  N   UNL     1       8.460   4.165  17.301  0.00  0.00    +0.000 NA
ENDBRANCH  13  22
ENDBRANCH   2  13
TORSDOF 5
ENDMDL
MODEL 3
REMARK VINA RESULT:      -7.1      3.923      6.289
REMARK  Name = 
REMARK  6 active torsions:
REMARK  status: ('A' for Active; 'I' for Inactive)
REMARK    1  A    between atoms: C_1  and  C_2
REMARK    2  A    between atoms: C_2  and  N_3
REMARK    3  A    between atoms: C_2  and  C_17
REMARK    4  A    between atoms: C_4  and  C_6
REMARK    5  A    between atoms: C_6  and  C_7
REMARK    6  A    between atoms: C_9  and  C_10
REMARK                            x       y       z     vdW  Elec       q    Type
REMARK                         _______ _______ _______ _____ _____    ______ ____
ROOT
ATOM      1  N   UNL     1       1.088   9.216  19.428  0.00  0.00    +0.000 N 
ATOM      2  C   UNL     1       1.467   8.273  20.354  0.00  0.00    +0.000 C 
ATOM      3  O   UNL     1       1.305   8.422  21.562  0.00  0.00    +0.000 OA
ATOM      4  H   UNL     1       1.118   9.010  18.439  0.00  0.00    +0.000 HD
ENDROOT
BRANCH   1   6
ATOM      5  C   UNL     1       1.247  11.636  19.798  0.00  0.00    +0.000 C 
ATOM      6  C   UNL     1       0.340  10.405  19.821  0.00  0.00    +0.000 C 
BRANCH   6   7
ATOM      7  C   UNL     1      -0.876  10.593  18.931  0.00  0.00    +0.000 A 
ATOM      8  C   UNL     1      -1.892  11.481  19.320  0.00  0.00    +0.000 A 
ATOM      9  C   UNL     1      -3.021  11.669  18.519  0.00  0.00    +0.000 A 
ATOM     10  C   UNL     1      -3.151  10.969  17.321  0.00  0.00    +0.000 A 
ATOM     11  C   UNL     1      -2.150  10.085  16.921  0.00  0.00    +0.000 A 
ATOM     12  C   UNL     1      -1.019   9.900  17.719  0.00  0.00    +0.000 A 
ENDBRANCH   6   7
ENDBRANCH   1   6
BRANCH   2  13
ATOM     13  C   UNL     1       2.131   7.052  19.816  0.00  0.00    +0.000 C 
ATOM     14  C   UNL     1       2.692   7.096  18.590  0.00  0.00    +0.000 C 
BRANCH  14  15
ATOM     15  C   UNL     1       3.334   5.922  17.996  0.00  0.00    +0.000 A 
ATOM     16  C   UNL     1       2.583   4.817  17.610  0.00  0.00    +0.000 A 
ATOM     17  C   UNL     1       3.254   3.664  17.207  0.00  0.00    +0.000 A 
ATOM     18  C   UNL     1       4.644   3.657  17.196  0.00  0.00    +0.000 A 
ATOM     19  C   UNL     1       5.310   4.812  17.583  0.00  0.00    +0.000 A 
ATOM     20 BR   UNL     1       7.206   4.816  17.572  0.00  0.00    +0.000 Br
ATOM     21  N   UNL     1       4.682   5.942  17.985  0.00  0.00    +0.000 NA
ENDBRANCH  14  15
BRANCH  13  22
ATOM     22  C   UNL     1       2.167   5.744  20.590  0.00  0.00    +0.000 C 
ATOM     23  N   UNL     1       2.197   4.659  21.231  0.00  0.00    +0.000 NA
ENDBRANCH  13  22
ENDBRANCH   2  13
TORSDOF 5
ENDMDL
MODEL 4
REMARK VINA RESULT:      -7.1      3.911      6.339
REMARK  Name = 
REMARK  6 active torsions:
REMARK  status: ('A' for Active; 'I' for Inactive)
REMARK    1  A    between atoms: C_1  and  C_2
REMARK    2  A    between atoms: C_2  and  N_3
REMARK    3  A    between atoms: C_2  and  C_17
REMARK    4  A    between atoms: C_4  and  C_6
REMARK    5  A    between atoms: C_6  and  C_7
REMARK    6  A    between atoms: C_9  and  C_10
REMARK                            x       y       z     vdW  Elec       q    Type
REMARK                         _______ _______ _______ _____ _____    ______ ____
ROOT
ATOM      1  N   UNL     1       1.211   9.320  19.366  0.00  0.00    +0.000 N 
ATOM      2  C   UNL     1       1.428   8.320  20.284  0.00  0.00    +0.000 C 
ATOM      3  O   UNL     1       1.119   8.424  21.468  0.00  0.00    +0.000 OA
ATOM      4  H   UNL     1       1.359   9.156  18.379  0.00  0.00    +0.000 HD
ENDROOT
BRANCH   1   6
ATOM      5  C   UNL     1       1.353  11.762  19.559  0.00  0.00    +0.000 C 
ATOM      6  C   UNL     1       0.468  10.525  19.719  0.00  0.00    +0.000 C 
BRANCH   6   7
ATOM      7  C   UNL     1      -0.800  10.637  18.891  0.00  0.00    +0.000 A 
ATOM      8  C   UNL     1      -0.950   9.847  17.739  0.00  0.00    +0.000 A 
ATOM      9  C   UNL     1      -2.105   9.934  16.960  0.00  0.00    +0.000 A 
ATOM     10  C   UNL     1      -3.123  10.815  17.318  0.00  0.00    +0.000 A 
ATOM     11  C   UNL     1      -2.990  11.605  18.458  0.00  0.00    +0.000 A 
ATOM     12  C   UNL     1      -1.837  11.515  19.241  0.00  0.00    +0.000 A 
ENDBRANCH   6   7
ENDBRANCH   1   6
BRANCH   2  13
ATOM     13  C   UNL     1       2.104   7.094  19.775  0.00  0.00    +0.000 C 
ATOM     14  C   UNL     1       2.681   7.121  18.555  0.00  0.00    +0.000 C 
BRANCH  14  15
ATOM     15  C   UNL     1       3.337   5.941  17.989  0.00  0.00    +0.000 A 
ATOM     16  C   UNL     1       2.594   4.833  17.594  0.00  0.00    +0.000 A 
ATOM     17  C   UNL     1       3.272   3.676  17.218  0.00  0.00    +0.000 A 
ATOM     18  C   UNL     1       4.663   3.666  17.243  0.00  0.00    +0.000 A 
ATOM     19  C   UNL     1       5.320   4.824  17.637  0.00  0.00    +0.000 A 
ATOM     20 BR   UNL     1       7.216   4.825  17.675  0.00  0.00    +0.000 Br
ATOM     21  N   UNL     1       4.685   5.959  18.013  0.00  0.00    +0.000 NA
ENDBRANCH  14  15
BRANCH  13  22
ATOM     22  C   UNL     1       2.135   5.799  20.569  0.00  0.00    +0.000 C 
ATOM     23  N   UNL     1       2.161   4.724  21.228  0.00  0.00    +0.000 NA
ENDBRANCH  13  22
ENDBRANCH   2  13
TORSDOF 5
ENDMDL
MODEL 5
REMARK VINA RESULT:      -7.0      3.496      5.214
REMARK  Name = 
REMARK  6 active torsions:
REMARK  status: ('A' for Active; 'I' for Inactive)
REMARK    1  A    between atoms: C_1  and  C_2
REMARK    2  A    between atoms: C_2  and  N_3
REMARK    3  A    between atoms: C_2  and  C_17
REMARK    4  A    between atoms: C_4  and  C_6
REMARK    5  A    between atoms: C_6  and  C_7
REMARK    6  A    between atoms: C_9  and  C_10
REMARK                            x       y       z     vdW  Elec       q    Type
REMARK                         _______ _______ _______ _____ _____    ______ ____
ROOT
ATOM      1  N   UNL     1       1.165   8.783  18.819  0.00  0.00    +0.000 N 
ATOM      2  C   UNL     1       2.213   8.786  17.930  0.00  0.00    +0.000 C 
ATOM      3  O   UNL     1       2.462   9.740  17.197  0.00  0.00    +0.000 OA
ATOM      4  H   UNL     1       1.064   8.037  19.495  0.00  0.00    +0.000 HD
ENDROOT
BRANCH   1   6
ATOM      5  C   UNL     1      -0.847   9.991  18.104  0.00  0.00    +0.000 C 
ATOM      6  C   UNL     1       0.358   9.977  19.045  0.00  0.00    +0.000 C 
BRANCH   6   7
ATOM      7  C   UNL     1      -0.070  10.069  20.499  0.00  0.00    +0.000 A 
ATOM      8  C   UNL     1      -0.537  11.291  21.010  0.00  0.00    +0.000 A 
ATOM      9  C   UNL     1      -0.934  11.402  22.345  0.00  0.00    +0.000 A 
ATOM     10  C   UNL     1      -0.864  10.294  23.187  0.00  0.00    +0.000 A 
ATOM     11  C   UNL     1      -0.403   9.075  22.694  0.00  0.00    +0.000 A 
ATOM     12  C   UNL     1      -0.010   8.962  21.359  0.00  0.00    +0.000 A 
ENDBRANCH   6   7
ENDBRANCH   1   6
BRANCH   2  13
ATOM     13  C   UNL     1       3.028   7.541  17.867  0.00  0.00    +0.000 C 
ATOM     14  C   UNL     1       4.230   7.573  17.254  0.00  0.00    +0.000 C 
BRANCH  14  15
ATOM     15  C   UNL     1       5.065   6.377  17.136  0.00  0.00    +0.000 A 
ATOM     16  C   UNL     1       5.849   5.946  18.202  0.00  0.00    +0.000 A 
ATOM     17  C   UNL     1       6.749   4.905  17.988  0.00  0.00    +0.000 A 
ATOM     18  C   UNL     1       6.831   4.327  16.726  0.00  0.00    +0.000 A 
ATOM     19  C   UNL     1       5.998   4.812  15.726  0.00  0.00    +0.000 A 
ATOM     20 BR   UNL     1       6.098   4.033  14.001  0.00  0.00    +0.000 Br
ATOM     21  N   UNL     1       5.120   5.827  15.907  0.00  0.00    +0.000 NA
ENDBRANCH  14  15
BRANCH  13  22
ATOM     22  C   UNL     1       2.536   6.222  18.440  0.00  0.00    +0.000 C 
ATOM     23  N   UNL     1       2.128   5.128  18.916  0.00  0.00    +0.000 NA
ENDBRANCH  13  22
ENDBRANCH   2  13
TORSDOF 5
ENDMDL
MODEL 6
REMARK VINA RESULT:      -7.0      5.425      8.947
REMARK  Name = 
REMARK  6 active torsions:
REMARK  status: ('A' for Active; 'I' for Inactive)
REMARK    1  A    between atoms: C_1  and  C_2
REMARK    2  A    between atoms: C_2  and  N_3
REMARK    3  A    between atoms: C_2  and  C_17
REMARK    4  A    between atoms: C_4  and  C_6
REMARK    5  A    between atoms: C_6  and  C_7
REMARK    6  A    between atoms: C_9  and  C_10
REMARK                            x       y       z     vdW  Elec       q    Type
REMARK                         _______ _______ _______ _____ _____    ______ ____
ROOT
ATOM      1  N   UNL     1       2.071   7.235  18.972  0.00  0.00    +0.000 N 
ATOM      2  C   UNL     1       1.848   8.486  18.449  0.00  0.00    +0.000 C 
ATOM      3  O   UNL     1       2.308   8.849  17.369  0.00  0.00    +0.000 OA
ATOM      4  H   UNL     1       1.577   6.925  19.798  0.00  0.00    +0.000 HD
ENDROOT
BRANCH   1   6
ATOM      5  C   UNL     1       4.274   6.305  18.422  0.00  0.00    +0.000 C 
ATOM      6  C   UNL     1       2.763   6.205  18.205  0.00  0.00    +0.000 C 
BRANCH   6   7
ATOM      7  C   UNL     1       2.240   4.826  18.564  0.00  0.00    +0.000 A 
ATOM      8  C   UNL     1       1.572   4.631  19.785  0.00  0.00    +0.000 A 
ATOM      9  C   UNL     1       1.085   3.371  20.139  0.00  0.00    +0.000 A 
ATOM     10  C   UNL     1       1.262   2.288  19.280  0.00  0.00    +0.000 A 
ATOM     11  C   UNL     1       1.921   2.466  18.065  0.00  0.00    +0.000 A 
ATOM     12  C   UNL     1       2.406   3.726  17.708  0.00  0.00    +0.000 A 
ENDBRANCH   6   7
ENDBRANCH   1   6
BRANCH   2  13
ATOM     13  C   UNL     1       1.037   9.415  19.286  0.00  0.00    +0.000 C 
ATOM     14  C   UNL     1       1.340   9.556  20.593  0.00  0.00    +0.000 C 
BRANCH  14  15
ATOM     15  C   UNL     1       0.564  10.432  21.472  0.00  0.00    +0.000 A 
ATOM     16  C   UNL     1      -0.384   9.908  22.345  0.00  0.00    +0.000 A 
ATOM     17  C   UNL     1      -1.211  10.790  23.037  0.00  0.00    +0.000 A 
ATOM     18  C   UNL     1      -1.060  12.158  22.841  0.00  0.00    +0.000 A 
ATOM     19  C   UNL     1      -0.076  12.590  21.961  0.00  0.00    +0.000 A 
ATOM     20 BR   UNL     1       0.143  14.453  21.685  0.00  0.00    +0.000 Br
ATOM     21  N   UNL     1       0.736  11.754  21.272  0.00  0.00    +0.000 NA
ENDBRANCH  14  15
BRANCH  13  22
ATOM     22  C   UNL     1      -0.146  10.186  18.723  0.00  0.00    +0.000 C 
ATOM     23  N   UNL     1      -1.127  10.825  18.256  0.00  0.00    +0.000 NA
ENDBRANCH  13  22
ENDBRANCH   2  13
TORSDOF 5
ENDMDL
MODEL 7
REMARK VINA RESULT:      -7.0      3.517      5.222
REMARK  Name = 
REMARK  6 active torsions:
REMARK  status: ('A' for Active; 'I' for Inactive)
REMARK    1  A    between atoms: C_1  and  C_2
REMARK    2  A    between atoms: C_2  and  N_3
REMARK    3  A    between atoms: C_2  and  C_17
REMARK    4  A    between atoms: C_4  and  C_6
REMARK    5  A    between atoms: C_6  and  C_7
REMARK    6  A    between atoms: C_9  and  C_10
REMARK                            x       y       z     vdW  Elec       q    Type
REMARK                         _______ _______ _______ _____ _____    ______ ____
ROOT
ATOM      1  N   UNL     1       1.305   8.879  18.946  0.00  0.00    +0.000 N 
ATOM      2  C   UNL     1       2.259   8.829  17.957  0.00  0.00    +0.000 C 
ATOM      3  O   UNL     1       2.433   9.741  17.152  0.00  0.00    +0.000 OA
ATOM      4  H   UNL     1       1.273   8.171  19.667  0.00  0.00    +0.000 HD
ENDROOT
BRANCH   1   6
ATOM      5  C   UNL     1      -0.663  10.152  18.223  0.00  0.00    +0.000 C 
ATOM      6  C   UNL     1       0.523  10.087  19.185  0.00  0.00    +0.000 C 
BRANCH   6   7
ATOM      7  C   UNL     1       0.070  10.155  20.632  0.00  0.00    +0.000 A 
ATOM      8  C   UNL     1       0.379   9.101  21.508  0.00  0.00    +0.000 A 
ATOM      9  C   UNL     1      -0.029   9.140  22.843  0.00  0.00    +0.000 A 
ATOM     10  C   UNL     1      -0.754  10.231  23.319  0.00  0.00    +0.000 A 
ATOM     11  C   UNL     1      -1.067  11.284  22.463  0.00  0.00    +0.000 A 
ATOM     12  C   UNL     1      -0.656  11.249  21.129  0.00  0.00    +0.000 A 
ENDBRANCH   6   7
ENDBRANCH   1   6
BRANCH   2  13
ATOM     13  C   UNL     1       3.066   7.578  17.882  0.00  0.00    +0.000 C 
ATOM     14  C   UNL     1       4.281   7.616  17.296  0.00  0.00    +0.000 C 
BRANCH  14  15
ATOM     15  C   UNL     1       5.109   6.415  17.167  0.00  0.00    +0.000 A 
ATOM     16  C   UNL     1       5.934   6.003  18.208  0.00  0.00    +0.000 A 
ATOM     17  C   UNL     1       6.823   4.955  17.978  0.00  0.00    +0.000 A 
ATOM     18  C   UNL     1       6.853   4.354  16.724  0.00  0.00    +0.000 A 
ATOM     19  C   UNL     1       5.982   4.823  15.750  0.00  0.00    +0.000 A 
ATOM     20 BR   UNL     1       6.011   4.011  14.037  0.00  0.00    +0.000 Br
ATOM     21  N   UNL     1       5.113   5.842  15.946  0.00  0.00    +0.000 NA
ENDBRANCH  14  15
BRANCH  13  22
ATOM     22  C   UNL     1       2.551   6.251  18.413  0.00  0.00    +0.000 C 
ATOM     23  N   UNL     1       2.124   5.150  18.854  0.00  0.00    +0.000 NA
ENDBRANCH  13  22
ENDBRANCH   2  13
TORSDOF 5
ENDMDL
MODEL 8
REMARK VINA RESULT:      -7.0      5.475      9.018
REMARK  Name = 
REMARK  6 active torsions:
REMARK  status: ('A' for Active; 'I' for Inactive)
REMARK    1  A    between atoms: C_1  and  C_2
REMARK    2  A    between atoms: C_2  and  N_3
REMARK    3  A    between atoms: C_2  and  C_17
REMARK    4  A    between atoms: C_4  and  C_6
REMARK    5  A    between atoms: C_6  and  C_7
REMARK    6  A    between atoms: C_9  and  C_10
REMARK                            x       y       z     vdW  Elec       q    Type
REMARK                         _______ _______ _______ _____ _____    ______ ____
ROOT
ATOM      1  N   UNL     1       2.217   7.295  19.150  0.00  0.00    +0.000 N 
ATOM      2  C   UNL     1       1.851   8.469  18.536  0.00  0.00    +0.000 C 
ATOM      3  O   UNL     1       2.182   8.753  17.388  0.00  0.00    +0.000 OA
ATOM      4  H   UNL     1       1.824   7.035  20.045  0.00  0.00    +0.000 HD
ENDROOT
BRANCH   1   6
ATOM      5  C   UNL     1       4.409   6.265  18.755  0.00  0.00    +0.000 C 
ATOM      6  C   UNL     1       2.917   6.244  18.419  0.00  0.00    +0.000 C 
BRANCH   6   7
ATOM      7  C   UNL     1       2.301   4.887  18.708  0.00  0.00    +0.000 A 
ATOM      8  C   UNL     1       2.430   3.850  17.769  0.00  0.00    +0.000 A 
ATOM      9  C   UNL     1       1.870   2.594  18.011  0.00  0.00    +0.000 A 
ATOM     10  C   UNL     1       1.170   2.359  19.193  0.00  0.00    +0.000 A 
ATOM     11  C   UNL     1       1.034   3.376  20.134  0.00  0.00    +0.000 A 
ATOM     12  C   UNL     1       1.598   4.632  19.896  0.00  0.00    +0.000 A 
ENDBRANCH   6   7
ENDBRANCH   1   6
BRANCH   2  13
ATOM     13  C   UNL     1       1.046   9.418  19.357  0.00  0.00    +0.000 C 
ATOM     14  C   UNL     1       1.285   9.505  20.682  0.00  0.00    +0.000 C 
BRANCH  14  15
ATOM     15  C   UNL     1       0.510  10.398  21.545  0.00  0.00    +0.000 A 
ATOM     16  C   UNL     1      -0.428   9.890  22.438  0.00  0.00    +0.000 A 
ATOM     17  C   UNL     1      -1.255  10.785  23.114  0.00  0.00    +0.000 A 
ATOM     18  C   UNL     1      -1.112  12.149  22.884  0.00  0.00    +0.000 A 
ATOM     19  C   UNL     1      -0.137  12.564  21.986  0.00  0.00    +0.000 A 
ATOM     20 BR   UNL     1       0.069  14.421  21.663  0.00  0.00    +0.000 Br
ATOM     21  N   UNL     1       0.674  11.716  21.312  0.00  0.00    +0.000 NA
ENDBRANCH  14  15
BRANCH  13  22
ATOM     22  C   UNL     1      -0.061  10.269  18.756  0.00  0.00    +0.000 C 
ATOM     23  N   UNL     1      -0.979  10.975  18.259  0.00  0.00    +0.000 NA
ENDBRANCH  13  22
ENDBRANCH   2  13
TORSDOF 5
ENDMDL
MODEL 9
REMARK VINA RESULT:      -7.0      2.852      5.002
REMARK  Name = 
REMARK  6 active torsions:
REMARK  status: ('A' for Active; 'I' for Inactive)
REMARK    1  A    between atoms: C_1  and  C_2
REMARK    2  A    between atoms: C_2  and  N_3
REMARK    3  A    between atoms: C_2  and  C_17
REMARK    4  A    between atoms: C_4  and  C_6
REMARK    5  A    between atoms: C_6  and  C_7
REMARK    6  A    between atoms: C_9  and  C_10
REMARK                            x       y       z     vdW  Elec       q    Type
REMARK                         _______ _______ _______ _____ _____    ______ ____
ROOT
ATOM      1  N   UNL     1       2.225   7.358  20.625  0.00  0.00    +0.000 N 
ATOM      2  C   UNL     1       2.081   6.011  20.391  0.00  0.00    +0.000 C 
ATOM      3  O   UNL     1       1.085   5.378  20.733  0.00  0.00    +0.000 OA
ATOM      4  H   UNL     1       2.996   7.872  20.221  0.00  0.00    +0.000 HD
ENDROOT
BRANCH   1   6
ATOM      5  C   UNL     1       1.599   8.888  22.438  0.00  0.00    +0.000 C 
ATOM      6  C   UNL     1       1.135   8.152  21.181  0.00  0.00    +0.000 C 
BRANCH   6   7
ATOM      7  C   UNL     1       0.589   9.115  20.142  0.00  0.00    +0.000 A 
ATOM      8  C   UNL     1       1.202   9.199  18.881  0.00  0.00    +0.000 A 
ATOM      9  C   UNL     1       0.720  10.079  17.909  0.00  0.00    +0.000 A 
ATOM     10  C   UNL     1      -0.378  10.890  18.187  0.00  0.00    +0.000 A 
ATOM     11  C   UNL     1      -0.998  10.819  19.433  0.00  0.00    +0.000 A 
ATOM     12  C   UNL     1      -0.520   9.936  20.404  0.00  0.00    +0.000 A 
ENDBRANCH   6   7
ENDBRANCH   1   6
BRANCH   2  13
ATOM     13  C   UNL     1       3.226   5.332  19.722  0.00  0.00    +0.000 C 
ATOM     14  C   UNL     1       4.045   6.055  18.930  0.00  0.00    +0.000 C 
BRANCH  14  15
ATOM     15  C   UNL     1       5.171   5.440  18.224  0.00  0.00    +0.000 A 
ATOM     16  C   UNL     1       6.418   5.328  18.830  0.00  0.00    +0.000 A 
ATOM     17  C   UNL     1       7.494   4.890  18.062  0.00  0.00    +0.000 A 
ATOM     18  C   UNL     1       7.289   4.574  16.724  0.00  0.00    +0.000 A 
ATOM     19  C   UNL     1       6.006   4.701  16.208  0.00  0.00    +0.000 A 
ATOM     20 BR   UNL     1       5.711   4.271  14.385  0.00  0.00    +0.000 Br
ATOM     21  N   UNL     1       4.945   5.130  16.932  0.00  0.00    +0.000 NA
ENDBRANCH  14  15
BRANCH  13  22
ATOM     22  C   UNL     1       3.483   3.842  19.873  0.00  0.00    +0.000 C 
ATOM     23  N   UNL     1       3.696   2.606  19.998  0.00  0.00    +0.000 NA
ENDBRANCH  13  22
ENDBRANCH   2  13
TORSDOF 5
ENDMDL
