MODEL 1
REMARK VINA RESULT:      -6.7      0.000      0.000
REMARK  Name = 
REMARK  13 active torsions:
REMARK  status: ('A' for Active; 'I' for Inactive)
REMARK    1  A    between atoms: C_1  and  C_2
REMARK    2  A    between atoms: C_2  and  C_3
REMARK    3  A    between atoms: C_3  and  C_4
REMARK    4  A    between atoms: C_4  and  C_5
REMARK    5  A    between atoms: C_5  and  C_6
REMARK    6  A    between atoms: C_6  and  C_7
REMARK    7  A    between atoms: C_12  and  C_13
REMARK    8  A    between atoms: C_13  and  C_14
REMARK    9  A    between atoms: C_14  and  C_15
REMARK   10  A    between atoms: C_15  and  C_16
REMARK   11  A    between atoms: C_16  and  C_17
REMARK   12  A    between atoms: C_17  and  C_18
REMARK   13  A    between atoms: C_18  and  C_20
REMARK                            x       y       z     vdW  Elec       q    Type
REMARK                         _______ _______ _______ _____ _____    ______ ____
ROOT
ATOM      1  C   UNL     1       5.933   5.578  16.517  0.00  0.00    +0.000 A 
ATOM      2  C   UNL     1       7.124   4.858  16.757  0.00  0.00    +0.000 A 
ATOM      3  C   UNL     1       7.651   4.702  18.028  0.00  0.00    +0.000 A 
ATOM      4  C   UNL     1       6.998   5.268  19.113  0.00  0.00    +0.000 A 
ATOM      5  C   UNL     1       5.835   5.997  18.905  0.00  0.00    +0.000 A 
ATOM      6  C   UNL     1       5.269   6.172  17.625  0.00  0.00    +0.000 A 
ENDROOT
BRANCH   1   7
ATOM      7  C   UNL     1       5.519   5.660  15.062  0.00  0.00    +0.000 C 
BRANCH   7   8
ATOM      8  C   UNL     1       6.351   4.801  14.114  0.00  0.00    +0.000 C 
BRANCH   8   9
ATOM      9  C   UNL     1       5.494   3.733  13.428  0.00  0.00    +0.000 C 
BRANCH   9  10
ATOM     10  C   UNL     1       6.258   3.068  12.291  0.00  0.00    +0.000 C 
BRANCH  10  12
ATOM     11  C   UNL     1       3.990   3.148  11.224  0.00  0.00    +0.000 C 
ATOM     12  C   UNL     1       5.304   2.388  11.313  0.00  0.00    +0.000 C 
ENDBRANCH  10  12
ENDBRANCH   9  10
ENDBRANCH   8   9
ENDBRANCH   7   8
ENDBRANCH   1   7
BRANCH   6  13
ATOM     13  C   UNL     1       4.037   7.055  17.593  0.00  0.00    +0.000 C 
BRANCH  13  14
ATOM     14  C   UNL     1       2.726   6.447  18.054  0.00  0.00    +0.000 C 
BRANCH  14  15
ATOM     15  C   UNL     1       2.436   6.428  19.560  0.00  0.00    +0.000 C 
BRANCH  15  16
ATOM     16  C   UNL     1       2.089   4.975  19.904  0.00  0.00    +0.000 C 
BRANCH  16  17
ATOM     17  C   UNL     1       1.601   4.163  18.722  0.00  0.00    +0.000 C 
BRANCH  17  18
ATOM     18  C   UNL     1       2.175   2.757  18.738  0.00  0.00    +0.000 C 
ATOM     19  O   UNL     1       1.612   1.811  19.307  0.00  0.00    +0.000 OA
BRANCH  18  20
ATOM     20  C   UNL     1       3.509   2.608  18.004  0.00  0.00    +0.000 C 
ATOM     21  F   UNL     1       3.556   3.372  16.877  0.00  0.00    +0.000 F 
ATOM     22  F   UNL     1       4.563   2.989  18.765  0.00  0.00    +0.000 F 
ATOM     23  F   UNL     1       3.743   1.330  17.604  0.00  0.00    +0.000 F 
ENDBRANCH  18  20
ENDBRANCH  17  18
ENDBRANCH  16  17
ENDBRANCH  15  16
ENDBRANCH  14  15
ENDBRANCH  13  14
ENDBRANCH   6  13
TORSDOF 12
ENDMDL
MODEL 2
REMARK VINA RESULT:      -6.5      2.082      2.539
REMARK  Name = 
REMARK  13 active torsions:
REMARK  status: ('A' for Active; 'I' for Inactive)
REMARK    1  A    between atoms: C_1  and  C_2
REMARK    2  A    between atoms: C_2  and  C_3
REMARK    3  A    between atoms: C_3  and  C_4
REMARK    4  A    between atoms: C_4  and  C_5
REMARK    5  A    between atoms: C_5  and  C_6
REMARK    6  A    between atoms: C_6  and  C_7
REMARK    7  A    between atoms: C_12  and  C_13
REMARK    8  A    between atoms: C_13  and  C_14
REMARK    9  A    between atoms: C_14  and  C_15
REMARK   10  A    between atoms: C_15  and  C_16
REMARK   11  A    between atoms: C_16  and  C_17
REMARK   12  A    between atoms: C_17  and  C_18
REMARK   13  A    between atoms: C_18  and  C_20
REMARK                            x       y       z     vdW  Elec       q    Type
REMARK                         _______ _______ _______ _____ _____    ______ ____
ROOT
ATOM      1  C   UNL     1       5.911   5.597  16.768  0.00  0.00    +0.000 A 
ATOM      2  C   UNL     1       7.283   5.661  17.093  0.00  0.00    +0.000 A 
ATOM      3  C   UNL     1       7.738   5.590  18.400  0.00  0.00    +0.000 A 
ATOM      4  C   UNL     1       6.825   5.452  19.435  0.00  0.00    +0.000 A 
ATOM      5  C   UNL     1       5.468   5.405  19.145  0.00  0.00    +0.000 A 
ATOM      6  C   UNL     1       4.971   5.470  17.827  0.00  0.00    +0.000 A 
ENDROOT
BRANCH   1   7
ATOM      7  C   UNL     1       5.600   5.711  15.289  0.00  0.00    +0.000 C 
BRANCH   7   8
ATOM      8  C   UNL     1       5.313   4.382  14.595  0.00  0.00    +0.000 C 
BRANCH   8   9
ATOM      9  C   UNL     1       6.563   3.827  13.907  0.00  0.00    +0.000 C 
BRANCH   9  10
ATOM     10  C   UNL     1       6.399   3.830  12.393  0.00  0.00    +0.000 C 
BRANCH  10  12
ATOM     11  C   UNL     1       4.218   3.248  11.300  0.00  0.00    +0.000 C 
ATOM     12  C   UNL     1       5.483   2.696  11.938  0.00  0.00    +0.000 C 
ENDBRANCH  10  12
ENDBRANCH   9  10
ENDBRANCH   8   9
ENDBRANCH   7   8
ENDBRANCH   1   7
BRANCH   6  13
ATOM     13  C   UNL     1       3.458   5.472  17.720  0.00  0.00    +0.000 C 
BRANCH  13  14
ATOM     14  C   UNL     1       2.799   4.259  17.091  0.00  0.00    +0.000 C 
BRANCH  14  15
ATOM     15  C   UNL     1       1.580   3.658  17.803  0.00  0.00    +0.000 C 
BRANCH  15  16
ATOM     16  C   UNL     1       1.907   2.176  18.018  0.00  0.00    +0.000 C 
BRANCH  16  17
ATOM     17  C   UNL     1       1.771   1.718  19.456  0.00  0.00    +0.000 C 
BRANCH  17  18
ATOM     18  C   UNL     1       2.582   2.592  20.397  0.00  0.00    +0.000 C 
ATOM     19  O   UNL     1       3.820   2.632  20.373  0.00  0.00    +0.000 OA
BRANCH  18  20
ATOM     20  C   UNL     1       1.744   3.411  21.381  0.00  0.00    +0.000 C 
ATOM     21  F   UNL     1       0.726   4.068  20.758  0.00  0.00    +0.000 F 
ATOM     22  F   UNL     1       1.171   2.642  22.337  0.00  0.00    +0.000 F 
ATOM     23  F   UNL     1       2.475   4.366  22.017  0.00  0.00    +0.000 F 
ENDBRANCH  18  20
ENDBRANCH  17  18
ENDBRANCH  16  17
ENDBRANCH  15  16
ENDBRANCH  14  15
ENDBRANCH  13  14
ENDBRANCH   6  13
TORSDOF 12
ENDMDL
MODEL 3
REMARK VINA RESULT:      -6.5      1.916      2.643
REMARK  Name = 
REMARK  13 active torsions:
REMARK  status: ('A' for Active; 'I' for Inactive)
REMARK    1  A    between atoms: C_1  and  C_2
REMARK    2  A    between atoms: C_2  and  C_3
REMARK    3  A    between atoms: C_3  and  C_4
REMARK    4  A    between atoms: C_4  and  C_5
REMARK    5  A    between atoms: C_5  and  C_6
REMARK    6  A    between atoms: C_6  and  C_7
REMARK    7  A    between atoms: C_12  and  C_13
REMARK    8  A    between atoms: C_13  and  C_14
REMARK    9  A    between atoms: C_14  and  C_15
REMARK   10  A    between atoms: C_15  and  C_16
REMARK   11  A    between atoms: C_16  and  C_17
REMARK   12  A    between atoms: C_17  and  C_18
REMARK   13  A    between atoms: C_18  and  C_20
REMARK                            x       y       z     vdW  Elec       q    Type
REMARK                         _______ _______ _______ _____ _____    ______ ____
ROOT
ATOM      1  C   UNL     1       6.091   5.317  16.622  0.00  0.00    +0.000 A 
ATOM      2  C   UNL     1       7.162   6.191  16.909  0.00  0.00    +0.000 A 
ATOM      3  C   UNL     1       7.664   6.351  18.190  0.00  0.00    +0.000 A 
ATOM      4  C   UNL     1       7.104   5.635  19.238  0.00  0.00    +0.000 A 
ATOM      5  C   UNL     1       6.037   4.782  18.988  0.00  0.00    +0.000 A 
ATOM      6  C   UNL     1       5.505   4.592  17.696  0.00  0.00    +0.000 A 
ENDROOT
BRANCH   1   7
ATOM      7  C   UNL     1       5.665   5.286  15.169  0.00  0.00    +0.000 C 
BRANCH   7   8
ATOM      8  C   UNL     1       5.880   3.947  14.470  0.00  0.00    +0.000 C 
BRANCH   8   9
ATOM      9  C   UNL     1       6.928   4.055  13.360  0.00  0.00    +0.000 C 
BRANCH   9  10
ATOM     10  C   UNL     1       6.280   3.955  11.986  0.00  0.00    +0.000 C 
BRANCH  10  12
ATOM     11  C   UNL     1       4.043   3.188  11.150  0.00  0.00    +0.000 C 
ATOM     12  C   UNL     1       5.288   2.796  11.929  0.00  0.00    +0.000 C 
ENDBRANCH  10  12
ENDBRANCH   9  10
ENDBRANCH   8   9
ENDBRANCH   7   8
ENDBRANCH   1   7
BRANCH   6  13
ATOM     13  C   UNL     1       4.300   3.674  17.636  0.00  0.00    +0.000 C 
BRANCH  13  14
ATOM     14  C   UNL     1       4.173   2.613  18.712  0.00  0.00    +0.000 C 
BRANCH  14  15
ATOM     15  C   UNL     1       2.911   1.741  18.712  0.00  0.00    +0.000 C 
BRANCH  15  16
ATOM     16  C   UNL     1       1.801   2.607  18.108  0.00  0.00    +0.000 C 
BRANCH  16  17
ATOM     17  C   UNL     1       0.676   2.926  19.072  0.00  0.00    +0.000 C 
BRANCH  17  18
ATOM     18  C   UNL     1       1.204   3.521  20.364  0.00  0.00    +0.000 C 
ATOM     19  O   UNL     1       1.155   2.921  21.448  0.00  0.00    +0.000 OA
BRANCH  18  20
ATOM     20  C   UNL     1       1.792   4.927  20.221  0.00  0.00    +0.000 C 
ATOM     21  F   UNL     1       1.074   5.851  20.919  0.00  0.00    +0.000 F 
ATOM     22  F   UNL     1       3.062   5.004  20.685  0.00  0.00    +0.000 F 
ATOM     23  F   UNL     1       1.806   5.356  18.931  0.00  0.00    +0.000 F 
ENDBRANCH  18  20
ENDBRANCH  17  18
ENDBRANCH  16  17
ENDBRANCH  15  16
ENDBRANCH  14  15
ENDBRANCH  13  14
ENDBRANCH   6  13
TORSDOF 12
ENDMDL
MODEL 4
REMARK VINA RESULT:      -6.4      1.892      2.227
REMARK  Name = 
REMARK  13 active torsions:
REMARK  status: ('A' for Active; 'I' for Inactive)
REMARK    1  A    between atoms: C_1  and  C_2
REMARK    2  A    between atoms: C_2  and  C_3
REMARK    3  A    between atoms: C_3  and  C_4
REMARK    4  A    between atoms: C_4  and  C_5
REMARK    5  A    between atoms: C_5  and  C_6
REMARK    6  A    between atoms: C_6  and  C_7
REMARK    7  A    between atoms: C_12  and  C_13
REMARK    8  A    between atoms: C_13  and  C_14
REMARK    9  A    between atoms: C_14  and  C_15
REMARK   10  A    between atoms: C_15  and  C_16
REMARK   11  A    between atoms: C_16  and  C_17
REMARK   12  A    between atoms: C_17  and  C_18
REMARK   13  A    between atoms: C_18  and  C_20
REMARK                            x       y       z     vdW  Elec       q    Type
REMARK                         _______ _______ _______ _____ _____    ______ ____
ROOT
ATOM      1  C   UNL     1       6.393   4.381  16.807  0.00  0.00    +0.000 A 
ATOM      2  C   UNL     1       7.698   4.556  17.315  0.00  0.00    +0.000 A 
ATOM      3  C   UNL     1       7.945   5.187  18.523  0.00  0.00    +0.000 A 
ATOM      4  C   UNL     1       6.881   5.669  19.271  0.00  0.00    +0.000 A 
ATOM      5  C   UNL     1       5.587   5.527  18.788  0.00  0.00    +0.000 A 
ATOM      6  C   UNL     1       5.301   4.887  17.564  0.00  0.00    +0.000 A 
ENDROOT
BRANCH   1   7
ATOM      7  C   UNL     1       6.319   3.686  15.463  0.00  0.00    +0.000 C 
BRANCH   7   8
ATOM      8  C   UNL     1       6.010   4.608  14.286  0.00  0.00    +0.000 C 
BRANCH   8   9
ATOM      9  C   UNL     1       6.870   4.266  13.067  0.00  0.00    +0.000 C 
BRANCH   9  10
ATOM     10  C   UNL     1       6.136   3.314  12.131  0.00  0.00    +0.000 C 
BRANCH  10  12
ATOM     11  C   UNL     1       3.919   3.073  10.984  0.00  0.00    +0.000 C 
ATOM     12  C   UNL     1       4.623   3.461  12.275  0.00  0.00    +0.000 C 
ENDBRANCH  10  12
ENDBRANCH   9  10
ENDBRANCH   8   9
ENDBRANCH   7   8
ENDBRANCH   1   7
BRANCH   6  13
ATOM     13  C   UNL     1       3.835   4.891  17.175  0.00  0.00    +0.000 C 
BRANCH  13  14
ATOM     14  C   UNL     1       2.936   5.913  17.844  0.00  0.00    +0.000 C 
BRANCH  14  15
ATOM     15  C   UNL     1       1.767   5.393  18.690  0.00  0.00    +0.000 C 
BRANCH  15  16
ATOM     16  C   UNL     1       1.349   4.061  18.058  0.00  0.00    +0.000 C 
BRANCH  16  17
ATOM     17  C   UNL     1       1.028   2.976  19.066  0.00  0.00    +0.000 C 
BRANCH  17  18
ATOM     18  C   UNL     1       2.279   2.488  19.775  0.00  0.00    +0.000 C 
ATOM     19  O   UNL     1       3.195   1.896  19.187  0.00  0.00    +0.000 OA
BRANCH  18  20
ATOM     20  C   UNL     1       2.310   2.779  21.277  0.00  0.00    +0.000 C 
ATOM     21  F   UNL     1       1.161   2.388  21.894  0.00  0.00    +0.000 F 
ATOM     22  F   UNL     1       3.319   2.131  21.907  0.00  0.00    +0.000 F 
ATOM     23  F   UNL     1       2.451   4.104  21.547  0.00  0.00    +0.000 F 
ENDBRANCH  18  20
ENDBRANCH  17  18
ENDBRANCH  16  17
ENDBRANCH  15  16
ENDBRANCH  14  15
ENDBRANCH  13  14
ENDBRANCH   6  13
TORSDOF 12
ENDMDL
MODEL 5
REMARK VINA RESULT:      -6.4      3.182      6.240
REMARK  Name = 
REMARK  13 active torsions:
REMARK  status: ('A' for Active; 'I' for Inactive)
REMARK    1  A    between atoms: C_1  and  C_2
REMARK    2  A    between atoms: C_2  and  C_3
REMARK    3  A    between atoms: C_3  and  C_4
REMARK    4  A    between atoms: C_4  and  C_5
REMARK    5  A    between atoms: C_5  and  C_6
REMARK    6  A    between atoms: C_6  and  C_7
REMARK    7  A    between atoms: C_12  and  C_13
REMARK    8  A    between atoms: C_13  and  C_14
REMARK    9  A    between atoms: C_14  and  C_15
REMARK   10  A    between atoms: C_15  and  C_16
REMARK   11  A    between atoms: C_16  and  C_17
REMARK   12  A    between atoms: C_17  and  C_18
REMARK   13  A    between atoms: C_18  and  C_20
REMARK                            x       y       z     vdW  Elec       q    Type
REMARK                         _______ _______ _______ _____ _____    ______ ____
ROOT
ATOM      1  C   UNL     1       2.308   6.548  19.691  0.00  0.00    +0.000 A 
ATOM      2  C   UNL     1       1.587   7.743  19.903  0.00  0.00    +0.000 A 
ATOM      3  C   UNL     1       1.656   8.815  19.029  0.00  0.00    +0.000 A 
ATOM      4  C   UNL     1       2.459   8.727  17.902  0.00  0.00    +0.000 A 
ATOM      5  C   UNL     1       3.194   7.571  17.677  0.00  0.00    +0.000 A 
ATOM      6  C   UNL     1       3.144   6.460  18.544  0.00  0.00    +0.000 A 
ENDROOT
BRANCH   1   7
ATOM      7  C   UNL     1       2.124   5.493  20.761  0.00  0.00    +0.000 C 
BRANCH   7   8
ATOM      8  C   UNL     1       0.967   4.529  20.513  0.00  0.00    +0.000 C 
BRANCH   8   9
ATOM      9  C   UNL     1       1.418   3.305  19.712  0.00  0.00    +0.000 C 
BRANCH   9  10
ATOM     10  C   UNL     1       2.370   2.440  20.527  0.00  0.00    +0.000 C 
BRANCH  10  12
ATOM     11  C   UNL     1       3.580   1.409  18.587  0.00  0.00    +0.000 C 
ATOM     12  C   UNL     1       3.715   2.288  19.821  0.00  0.00    +0.000 C 
ENDBRANCH  10  12
ENDBRANCH   9  10
ENDBRANCH   8   9
ENDBRANCH   7   8
ENDBRANCH   1   7
BRANCH   6  13
ATOM     13  C   UNL     1       4.069   5.319  18.165  0.00  0.00    +0.000 C 
BRANCH  13  14
ATOM     14  C   UNL     1       3.749   4.548  16.898  0.00  0.00    +0.000 C 
BRANCH  14  15
ATOM     15  C   UNL     1       4.917   4.168  15.979  0.00  0.00    +0.000 C 
BRANCH  15  16
ATOM     16  C   UNL     1       5.621   5.482  15.625  0.00  0.00    +0.000 C 
BRANCH  16  17
ATOM     17  C   UNL     1       7.068   5.544  16.070  0.00  0.00    +0.000 C 
BRANCH  17  18
ATOM     18  C   UNL     1       7.263   6.552  17.189  0.00  0.00    +0.000 C 
ATOM     19  O   UNL     1       7.107   7.771  17.027  0.00  0.00    +0.000 OA
BRANCH  18  20
ATOM     20  C   UNL     1       7.678   5.940  18.528  0.00  0.00    +0.000 C 
ATOM     21  F   UNL     1       8.620   6.693  19.161  0.00  0.00    +0.000 F 
ATOM     22  F   UNL     1       6.638   5.831  19.390  0.00  0.00    +0.000 F 
ATOM     23  F   UNL     1       8.217   4.699  18.389  0.00  0.00    +0.000 F 
ENDBRANCH  18  20
ENDBRANCH  17  18
ENDBRANCH  16  17
ENDBRANCH  15  16
ENDBRANCH  14  15
ENDBRANCH  13  14
ENDBRANCH   6  13
TORSDOF 12
ENDMDL
MODEL 6
REMARK VINA RESULT:      -6.3      3.016      5.315
REMARK  Name = 
REMARK  13 active torsions:
REMARK  status: ('A' for Active; 'I' for Inactive)
REMARK    1  A    between atoms: C_1  and  C_2
REMARK    2  A    between atoms: C_2  and  C_3
REMARK    3  A    between atoms: C_3  and  C_4
REMARK    4  A    between atoms: C_4  and  C_5
REMARK    5  A    between atoms: C_5  and  C_6
REMARK    6  A    between atoms: C_6  and  C_7
REMARK    7  A    between atoms: C_12  and  C_13
REMARK    8  A    between atoms: C_13  and  C_14
REMARK    9  A    between atoms: C_14  and  C_15
REMARK   10  A    between atoms: C_15  and  C_16
REMARK   11  A    between atoms: C_16  and  C_17
REMARK   12  A    between atoms: C_17  and  C_18
REMARK   13  A    between atoms: C_18  and  C_20
REMARK                            x       y       z     vdW  Elec       q    Type
REMARK                         _______ _______ _______ _____ _____    ______ ____
ROOT
ATOM      1  C   UNL     1       6.831   5.595  17.305  0.00  0.00    +0.000 A 
ATOM      2  C   UNL     1       7.279   5.529  15.968  0.00  0.00    +0.000 A 
ATOM      3  C   UNL     1       6.706   4.676  15.038  0.00  0.00    +0.000 A 
ATOM      4  C   UNL     1       5.657   3.854  15.419  0.00  0.00    +0.000 A 
ATOM      5  C   UNL     1       5.208   3.886  16.733  0.00  0.00    +0.000 A 
ATOM      6  C   UNL     1       5.765   4.744  17.704  0.00  0.00    +0.000 A 
ENDROOT
BRANCH   1   7
ATOM      7  C   UNL     1       7.589   6.570  18.183  0.00  0.00    +0.000 C 
BRANCH   7   8
ATOM      8  C   UNL     1       7.761   7.964  17.586  0.00  0.00    +0.000 C 
BRANCH   8   9
ATOM      9  C   UNL     1       8.499   8.898  18.548  0.00  0.00    +0.000 C 
BRANCH   9  10
ATOM     10  C   UNL     1       8.782  10.244  17.893  0.00  0.00    +0.000 C 
BRANCH  10  12
ATOM     11  C   UNL     1       9.533  10.742  20.233  0.00  0.00    +0.000 C 
ATOM     12  C   UNL     1       9.700  11.097  18.764  0.00  0.00    +0.000 C 
ENDBRANCH  10  12
ENDBRANCH   9  10
ENDBRANCH   8   9
ENDBRANCH   7   8
ENDBRANCH   1   7
BRANCH   6  13
ATOM     13  C   UNL     1       5.187   4.584  19.096  0.00  0.00    +0.000 C 
BRANCH  13  14
ATOM     14  C   UNL     1       4.104   5.558  19.522  0.00  0.00    +0.000 C 
BRANCH  14  15
ATOM     15  C   UNL     1       3.135   6.064  18.446  0.00  0.00    +0.000 C 
BRANCH  15  16
ATOM     16  C   UNL     1       1.961   5.080  18.439  0.00  0.00    +0.000 C 
BRANCH  16  17
ATOM     17  C   UNL     1       1.378   4.809  19.812  0.00  0.00    +0.000 C 
BRANCH  17  18
ATOM     18  C   UNL     1       1.356   3.323  20.123  0.00  0.00    +0.000 C 
ATOM     19  O   UNL     1       0.719   2.506  19.443  0.00  0.00    +0.000 OA
BRANCH  18  20
ATOM     20  C   UNL     1       2.177   2.919  21.349  0.00  0.00    +0.000 C 
ATOM     21  F   UNL     1       3.402   2.433  21.003  0.00  0.00    +0.000 F 
ATOM     22  F   UNL     1       2.404   3.961  22.184  0.00  0.00    +0.000 F 
ATOM     23  F   UNL     1       1.576   1.941  22.079  0.00  0.00    +0.000 F 
ENDBRANCH  18  20
ENDBRANCH  17  18
ENDBRANCH  16  17
ENDBRANCH  15  16
ENDBRANCH  14  15
ENDBRANCH  13  14
ENDBRANCH   6  13
TORSDOF 12
ENDMDL
MODEL 7
REMARK VINA RESULT:      -6.3      1.349      1.626
REMARK  Name = 
REMARK  13 active torsions:
REMARK  status: ('A' for Active; 'I' for Inactive)
REMARK    1  A    between atoms: C_1  and  C_2
REMARK    2  A    between atoms: C_2  and  C_3
REMARK    3  A    between atoms: C_3  and  C_4
REMARK    4  A    between atoms: C_4  and  C_5
REMARK    5  A    between atoms: C_5  and  C_6
REMARK    6  A    between atoms: C_6  and  C_7
REMARK    7  A    between atoms: C_12  and  C_13
REMARK    8  A    between atoms: C_13  and  C_14
REMARK    9  A    between atoms: C_14  and  C_15
REMARK   10  A    between atoms: C_15  and  C_16
REMARK   11  A    between atoms: C_16  and  C_17
REMARK   12  A    between atoms: C_17  and  C_18
REMARK   13  A    between atoms: C_18  and  C_20
REMARK                            x       y       z     vdW  Elec       q    Type
REMARK                         _______ _______ _______ _____ _____    ______ ____
ROOT
ATOM      1  C   UNL     1       5.948   4.916  16.402  0.00  0.00    +0.000 A 
ATOM      2  C   UNL     1       7.242   4.554  16.833  0.00  0.00    +0.000 A 
ATOM      3  C   UNL     1       7.719   4.874  18.093  0.00  0.00    +0.000 A 
ATOM      4  C   UNL     1       6.908   5.575  18.973  0.00  0.00    +0.000 A 
ATOM      5  C   UNL     1       5.637   5.960  18.570  0.00  0.00    +0.000 A 
ATOM      6  C   UNL     1       5.118   5.647  17.296  0.00  0.00    +0.000 A 
ENDROOT
BRANCH   1   7
ATOM      7  C   UNL     1       5.607   4.498  14.986  0.00  0.00    +0.000 C 
BRANCH   7   8
ATOM      8  C   UNL     1       6.814   4.253  14.086  0.00  0.00    +0.000 C 
BRANCH   8   9
ATOM      9  C   UNL     1       6.400   3.631  12.750  0.00  0.00    +0.000 C 
BRANCH   9  10
ATOM     10  C   UNL     1       4.884   3.578  12.619  0.00  0.00    +0.000 C 
BRANCH  10  12
ATOM     11  C   UNL     1       3.137   2.969  10.926  0.00  0.00    +0.000 C 
ATOM     12  C   UNL     1       4.454   3.691  11.158  0.00  0.00    +0.000 C 
ENDBRANCH  10  12
ENDBRANCH   9  10
ENDBRANCH   8   9
ENDBRANCH   7   8
ENDBRANCH   1   7
BRANCH   6  13
ATOM     13  C   UNL     1       3.739   6.212  17.017  0.00  0.00    +0.000 C 
BRANCH  13  14
ATOM     14  C   UNL     1       2.625   5.846  17.979  0.00  0.00    +0.000 C 
BRANCH  14  15
ATOM     15  C   UNL     1       2.128   4.395  17.980  0.00  0.00    +0.000 C 
BRANCH  15  16
ATOM     16  C   UNL     1       1.489   4.169  19.354  0.00  0.00    +0.000 C 
BRANCH  16  17
ATOM     17  C   UNL     1       1.610   2.747  19.863  0.00  0.00    +0.000 C 
BRANCH  17  18
ATOM     18  C   UNL     1       2.781   2.596  20.818  0.00  0.00    +0.000 C 
ATOM     19  O   UNL     1       2.672   2.760  22.041  0.00  0.00    +0.000 OA
BRANCH  18  20
ATOM     20  C   UNL     1       4.106   2.234  20.144  0.00  0.00    +0.000 C 
ATOM     21  F   UNL     1       4.769   3.339  19.703  0.00  0.00    +0.000 F 
ATOM     22  F   UNL     1       4.953   1.593  20.984  0.00  0.00    +0.000 F 
ATOM     23  F   UNL     1       3.936   1.436  19.056  0.00  0.00    +0.000 F 
ENDBRANCH  18  20
ENDBRANCH  17  18
ENDBRANCH  16  17
ENDBRANCH  15  16
ENDBRANCH  14  15
ENDBRANCH  13  14
ENDBRANCH   6  13
TORSDOF 12
ENDMDL
MODEL 8
REMARK VINA RESULT:      -6.2      2.745      5.068
REMARK  Name = 
REMARK  13 active torsions:
REMARK  status: ('A' for Active; 'I' for Inactive)
REMARK    1  A    between atoms: C_1  and  C_2
REMARK    2  A    between atoms: C_2  and  C_3
REMARK    3  A    between atoms: C_3  and  C_4
REMARK    4  A    between atoms: C_4  and  C_5
REMARK    5  A    between atoms: C_5  and  C_6
REMARK    6  A    between atoms: C_6  and  C_7
REMARK    7  A    between atoms: C_12  and  C_13
REMARK    8  A    between atoms: C_13  and  C_14
REMARK    9  A    between atoms: C_14  and  C_15
REMARK   10  A    between atoms: C_15  and  C_16
REMARK   11  A    between atoms: C_16  and  C_17
REMARK   12  A    between atoms: C_17  and  C_18
REMARK   13  A    between atoms: C_18  and  C_20
REMARK                            x       y       z     vdW  Elec       q    Type
REMARK                         _______ _______ _______ _____ _____    ______ ____
ROOT
ATOM      1  C   UNL     1       6.682   5.914  17.090  0.00  0.00    +0.000 A 
ATOM      2  C   UNL     1       7.413   4.825  16.567  0.00  0.00    +0.000 A 
ATOM      3  C   UNL     1       6.879   3.956  15.629  0.00  0.00    +0.000 A 
ATOM      4  C   UNL     1       5.582   4.150  15.179  0.00  0.00    +0.000 A 
ATOM      5  C   UNL     1       4.833   5.202  15.689  0.00  0.00    +0.000 A 
ATOM      6  C   UNL     1       5.347   6.108  16.641  0.00  0.00    +0.000 A 
ENDROOT
BRANCH   1   7
ATOM      7  C   UNL     1       7.421   6.743  18.119  0.00  0.00    +0.000 C 
BRANCH   7   8
ATOM      8  C   UNL     1       7.818   8.139  17.646  0.00  0.00    +0.000 C 
BRANCH   8   9
ATOM      9  C   UNL     1       8.706   8.847  18.673  0.00  0.00    +0.000 C 
BRANCH   9  10
ATOM     10  C   UNL     1       8.950  10.297  18.275  0.00  0.00    +0.000 C 
BRANCH  10  12
ATOM     11  C   UNL     1      10.102  12.430  18.917  0.00  0.00    +0.000 C 
ATOM     12  C   UNL     1       9.633  11.068  19.402  0.00  0.00    +0.000 C 
ENDBRANCH  10  12
ENDBRANCH   9  10
ENDBRANCH   8   9
ENDBRANCH   7   8
ENDBRANCH   1   7
BRANCH   6  13
ATOM     13  C   UNL     1       4.355   7.147  17.126  0.00  0.00    +0.000 C 
BRANCH  13  14
ATOM     14  C   UNL     1       3.254   6.683  18.061  0.00  0.00    +0.000 C 
BRANCH  14  15
ATOM     15  C   UNL     1       3.668   5.961  19.350  0.00  0.00    +0.000 C 
BRANCH  15  16
ATOM     16  C   UNL     1       2.393   5.308  19.895  0.00  0.00    +0.000 C 
BRANCH  16  17
ATOM     17  C   UNL     1       2.534   3.827  20.180  0.00  0.00    +0.000 C 
BRANCH  17  18
ATOM     18  C   UNL     1       1.955   2.987  19.056  0.00  0.00    +0.000 C 
ATOM     19  O   UNL     1       0.785   2.580  19.058  0.00  0.00    +0.000 OA
BRANCH  18  20
ATOM     20  C   UNL     1       2.939   2.676  17.926  0.00  0.00    +0.000 C 
ATOM     21  F   UNL     1       2.537   3.215  16.741  0.00  0.00    +0.000 F 
ATOM     22  F   UNL     1       4.176   3.170  18.168  0.00  0.00    +0.000 F 
ATOM     23  F   UNL     1       3.073   1.340  17.705  0.00  0.00    +0.000 F 
ENDBRANCH  18  20
ENDBRANCH  17  18
ENDBRANCH  16  17
ENDBRANCH  15  16
ENDBRANCH  14  15
ENDBRANCH  13  14
ENDBRANCH   6  13
TORSDOF 12
ENDMDL
MODEL 9
REMARK VINA RESULT:      -6.2      3.154      6.650
REMARK  Name = 
REMARK  13 active torsions:
REMARK  status: ('A' for Active; 'I' for Inactive)
REMARK    1  A    between atoms: C_1  and  C_2
REMARK    2  A    between atoms: C_2  and  C_3
REMARK    3  A    between atoms: C_3  and  C_4
REMARK    4  A    between atoms: C_4  and  C_5
REMARK    5  A    between atoms: C_5  and  C_6
REMARK    6  A    between atoms: C_6  and  C_7
REMARK    7  A    between atoms: C_12  and  C_13
REMARK    8  A    between atoms: C_13  and  C_14
REMARK    9  A    between atoms: C_14  and  C_15
REMARK   10  A    between atoms: C_15  and  C_16
REMARK   11  A    between atoms: C_16  and  C_17
REMARK   12  A    between atoms: C_17  and  C_18
REMARK   13  A    between atoms: C_18  and  C_20
REMARK                            x       y       z     vdW  Elec       q    Type
REMARK                         _______ _______ _______ _____ _____    ______ ____
ROOT
ATOM      1  C   UNL     1       2.629   4.884  19.244  0.00  0.00    +0.000 A 
ATOM      2  C   UNL     1       1.573   4.905  20.181  0.00  0.00    +0.000 A 
ATOM      3  C   UNL     1       1.388   3.896  21.111  0.00  0.00    +0.000 A 
ATOM      4  C   UNL     1       2.262   2.819  21.134  0.00  0.00    +0.000 A 
ATOM      5  C   UNL     1       3.299   2.763  20.213  0.00  0.00    +0.000 A 
ATOM      6  C   UNL     1       3.519   3.775  19.256  0.00  0.00    +0.000 A 
ENDROOT
BRANCH   1   7
ATOM      7  C   UNL     1       2.662   6.062  18.293  0.00  0.00    +0.000 C 
BRANCH   7   8
ATOM      8  C   UNL     1       2.465   7.422  18.957  0.00  0.00    +0.000 C 
BRANCH   8   9
ATOM      9  C   UNL     1       2.420   8.550  17.923  0.00  0.00    +0.000 C 
BRANCH   9  10
ATOM     10  C   UNL     1       1.091   9.292  17.982  0.00  0.00    +0.000 C 
BRANCH  10  12
ATOM     11  C   UNL     1      -0.633  10.180  19.573  0.00  0.00    +0.000 C 
ATOM     12  C   UNL     1       0.840   9.856  19.379  0.00  0.00    +0.000 C 
ENDBRANCH  10  12
ENDBRANCH   9  10
ENDBRANCH   8   9
ENDBRANCH   7   8
ENDBRANCH   1   7
BRANCH   6  13
ATOM     13  C   UNL     1       4.659   3.500  18.294  0.00  0.00    +0.000 C 
BRANCH  13  14
ATOM     14  C   UNL     1       4.313   3.333  16.827  0.00  0.00    +0.000 C 
BRANCH  14  15
ATOM     15  C   UNL     1       5.332   3.824  15.791  0.00  0.00    +0.000 C 
BRANCH  15  16
ATOM     16  C   UNL     1       5.505   5.325  16.049  0.00  0.00    +0.000 C 
BRANCH  16  17
ATOM     17  C   UNL     1       6.949   5.786  16.049  0.00  0.00    +0.000 C 
BRANCH  17  18
ATOM     18  C   UNL     1       7.250   6.672  17.244  0.00  0.00    +0.000 C 
ATOM     19  O   UNL     1       7.265   7.909  17.174  0.00  0.00    +0.000 OA
BRANCH  18  20
ATOM     20  C   UNL     1       7.544   5.912  18.539  0.00  0.00    +0.000 C 
ATOM     21  F   UNL     1       7.959   4.637  18.297  0.00  0.00    +0.000 F 
ATOM     22  F   UNL     1       8.522   6.497  19.271  0.00  0.00    +0.000 F 
ATOM     23  F   UNL     1       6.450   5.806  19.340  0.00  0.00    +0.000 F 
ENDBRANCH  18  20
ENDBRANCH  17  18
ENDBRANCH  16  17
ENDBRANCH  15  16
ENDBRANCH  14  15
ENDBRANCH  13  14
ENDBRANCH   6  13
TORSDOF 12
ENDMDL
