MODEL 1
REMARK VINA RESULT:      -7.1      0.000      0.000
REMARK  Name = 
REMARK  6 active torsions:
REMARK  status: ('A' for Active; 'I' for Inactive)
REMARK    1  A    between atoms: C_1  and  O_2
REMARK    2  A    between atoms: O_2  and  C_3
REMARK    3  A    between atoms: C_8  and  C_9
REMARK    4  A    between atoms: N_14  and  C_15
REMARK    5  A    between atoms: C_15  and  C_16
REMARK    6  A    between atoms: C_16  and  O_18
REMARK                            x       y       z     vdW  Elec       q    Type
REMARK                         _______ _______ _______ _____ _____    ______ ____
ROOT
ATOM      1  C   UNL     1       2.996   5.329  17.658  0.00  0.00    +0.000 C 
ATOM      2  C   UNL     1       4.331   5.261  17.708  0.00  0.00    +0.000 C 
ATOM      3  S   UNL     1       5.303   4.166  18.613  0.00  0.00    +0.000 S 
ATOM      4  C   UNL     1       6.775   5.034  18.237  0.00  0.00    +0.000 C 
ATOM      5  O   UNL     1       7.867   4.714  18.670  0.00  0.00    +0.000 OA
ATOM      6  N   UNL     1       6.495   6.115  17.449  0.00  0.00    +0.000 N 
ATOM      7  C   UNL     1       5.187   6.287  17.060  0.00  0.00    +0.000 C 
ATOM      8  O   UNL     1       4.767   7.189  16.352  0.00  0.00    +0.000 OA
ENDROOT
BRANCH   1  14
ATOM      9  C   UNL     1       1.868   4.889  19.866  0.00  0.00    +0.000 A 
ATOM     10  C   UNL     1       1.135   4.016  20.679  0.00  0.00    +0.000 A 
ATOM     11  C   UNL     1       0.629   2.820  20.169  0.00  0.00    +0.000 A 
ATOM     12  C   UNL     1       0.856   2.482  18.838  0.00  0.00    +0.000 A 
ATOM     13  C   UNL     1       1.593   3.340  18.017  0.00  0.00    +0.000 A 
ATOM     14  C   UNL     1       2.115   4.541  18.524  0.00  0.00    +0.000 A 
BRANCH   9  16
ATOM     15  C   UNL     1       1.565   7.120  20.644  0.00  0.00    +0.000 C 
ATOM     16  O   UNL     1       2.395   5.968  20.533  0.00  0.00    +0.000 OA
ENDBRANCH   9  16
ENDBRANCH   1  14
BRANCH   6  17
ATOM     17  C   UNL     1       7.554   6.986  16.966  0.00  0.00    +0.000 C 
BRANCH  17  18
ATOM     18  C   UNL     1       7.996   8.076  17.937  0.00  0.00    +0.000 C 
ATOM     19  O   UNL     1       7.760   9.261  17.737  0.00  0.00    +0.000 OA
BRANCH  18  20
ATOM     20  O   UNL     1       8.674   7.669  19.030  0.00  0.00    +0.000 OA
ATOM     21  H   UNL     1       8.614   8.258  19.801  0.00  0.00    +0.000 HD
ENDBRANCH  18  20
ENDBRANCH  17  18
ENDBRANCH   6  17
TORSDOF 5
ENDMDL
MODEL 2
REMARK VINA RESULT:      -6.7      1.374      2.179
REMARK  Name = 
REMARK  6 active torsions:
REMARK  status: ('A' for Active; 'I' for Inactive)
REMARK    1  A    between atoms: C_1  and  O_2
REMARK    2  A    between atoms: O_2  and  C_3
REMARK    3  A    between atoms: C_8  and  C_9
REMARK    4  A    between atoms: N_14  and  C_15
REMARK    5  A    between atoms: C_15  and  C_16
REMARK    6  A    between atoms: C_16  and  O_18
REMARK                            x       y       z     vdW  Elec       q    Type
REMARK                         _______ _______ _______ _____ _____    ______ ____
ROOT
ATOM      1  C   UNL     1       3.399   5.198  17.793  0.00  0.00    +0.000 C 
ATOM      2  C   UNL     1       4.721   5.317  17.956  0.00  0.00    +0.000 C 
ATOM      3  S   UNL     1       5.720   4.536  19.121  0.00  0.00    +0.000 S 
ATOM      4  C   UNL     1       7.111   5.512  18.703  0.00  0.00    +0.000 C 
ATOM      5  O   UNL     1       8.184   5.421  19.269  0.00  0.00    +0.000 OA
ATOM      6  N   UNL     1       6.787   6.390  17.707  0.00  0.00    +0.000 N 
ATOM      7  C   UNL     1       5.513   6.317  17.194  0.00  0.00    +0.000 C 
ATOM      8  O   UNL     1       5.062   7.016  16.300  0.00  0.00    +0.000 OA
ENDROOT
BRANCH   1  14
ATOM      9  C   UNL     1       2.296   3.083  18.598  0.00  0.00    +0.000 A 
ATOM     10  C   UNL     1       1.349   2.472  19.427  0.00  0.00    +0.000 A 
ATOM     11  C   UNL     1       0.658   3.211  20.388  0.00  0.00    +0.000 A 
ATOM     12  C   UNL     1       0.905   4.574  20.526  0.00  0.00    +0.000 A 
ATOM     13  C   UNL     1       1.842   5.198  19.699  0.00  0.00    +0.000 A 
ATOM     14  C   UNL     1       2.534   4.465  18.722  0.00  0.00    +0.000 A 
BRANCH   9  16
ATOM     15  C   UNL     1       3.772   1.293  18.054  0.00  0.00    +0.000 C 
ATOM     16  O   UNL     1       2.811   2.256  17.630  0.00  0.00    +0.000 OA
ENDBRANCH   9  16
ENDBRANCH   1  14
BRANCH   6  17
ATOM     17  C   UNL     1       7.780   7.295  17.152  0.00  0.00    +0.000 C 
BRANCH  17  18
ATOM     18  C   UNL     1       8.081   8.530  17.994  0.00  0.00    +0.000 C 
ATOM     19  O   UNL     1       7.689   9.646  17.679  0.00  0.00    +0.000 OA
BRANCH  18  20
ATOM     20  O   UNL     1       8.818   8.334  19.108  0.00  0.00    +0.000 OA
ATOM     21  H   UNL     1       9.573   7.731  19.007  0.00  0.00    +0.000 HD
ENDBRANCH  18  20
ENDBRANCH  17  18
ENDBRANCH   6  17
TORSDOF 5
ENDMDL
MODEL 3
REMARK VINA RESULT:      -6.5      3.609      5.792
REMARK  Name = 
REMARK  6 active torsions:
REMARK  status: ('A' for Active; 'I' for Inactive)
REMARK    1  A    between atoms: C_1  and  O_2
REMARK    2  A    between atoms: O_2  and  C_3
REMARK    3  A    between atoms: C_8  and  C_9
REMARK    4  A    between atoms: N_14  and  C_15
REMARK    5  A    between atoms: C_15  and  C_16
REMARK    6  A    between atoms: C_16  and  O_18
REMARK                            x       y       z     vdW  Elec       q    Type
REMARK                         _______ _______ _______ _____ _____    ______ ____
ROOT
ATOM      1  C   UNL     1       2.835   6.588  18.019  0.00  0.00    +0.000 C 
ATOM      2  C   UNL     1       2.302   7.460  18.883  0.00  0.00    +0.000 C 
ATOM      3  S   UNL     1       1.843   7.185  20.519  0.00  0.00    +0.000 S 
ATOM      4  C   UNL     1       1.058   8.744  20.646  0.00  0.00    +0.000 C 
ATOM      5  O   UNL     1       0.476   9.118  21.647  0.00  0.00    +0.000 OA
ATOM      6  N   UNL     1       1.162   9.420  19.463  0.00  0.00    +0.000 N 
ATOM      7  C   UNL     1       1.878   8.818  18.455  0.00  0.00    +0.000 C 
ATOM      8  O   UNL     1       2.076   9.284  17.344  0.00  0.00    +0.000 OA
ENDROOT
BRANCH   1  14
ATOM      9  C   UNL     1       4.083   4.636  19.005  0.00  0.00    +0.000 A 
ATOM     10  C   UNL     1       4.233   3.249  19.117  0.00  0.00    +0.000 A 
ATOM     11  C   UNL     1       3.292   2.381  18.562  0.00  0.00    +0.000 A 
ATOM     12  C   UNL     1       2.190   2.895  17.883  0.00  0.00    +0.000 A 
ATOM     13  C   UNL     1       2.032   4.277  17.757  0.00  0.00    +0.000 A 
ATOM     14  C   UNL     1       2.979   5.157  18.303  0.00  0.00    +0.000 A 
BRANCH   9  16
ATOM     15  C   UNL     1       6.375   5.252  18.797  0.00  0.00    +0.000 C 
ATOM     16  O   UNL     1       5.141   5.357  19.502  0.00  0.00    +0.000 OA
ENDBRANCH   9  16
ENDBRANCH   1  14
BRANCH   6  17
ATOM     17  C   UNL     1       0.619  10.761  19.314  0.00  0.00    +0.000 C 
BRANCH  17  18
ATOM     18  C   UNL     1      -0.773  10.836  18.696  0.00  0.00    +0.000 C 
ATOM     19  O   UNL     1      -1.746  11.228  19.329  0.00  0.00    +0.000 OA
BRANCH  18  20
ATOM     20  O   UNL     1      -0.885  10.437  17.412  0.00  0.00    +0.000 OA
ATOM     21  H   UNL     1      -1.548  10.912  16.884  0.00  0.00    +0.000 HD
ENDBRANCH  18  20
ENDBRANCH  17  18
ENDBRANCH   6  17
TORSDOF 5
ENDMDL
MODEL 4
REMARK VINA RESULT:      -6.5      2.660      6.468
REMARK  Name = 
REMARK  6 active torsions:
REMARK  status: ('A' for Active; 'I' for Inactive)
REMARK    1  A    between atoms: C_1  and  O_2
REMARK    2  A    between atoms: O_2  and  C_3
REMARK    3  A    between atoms: C_8  and  C_9
REMARK    4  A    between atoms: N_14  and  C_15
REMARK    5  A    between atoms: C_15  and  C_16
REMARK    6  A    between atoms: C_16  and  O_18
REMARK                            x       y       z     vdW  Elec       q    Type
REMARK                         _______ _______ _______ _____ _____    ______ ____
ROOT
ATOM      1  C   UNL     1       4.798   3.339  17.244  0.00  0.00    +0.000 C 
ATOM      2  C   UNL     1       4.023   4.120  18.005  0.00  0.00    +0.000 C 
ATOM      3  S   UNL     1       3.705   5.801  17.819  0.00  0.00    +0.000 S 
ATOM      4  C   UNL     1       2.883   5.900  19.361  0.00  0.00    +0.000 C 
ATOM      5  O   UNL     1       2.436   6.937  19.814  0.00  0.00    +0.000 OA
ATOM      6  N   UNL     1       2.872   4.674  19.967  0.00  0.00    +0.000 N 
ATOM      7  C   UNL     1       3.424   3.624  19.271  0.00  0.00    +0.000 C 
ATOM      8  O   UNL     1       3.489   2.468  19.658  0.00  0.00    +0.000 OA
ENDROOT
BRANCH   1  14
ATOM      9  C   UNL     1       6.906   4.448  16.426  0.00  0.00    +0.000 A 
ATOM     10  C   UNL     1       7.608   5.049  15.375  0.00  0.00    +0.000 A 
ATOM     11  C   UNL     1       7.093   5.044  14.078  0.00  0.00    +0.000 A 
ATOM     12  C   UNL     1       5.866   4.440  13.820  0.00  0.00    +0.000 A 
ATOM     13  C   UNL     1       5.150   3.845  14.861  0.00  0.00    +0.000 A 
ATOM     14  C   UNL     1       5.655   3.854  16.172  0.00  0.00    +0.000 A 
BRANCH   9  16
ATOM     15  C   UNL     1       7.504   5.960  18.168  0.00  0.00    +0.000 C 
ATOM     16  O   UNL     1       7.480   4.629  17.660  0.00  0.00    +0.000 OA
ENDBRANCH   9  16
ENDBRANCH   1  14
BRANCH   6  17
ATOM     17  C   UNL     1       2.217   4.476  21.250  0.00  0.00    +0.000 C 
BRANCH  17  18
ATOM     18  C   UNL     1       1.312   3.253  21.339  0.00  0.00    +0.000 C 
ATOM     19  O   UNL     1       1.435   2.415  22.224  0.00  0.00    +0.000 OA
BRANCH  18  20
ATOM     20  O   UNL     1       0.369   3.130  20.382  0.00  0.00    +0.000 OA
ATOM     21  H   UNL     1       0.553   2.465  19.698  0.00  0.00    +0.000 HD
ENDBRANCH  18  20
ENDBRANCH  17  18
ENDBRANCH   6  17
TORSDOF 5
ENDMDL
MODEL 5
REMARK VINA RESULT:      -6.4      3.703      5.261
REMARK  Name = 
REMARK  6 active torsions:
REMARK  status: ('A' for Active; 'I' for Inactive)
REMARK    1  A    between atoms: C_1  and  O_2
REMARK    2  A    between atoms: O_2  and  C_3
REMARK    3  A    between atoms: C_8  and  C_9
REMARK    4  A    between atoms: N_14  and  C_15
REMARK    5  A    between atoms: C_15  and  C_16
REMARK    6  A    between atoms: C_16  and  O_18
REMARK                            x       y       z     vdW  Elec       q    Type
REMARK                         _______ _______ _______ _____ _____    ______ ____
ROOT
ATOM      1  C   UNL     1       2.752   6.652  18.158  0.00  0.00    +0.000 C 
ATOM      2  C   UNL     1       2.222   7.645  18.882  0.00  0.00    +0.000 C 
ATOM      3  S   UNL     1       1.648   7.585  20.503  0.00  0.00    +0.000 S 
ATOM      4  C   UNL     1       0.954   9.188  20.404  0.00  0.00    +0.000 C 
ATOM      5  O   UNL     1       0.337   9.706  21.316  0.00  0.00    +0.000 OA
ATOM      6  N   UNL     1       1.172   9.718  19.163  0.00  0.00    +0.000 N 
ATOM      7  C   UNL     1       1.909   8.967  18.279  0.00  0.00    +0.000 C 
ATOM      8  O   UNL     1       2.204   9.291  17.139  0.00  0.00    +0.000 OA
ENDROOT
BRANCH   1  14
ATOM      9  C   UNL     1       3.874   4.728  19.333  0.00  0.00    +0.000 A 
ATOM     10  C   UNL     1       3.914   3.356  19.606  0.00  0.00    +0.000 A 
ATOM     11  C   UNL     1       2.882   2.515  19.188  0.00  0.00    +0.000 A 
ATOM     12  C   UNL     1       1.799   3.038  18.488  0.00  0.00    +0.000 A 
ATOM     13  C   UNL     1       1.751   4.404  18.200  0.00  0.00    +0.000 A 
ATOM     14  C   UNL     1       2.789   5.258  18.608  0.00  0.00    +0.000 A 
BRANCH   9  16
ATOM     15  C   UNL     1       6.192   5.136  18.964  0.00  0.00    +0.000 C 
ATOM     16  O   UNL     1       5.007   5.408  19.706  0.00  0.00    +0.000 OA
ENDBRANCH   9  16
ENDBRANCH   1  14
BRANCH   6  17
ATOM     17  C   UNL     1       0.724  11.061  18.831  0.00  0.00    +0.000 C 
BRANCH  17  18
ATOM     18  C   UNL     1       1.819  12.119  18.770  0.00  0.00    +0.000 C 
ATOM     19  O   UNL     1       2.117  12.804  19.741  0.00  0.00    +0.000 OA
BRANCH  18  20
ATOM     20  O   UNL     1       2.442  12.275  17.583  0.00  0.00    +0.000 OA
ATOM     21  H   UNL     1       2.782  13.167  17.405  0.00  0.00    +0.000 HD
ENDBRANCH  18  20
ENDBRANCH  17  18
ENDBRANCH   6  17
TORSDOF 5
ENDMDL
MODEL 6
REMARK VINA RESULT:      -6.4      2.663      6.436
REMARK  Name = 
REMARK  6 active torsions:
REMARK  status: ('A' for Active; 'I' for Inactive)
REMARK    1  A    between atoms: C_1  and  O_2
REMARK    2  A    between atoms: O_2  and  C_3
REMARK    3  A    between atoms: C_8  and  C_9
REMARK    4  A    between atoms: N_14  and  C_15
REMARK    5  A    between atoms: C_15  and  C_16
REMARK    6  A    between atoms: C_16  and  O_18
REMARK                            x       y       z     vdW  Elec       q    Type
REMARK                         _______ _______ _______ _____ _____    ______ ____
ROOT
ATOM      1  C   UNL     1       4.274   3.257  16.951  0.00  0.00    +0.000 C 
ATOM      2  C   UNL     1       3.475   3.909  17.803  0.00  0.00    +0.000 C 
ATOM      3  S   UNL     1       3.450   5.593  18.156  0.00  0.00    +0.000 S 
ATOM      4  C   UNL     1       2.339   5.381  19.492  0.00  0.00    +0.000 C 
ATOM      5  O   UNL     1       1.960   6.297  20.196  0.00  0.00    +0.000 OA
ATOM      6  N   UNL     1       2.022   4.058  19.633  0.00  0.00    +0.000 N 
ATOM      7  C   UNL     1       2.553   3.183  18.715  0.00  0.00    +0.000 C 
ATOM      8  O   UNL     1       2.367   1.976  18.689  0.00  0.00    +0.000 OA
ENDROOT
BRANCH   1  14
ATOM      9  C   UNL     1       6.533   4.369  16.957  0.00  0.00    +0.000 A 
ATOM     10  C   UNL     1       7.511   5.089  16.261  0.00  0.00    +0.000 A 
ATOM     11  C   UNL     1       7.392   5.313  14.889  0.00  0.00    +0.000 A 
ATOM     12  C   UNL     1       6.287   4.822  14.198  0.00  0.00    +0.000 A 
ATOM     13  C   UNL     1       5.299   4.109  14.882  0.00  0.00    +0.000 A 
ATOM     14  C   UNL     1       5.406   3.887  16.265  0.00  0.00    +0.000 A 
BRANCH   9  16
ATOM     15  C   UNL     1       7.247   5.503  18.927  0.00  0.00    +0.000 C 
ATOM     16  O   UNL     1       6.729   4.325  18.315  0.00  0.00    +0.000 OA
ENDBRANCH   9  16
ENDBRANCH   1  14
BRANCH   6  17
ATOM     17  C   UNL     1       1.087   3.616  20.654  0.00  0.00    +0.000 C 
BRANCH  17  18
ATOM     18  C   UNL     1       1.690   2.768  21.768  0.00  0.00    +0.000 C 
ATOM     19  O   UNL     1       1.004   2.275  22.655  0.00  0.00    +0.000 OA
BRANCH  18  20
ATOM     20  O   UNL     1       3.028   2.595  21.737  0.00  0.00    +0.000 OA
ATOM     21  H   UNL     1       3.327   1.696  21.519  0.00  0.00    +0.000 HD
ENDBRANCH  18  20
ENDBRANCH  17  18
ENDBRANCH   6  17
TORSDOF 5
ENDMDL
MODEL 7
REMARK VINA RESULT:      -6.4      1.731      2.887
REMARK  Name = 
REMARK  6 active torsions:
REMARK  status: ('A' for Active; 'I' for Inactive)
REMARK    1  A    between atoms: C_1  and  O_2
REMARK    2  A    between atoms: O_2  and  C_3
REMARK    3  A    between atoms: C_8  and  C_9
REMARK    4  A    between atoms: N_14  and  C_15
REMARK    5  A    between atoms: C_15  and  C_16
REMARK    6  A    between atoms: C_16  and  O_18
REMARK                            x       y       z     vdW  Elec       q    Type
REMARK                         _______ _______ _______ _____ _____    ______ ____
ROOT
ATOM      1  C   UNL     1       4.268   4.539  19.880  0.00  0.00    +0.000 C 
ATOM      2  C   UNL     1       4.719   5.341  18.908  0.00  0.00    +0.000 C 
ATOM      3  S   UNL     1       3.880   5.882  17.506  0.00  0.00    +0.000 S 
ATOM      4  C   UNL     1       5.326   6.580  16.810  0.00  0.00    +0.000 C 
ATOM      5  O   UNL     1       5.350   7.115  15.717  0.00  0.00    +0.000 OA
ATOM      6  N   UNL     1       6.390   6.387  17.646  0.00  0.00    +0.000 N 
ATOM      7  C   UNL     1       6.141   5.767  18.848  0.00  0.00    +0.000 C 
ATOM      8  O   UNL     1       6.970   5.525  19.712  0.00  0.00    +0.000 OA
ENDROOT
BRANCH   1  14
ATOM      9  C   UNL     1       2.759   2.735  18.981  0.00  0.00    +0.000 A 
ATOM     10  C   UNL     1       1.468   2.209  18.861  0.00  0.00    +0.000 A 
ATOM     11  C   UNL     1       0.404   2.757  19.579  0.00  0.00    +0.000 A 
ATOM     12  C   UNL     1       0.622   3.842  20.422  0.00  0.00    +0.000 A 
ATOM     13  C   UNL     1       1.904   4.383  20.544  0.00  0.00    +0.000 A 
ATOM     14  C   UNL     1       2.979   3.845  19.819  0.00  0.00    +0.000 A 
BRANCH   9  16
ATOM     15  C   UNL     1       4.136   0.859  18.466  0.00  0.00    +0.000 C 
ATOM     16  O   UNL     1       3.678   2.166  18.133  0.00  0.00    +0.000 OA
ENDBRANCH   9  16
ENDBRANCH   1  14
BRANCH   6  17
ATOM     17  C   UNL     1       7.708   6.904  17.316  0.00  0.00    +0.000 C 
BRANCH  17  18
ATOM     18  C   UNL     1       8.106   8.188  18.036  0.00  0.00    +0.000 C 
ATOM     19  O   UNL     1       7.805   9.294  17.607  0.00  0.00    +0.000 OA
BRANCH  18  20
ATOM     20  O   UNL     1       8.821   8.045  19.171  0.00  0.00    +0.000 OA
ATOM     21  H   UNL     1       8.803   8.807  19.774  0.00  0.00    +0.000 HD
ENDBRANCH  18  20
ENDBRANCH  17  18
ENDBRANCH   6  17
TORSDOF 5
ENDMDL
MODEL 8
REMARK VINA RESULT:      -6.3      1.342      2.148
REMARK  Name = 
REMARK  6 active torsions:
REMARK  status: ('A' for Active; 'I' for Inactive)
REMARK    1  A    between atoms: C_1  and  O_2
REMARK    2  A    between atoms: O_2  and  C_3
REMARK    3  A    between atoms: C_8  and  C_9
REMARK    4  A    between atoms: N_14  and  C_15
REMARK    5  A    between atoms: C_15  and  C_16
REMARK    6  A    between atoms: C_16  and  O_18
REMARK                            x       y       z     vdW  Elec       q    Type
REMARK                         _______ _______ _______ _____ _____    ______ ____
ROOT
ATOM      1  C   UNL     1       3.188   5.418  18.653  0.00  0.00    +0.000 C 
ATOM      2  C   UNL     1       4.445   5.337  18.202  0.00  0.00    +0.000 C 
ATOM      3  S   UNL     1       5.539   4.016  18.344  0.00  0.00    +0.000 S 
ATOM      4  C   UNL     1       6.884   4.957  17.736  0.00  0.00    +0.000 C 
ATOM      5  O   UNL     1       8.015   4.520  17.640  0.00  0.00    +0.000 OA
ATOM      6  N   UNL     1       6.473   6.229  17.446  0.00  0.00    +0.000 N 
ATOM      7  C   UNL     1       5.139   6.513  17.616  0.00  0.00    +0.000 C 
ATOM      8  O   UNL     1       4.605   7.589  17.396  0.00  0.00    +0.000 OA
ENDROOT
BRANCH   1  14
ATOM      9  C   UNL     1       1.876   3.294  18.984  0.00  0.00    +0.000 A 
ATOM     10  C   UNL     1       1.189   2.439  19.853  0.00  0.00    +0.000 A 
ATOM     11  C   UNL     1       1.205   2.658  21.231  0.00  0.00    +0.000 A 
ATOM     12  C   UNL     1       1.908   3.740  21.754  0.00  0.00    +0.000 A 
ATOM     13  C   UNL     1       2.591   4.606  20.898  0.00  0.00    +0.000 A 
ATOM     14  C   UNL     1       2.572   4.400  19.509  0.00  0.00    +0.000 A 
BRANCH   9  16
ATOM     15  C   UNL     1       2.615   2.145  17.032  0.00  0.00    +0.000 C 
ATOM     16  O   UNL     1       1.678   3.020  17.653  0.00  0.00    +0.000 OA
ENDBRANCH   9  16
ENDBRANCH   1  14
BRANCH   6  17
ATOM     17  C   UNL     1       7.395   7.207  16.892  0.00  0.00    +0.000 C 
BRANCH  17  18
ATOM     18  C   UNL     1       7.995   8.183  17.898  0.00  0.00    +0.000 C 
ATOM     19  O   UNL     1       7.905   9.396  17.761  0.00  0.00    +0.000 OA
BRANCH  18  20
ATOM     20  O   UNL     1       8.645   7.641  18.949  0.00  0.00    +0.000 OA
ATOM     21  H   UNL     1       9.096   6.798  18.771  0.00  0.00    +0.000 HD
ENDBRANCH  18  20
ENDBRANCH  17  18
ENDBRANCH   6  17
TORSDOF 5
ENDMDL
MODEL 9
REMARK VINA RESULT:      -6.2      1.181      1.958
REMARK  Name = 
REMARK  6 active torsions:
REMARK  status: ('A' for Active; 'I' for Inactive)
REMARK    1  A    between atoms: C_1  and  O_2
REMARK    2  A    between atoms: O_2  and  C_3
REMARK    3  A    between atoms: C_8  and  C_9
REMARK    4  A    between atoms: N_14  and  C_15
REMARK    5  A    between atoms: C_15  and  C_16
REMARK    6  A    between atoms: C_16  and  O_18
REMARK                            x       y       z     vdW  Elec       q    Type
REMARK                         _______ _______ _______ _____ _____    ______ ____
ROOT
ATOM      1  C   UNL     1       4.270   4.432  19.715  0.00  0.00    +0.000 C 
ATOM      2  C   UNL     1       4.778   5.290  18.823  0.00  0.00    +0.000 C 
ATOM      3  S   UNL     1       4.017   5.933  17.420  0.00  0.00    +0.000 S 
ATOM      4  C   UNL     1       5.503   6.656  16.844  0.00  0.00    +0.000 C 
ATOM      5  O   UNL     1       5.587   7.261  15.792  0.00  0.00    +0.000 OA
ATOM      6  N   UNL     1       6.522   6.393  17.718  0.00  0.00    +0.000 N 
ATOM      7  C   UNL     1       6.206   5.698  18.862  0.00  0.00    +0.000 C 
ATOM      8  O   UNL     1       6.988   5.389  19.747  0.00  0.00    +0.000 OA
ENDROOT
BRANCH   1  14
ATOM      9  C   UNL     1       1.814   4.189  20.210  0.00  0.00    +0.000 A 
ATOM     10  C   UNL     1       0.648   3.421  20.117  0.00  0.00    +0.000 A 
ATOM     11  C   UNL     1       0.622   2.251  19.357  0.00  0.00    +0.000 A 
ATOM     12  C   UNL     1       1.766   1.836  18.683  0.00  0.00    +0.000 A 
ATOM     13  C   UNL     1       2.940   2.588  18.773  0.00  0.00    +0.000 A 
ATOM     14  C   UNL     1       2.978   3.761  19.545  0.00  0.00    +0.000 A 
BRANCH   9  16
ATOM     15  C   UNL     1       1.623   6.546  20.503  0.00  0.00    +0.000 C 
ATOM     16  O   UNL     1       1.721   5.248  21.080  0.00  0.00    +0.000 OA
ENDBRANCH   9  16
ENDBRANCH   1  14
BRANCH   6  17
ATOM     17  C   UNL     1       7.860   6.912  17.488  0.00  0.00    +0.000 C 
BRANCH  17  18
ATOM     18  C   UNL     1       8.139   8.286  18.086  0.00  0.00    +0.000 C 
ATOM     19  O   UNL     1       7.696   9.315  17.590  0.00  0.00    +0.000 OA
BRANCH  18  20
ATOM     20  O   UNL     1       8.915   8.316  19.190  0.00  0.00    +0.000 OA
ATOM     21  H   UNL     1       9.366   7.483  19.405  0.00  0.00    +0.000 HD
ENDBRANCH  18  20
ENDBRANCH  17  18
ENDBRANCH   6  17
TORSDOF 5
ENDMDL
