MODEL 1
REMARK VINA RESULT:      -8.1      0.000      0.000
REMARK  Name = 
REMARK  11 active torsions:
REMARK  status: ('A' for Active; 'I' for Inactive)
REMARK    1  A    between atoms: C_1  and  C_2
REMARK    2  A    between atoms: C_7  and  C_8
REMARK    3  A    between atoms: N_10  and  N_11
REMARK    4  A    between atoms: C_12  and  C_14
REMARK    5  A    between atoms: C_14  and  C_15
REMARK    6  A    between atoms: C_15  and  C_16
REMARK    7  A    between atoms: C_16  and  C_17
REMARK    8  A    between atoms: C_17  and  C_18
REMARK    9  A    between atoms: N_20  and  N_21
REMARK   10  A    between atoms: C_22  and  C_24
REMARK   11  A    between atoms: C_29  and  C_30
REMARK                            x       y       z     vdW  Elec       q    Type
REMARK                         _______ _______ _______ _____ _____    ______ ____
ROOT
ATOM      1  C   UNL     1       6.274   4.982  17.317  0.00  0.00    +0.000 C 
ENDROOT
BRANCH   1   2
ATOM      2  C   UNL     1       6.227   6.500  17.166  0.00  0.00    +0.000 C 
BRANCH   2   4
ATOM      3  N   UNL     1       7.653   8.477  17.443  0.00  0.00    +0.000 N 
ATOM      4  C   UNL     1       7.391   7.185  17.851  0.00  0.00    +0.000 C 
ATOM      5  O   UNL     1       8.053   6.629  18.727  0.00  0.00    +0.000 OA
ATOM      6  H   UNL     1       7.112   8.999  16.754  0.00  0.00    +0.000 HD
BRANCH   3   9
ATOM      7  C   UNL     1       8.749  10.526  18.063  0.00  0.00    +0.000 C 
ATOM      8  O   UNL     1       7.889  11.203  17.496  0.00  0.00    +0.000 OA
ATOM      9  N   UNL     1       8.700   9.150  18.084  0.00  0.00    +0.000 N 
ATOM     10  H   UNL     1       9.471   8.562  18.387  0.00  0.00    +0.000 HD
BRANCH   7  17
ATOM     11  C   UNL     1       9.090  11.050  21.141  0.00  0.00    +0.000 C 
ATOM     12  C   UNL     1      10.102  11.413  20.090  0.00  0.00    +0.000 A 
ATOM     13  C   UNL     1      11.275  12.061  20.531  0.00  0.00    +0.000 A 
ATOM     14  C   UNL     1      12.254  12.487  19.633  0.00  0.00    +0.000 A 
ATOM     15  C   UNL     1      12.082  12.273  18.273  0.00  0.00    +0.000 A 
ATOM     16  C   UNL     1      10.933  11.627  17.813  0.00  0.00    +0.000 A 
ATOM     17  C   UNL     1       9.936  11.181  18.704  0.00  0.00    +0.000 A 
ENDBRANCH   7  17
ENDBRANCH   3   9
ENDBRANCH   2   4
ENDBRANCH   1   2
BRANCH   1  18
ATOM     18  C   UNL     1       4.963   4.325  16.865  0.00  0.00    +0.000 C 
BRANCH  18  19
ATOM     19  C   UNL     1       4.066   3.939  18.048  0.00  0.00    +0.000 C 
BRANCH  19  20
ATOM     20  C   UNL     1       2.939   4.932  18.266  0.00  0.00    +0.000 C 
ATOM     21  O   UNL     1       1.847   4.844  17.706  0.00  0.00    +0.000 OA
ATOM     22  N   UNL     1       3.248   5.973  19.116  0.00  0.00    +0.000 N 
ATOM     23  H   UNL     1       4.131   6.079  19.611  0.00  0.00    +0.000 HD
BRANCH  22  24
ATOM     24  N   UNL     1       2.238   6.902  19.398  0.00  0.00    +0.000 N 
ATOM     25  C   UNL     1       2.233   8.125  18.746  0.00  0.00    +0.000 C 
ATOM     26  O   UNL     1       3.092   8.429  17.924  0.00  0.00    +0.000 OA
ATOM     27  H   UNL     1       1.708   6.732  20.250  0.00  0.00    +0.000 HD
BRANCH  25  28
ATOM     28  C   UNL     1       1.085   9.033  19.086  0.00  0.00    +0.000 A 
ATOM     29  C   UNL     1       0.375   9.628  18.023  0.00  0.00    +0.000 A 
ATOM     30  C   UNL     1      -0.684  10.507  18.263  0.00  0.00    +0.000 A 
ATOM     31  C   UNL     1      -1.047  10.808  19.567  0.00  0.00    +0.000 A 
ATOM     32  C   UNL     1      -0.347  10.239  20.631  0.00  0.00    +0.000 A 
ATOM     33  C   UNL     1       0.733   9.363  20.414  0.00  0.00    +0.000 A 
ATOM     34  C   UNL     1       1.415   8.791  21.628  0.00  0.00    +0.000 C 
ENDBRANCH  25  28
ENDBRANCH  22  24
ENDBRANCH  19  20
ENDBRANCH  18  19
ENDBRANCH   1  18
TORSDOF 9
ENDMDL
MODEL 2
REMARK VINA RESULT:      -8.0      3.325      9.996
REMARK  Name = 
REMARK  11 active torsions:
REMARK  status: ('A' for Active; 'I' for Inactive)
REMARK    1  A    between atoms: C_1  and  C_2
REMARK    2  A    between atoms: C_7  and  C_8
REMARK    3  A    between atoms: N_10  and  N_11
REMARK    4  A    between atoms: C_12  and  C_14
REMARK    5  A    between atoms: C_14  and  C_15
REMARK    6  A    between atoms: C_15  and  C_16
REMARK    7  A    between atoms: C_16  and  C_17
REMARK    8  A    between atoms: C_17  and  C_18
REMARK    9  A    between atoms: N_20  and  N_21
REMARK   10  A    between atoms: C_22  and  C_24
REMARK   11  A    between atoms: C_29  and  C_30
REMARK                            x       y       z     vdW  Elec       q    Type
REMARK                         _______ _______ _______ _____ _____    ______ ____
ROOT
ATOM      1  C   UNL     1       7.859   8.155  17.395  0.00  0.00    +0.000 C 
ENDROOT
BRANCH   1   2
ATOM      2  C   UNL     1       8.262   7.115  18.437  0.00  0.00    +0.000 C 
BRANCH   2   4
ATOM      3  N   UNL     1       6.157   6.022  17.809  0.00  0.00    +0.000 N 
ATOM      4  C   UNL     1       7.130   6.168  18.776  0.00  0.00    +0.000 C 
ATOM      5  O   UNL     1       7.087   5.555  19.844  0.00  0.00    +0.000 OA
ATOM      6  H   UNL     1       6.164   6.472  16.894  0.00  0.00    +0.000 HD
BRANCH   3   9
ATOM      7  C   UNL     1       3.821   5.583  18.176  0.00  0.00    +0.000 C 
ATOM      8  O   UNL     1       3.534   6.772  18.028  0.00  0.00    +0.000 OA
ATOM      9  N   UNL     1       5.116   5.125  18.079  0.00  0.00    +0.000 N 
ATOM     10  H   UNL     1       5.409   4.195  18.362  0.00  0.00    +0.000 HD
BRANCH   7  17
ATOM     11  C   UNL     1       1.913   5.784  20.661  0.00  0.00    +0.000 C 
ATOM     12  C   UNL     1       1.895   4.670  19.652  0.00  0.00    +0.000 A 
ATOM     13  C   UNL     1       0.964   3.631  19.865  0.00  0.00    +0.000 A 
ATOM     14  C   UNL     1       0.900   2.524  19.019  0.00  0.00    +0.000 A 
ATOM     15  C   UNL     1       1.765   2.433  17.937  0.00  0.00    +0.000 A 
ATOM     16  C   UNL     1       2.690   3.452  17.701  0.00  0.00    +0.000 A 
ATOM     17  C   UNL     1       2.764   4.582  18.540  0.00  0.00    +0.000 A 
ENDBRANCH   7  17
ENDBRANCH   3   9
ENDBRANCH   2   4
ENDBRANCH   1   2
BRANCH   1  18
ATOM     18  C   UNL     1       7.797   9.566  17.996  0.00  0.00    +0.000 C 
BRANCH  18  19
ATOM     19  C   UNL     1       9.074   9.930  18.763  0.00  0.00    +0.000 C 
BRANCH  19  20
ATOM     20  C   UNL     1       9.669  11.248  18.300  0.00  0.00    +0.000 C 
ATOM     21  O   UNL     1      10.796  11.343  17.815  0.00  0.00    +0.000 OA
ATOM     22  N   UNL     1       8.861  12.346  18.502  0.00  0.00    +0.000 N 
ATOM     23  H   UNL     1       7.919  12.314  18.886  0.00  0.00    +0.000 HD
BRANCH  22  24
ATOM     24  N   UNL     1       9.330  13.588  18.056  0.00  0.00    +0.000 N 
ATOM     25  C   UNL     1       9.751  14.531  18.980  0.00  0.00    +0.000 C 
ATOM     26  O   UNL     1       9.726  14.318  20.188  0.00  0.00    +0.000 OA
ATOM     27  H   UNL     1       9.098  13.827  17.094  0.00  0.00    +0.000 HD
BRANCH  25  28
ATOM     28  C   UNL     1      10.276  15.815  18.399  0.00  0.00    +0.000 A 
ATOM     29  C   UNL     1      11.660  15.907  18.142  0.00  0.00    +0.000 A 
ATOM     30  C   UNL     1      12.223  17.078  17.631  0.00  0.00    +0.000 A 
ATOM     31  C   UNL     1      11.417  18.176  17.373  0.00  0.00    +0.000 A 
ATOM     32  C   UNL     1      10.048  18.107  17.633  0.00  0.00    +0.000 A 
ATOM     33  C   UNL     1       9.459  16.943  18.163  0.00  0.00    +0.000 A 
ATOM     34  C   UNL     1       7.973  16.963  18.396  0.00  0.00    +0.000 C 
ENDBRANCH  25  28
ENDBRANCH  22  24
ENDBRANCH  19  20
ENDBRANCH  18  19
ENDBRANCH   1  18
TORSDOF 9
ENDMDL
MODEL 3
REMARK VINA RESULT:      -7.8      4.539      6.237
REMARK  Name = 
REMARK  11 active torsions:
REMARK  status: ('A' for Active; 'I' for Inactive)
REMARK    1  A    between atoms: C_1  and  C_2
REMARK    2  A    between atoms: C_7  and  C_8
REMARK    3  A    between atoms: N_10  and  N_11
REMARK    4  A    between atoms: C_12  and  C_14
REMARK    5  A    between atoms: C_14  and  C_15
REMARK    6  A    between atoms: C_15  and  C_16
REMARK    7  A    between atoms: C_16  and  C_17
REMARK    8  A    between atoms: C_17  and  C_18
REMARK    9  A    between atoms: N_20  and  N_21
REMARK   10  A    between atoms: C_22  and  C_24
REMARK   11  A    between atoms: C_29  and  C_30
REMARK                            x       y       z     vdW  Elec       q    Type
REMARK                         _______ _______ _______ _____ _____    ______ ____
ROOT
ATOM      1  C   UNL     1       0.615   3.746  19.981  0.00  0.00    +0.000 C 
ENDROOT
BRANCH   1   2
ATOM      2  C   UNL     1       0.992   2.555  19.104  0.00  0.00    +0.000 C 
BRANCH   2   4
ATOM      3  N   UNL     1       3.290   2.550  18.246  0.00  0.00    +0.000 N 
ATOM      4  C   UNL     1       1.982   2.926  18.020  0.00  0.00    +0.000 C 
ATOM      5  O   UNL     1       1.639   3.514  16.994  0.00  0.00    +0.000 OA
ATOM      6  H   UNL     1       3.621   2.027  19.056  0.00  0.00    +0.000 HD
BRANCH   3   9
ATOM      7  C   UNL     1       4.824   4.085  17.209  0.00  0.00    +0.000 C 
ATOM      8  O   UNL     1       4.573   4.959  18.041  0.00  0.00    +0.000 OA
ATOM      9  N   UNL     1       4.223   2.847  17.245  0.00  0.00    +0.000 N 
ATOM     10  H   UNL     1       4.273   2.172  16.487  0.00  0.00    +0.000 HD
BRANCH   7  17
ATOM     11  C   UNL     1       7.429   5.830  17.380  0.00  0.00    +0.000 C 
ATOM     12  C   UNL     1       6.937   5.140  16.138  0.00  0.00    +0.000 A 
ATOM     13  C   UNL     1       7.698   5.321  14.963  0.00  0.00    +0.000 A 
ATOM     14  C   UNL     1       7.302   4.768  13.745  0.00  0.00    +0.000 A 
ATOM     15  C   UNL     1       6.135   4.019  13.676  0.00  0.00    +0.000 A 
ATOM     16  C   UNL     1       5.370   3.819  14.826  0.00  0.00    +0.000 A 
ATOM     17  C   UNL     1       5.757   4.363  16.067  0.00  0.00    +0.000 A 
ENDBRANCH   7  17
ENDBRANCH   3   9
ENDBRANCH   2   4
ENDBRANCH   1   2
BRANCH   1  18
ATOM     18  C   UNL     1       1.563   3.891  21.179  0.00  0.00    +0.000 C 
BRANCH  18  19
ATOM     19  C   UNL     1       2.662   4.931  20.931  0.00  0.00    +0.000 C 
BRANCH  19  20
ATOM     20  C   UNL     1       2.120   6.208  20.314  0.00  0.00    +0.000 C 
ATOM     21  O   UNL     1       2.001   6.371  19.100  0.00  0.00    +0.000 OA
ATOM     22  N   UNL     1       1.805   7.196  21.222  0.00  0.00    +0.000 N 
ATOM     23  H   UNL     1       1.874   7.102  22.234  0.00  0.00    +0.000 HD
BRANCH  22  24
ATOM     24  N   UNL     1       1.256   8.384  20.724  0.00  0.00    +0.000 N 
ATOM     25  C   UNL     1      -0.041   8.733  21.066  0.00  0.00    +0.000 C 
ATOM     26  O   UNL     1      -0.735   8.031  21.794  0.00  0.00    +0.000 OA
ATOM     27  H   UNL     1       1.748   8.801  19.936  0.00  0.00    +0.000 HD
BRANCH  25  28
ATOM     28  C   UNL     1      -0.522  10.047  20.516  0.00  0.00    +0.000 A 
ATOM     29  C   UNL     1      -0.597  10.190  19.115  0.00  0.00    +0.000 A 
ATOM     30  C   UNL     1      -1.006  11.391  18.532  0.00  0.00    +0.000 A 
ATOM     31  C   UNL     1      -1.341  12.469  19.337  0.00  0.00    +0.000 A 
ATOM     32  C   UNL     1      -1.260  12.350  20.724  0.00  0.00    +0.000 A 
ATOM     33  C   UNL     1      -0.836  11.155  21.335  0.00  0.00    +0.000 A 
ATOM     34  C   UNL     1      -0.795  11.122  22.839  0.00  0.00    +0.000 C 
ENDBRANCH  25  28
ENDBRANCH  22  24
ENDBRANCH  19  20
ENDBRANCH  18  19
ENDBRANCH   1  18
TORSDOF 9
ENDMDL
MODEL 4
REMARK VINA RESULT:      -7.7      4.884      8.905
REMARK  Name = 
REMARK  11 active torsions:
REMARK  status: ('A' for Active; 'I' for Inactive)
REMARK    1  A    between atoms: C_1  and  C_2
REMARK    2  A    between atoms: C_7  and  C_8
REMARK    3  A    between atoms: N_10  and  N_11
REMARK    4  A    between atoms: C_12  and  C_14
REMARK    5  A    between atoms: C_14  and  C_15
REMARK    6  A    between atoms: C_15  and  C_16
REMARK    7  A    between atoms: C_16  and  C_17
REMARK    8  A    between atoms: C_17  and  C_18
REMARK    9  A    between atoms: N_20  and  N_21
REMARK   10  A    between atoms: C_22  and  C_24
REMARK   11  A    between atoms: C_29  and  C_30
REMARK                            x       y       z     vdW  Elec       q    Type
REMARK                         _______ _______ _______ _____ _____    ______ ____
ROOT
ATOM      1  C   UNL     1       1.825   4.694  19.229  0.00  0.00    +0.000 C 
ENDROOT
BRANCH   1   2
ATOM      2  C   UNL     1       2.837   5.735  19.701  0.00  0.00    +0.000 C 
BRANCH   2   4
ATOM      3  N   UNL     1       1.725   7.521  20.962  0.00  0.00    +0.000 N 
ATOM      4  C   UNL     1       2.250   7.130  19.748  0.00  0.00    +0.000 C 
ATOM      5  O   UNL     1       2.255   7.875  18.767  0.00  0.00    +0.000 OA
ATOM      6  H   UNL     1       1.732   6.962  21.815  0.00  0.00    +0.000 HD
BRANCH   3   9
ATOM      7  C   UNL     1      -0.077   9.021  21.495  0.00  0.00    +0.000 C 
ATOM      8  O   UNL     1      -0.807   8.087  21.834  0.00  0.00    +0.000 OA
ATOM      9  N   UNL     1       1.209   8.820  21.048  0.00  0.00    +0.000 N 
ATOM     10  H   UNL     1       1.771   9.539  20.602  0.00  0.00    +0.000 HD
BRANCH   7  17
ATOM     11  C   UNL     1      -0.744  10.702  18.927  0.00  0.00    +0.000 C 
ATOM     12  C   UNL     1      -0.905  11.191  20.340  0.00  0.00    +0.000 A 
ATOM     13  C   UNL     1      -1.366  12.514  20.509  0.00  0.00    +0.000 A 
ATOM     14  C   UNL     1      -1.500  13.083  21.776  0.00  0.00    +0.000 A 
ATOM     15  C   UNL     1      -1.179  12.340  22.903  0.00  0.00    +0.000 A 
ATOM     16  C   UNL     1      -0.729  11.025  22.762  0.00  0.00    +0.000 A 
ATOM     17  C   UNL     1      -0.594  10.430  21.491  0.00  0.00    +0.000 A 
ENDBRANCH   7  17
ENDBRANCH   3   9
ENDBRANCH   2   4
ENDBRANCH   1   2
BRANCH   1  18
ATOM     18  C   UNL     1       1.980   3.367  19.986  0.00  0.00    +0.000 C 
BRANCH  18  19
ATOM     19  C   UNL     1       3.403   2.804  19.888  0.00  0.00    +0.000 C 
BRANCH  19  20
ATOM     20  C   UNL     1       3.865   2.649  18.451  0.00  0.00    +0.000 C 
ATOM     21  O   UNL     1       3.324   1.889  17.648  0.00  0.00    +0.000 OA
ATOM     22  N   UNL     1       4.973   3.401  18.120  0.00  0.00    +0.000 N 
ATOM     23  H   UNL     1       5.443   4.052  18.745  0.00  0.00    +0.000 HD
BRANCH  22  24
ATOM     24  N   UNL     1       5.425   3.341  16.796  0.00  0.00    +0.000 N 
ATOM     25  C   UNL     1       5.156   4.393  15.934  0.00  0.00    +0.000 C 
ATOM     26  O   UNL     1       4.527   5.384  16.290  0.00  0.00    +0.000 OA
ATOM     27  H   UNL     1       5.706   2.420  16.467  0.00  0.00    +0.000 HD
BRANCH  25  28
ATOM     28  C   UNL     1       5.721   4.252  14.548  0.00  0.00    +0.000 A 
ATOM     29  C   UNL     1       4.980   3.512  13.603  0.00  0.00    +0.000 A 
ATOM     30  C   UNL     1       5.457   3.314  12.306  0.00  0.00    +0.000 A 
ATOM     31  C   UNL     1       6.682   3.846  11.932  0.00  0.00    +0.000 A 
ATOM     32  C   UNL     1       7.434   4.570  12.857  0.00  0.00    +0.000 A 
ATOM     33  C   UNL     1       6.982   4.769  14.176  0.00  0.00    +0.000 A 
ATOM     34  C   UNL     1       7.861   5.575  15.094  0.00  0.00    +0.000 C 
ENDBRANCH  25  28
ENDBRANCH  22  24
ENDBRANCH  19  20
ENDBRANCH  18  19
ENDBRANCH   1  18
TORSDOF 9
ENDMDL
MODEL 5
REMARK VINA RESULT:      -7.7      4.728      8.156
REMARK  Name = 
REMARK  11 active torsions:
REMARK  status: ('A' for Active; 'I' for Inactive)
REMARK    1  A    between atoms: C_1  and  C_2
REMARK    2  A    between atoms: C_7  and  C_8
REMARK    3  A    between atoms: N_10  and  N_11
REMARK    4  A    between atoms: C_12  and  C_14
REMARK    5  A    between atoms: C_14  and  C_15
REMARK    6  A    between atoms: C_15  and  C_16
REMARK    7  A    between atoms: C_16  and  C_17
REMARK    8  A    between atoms: C_17  and  C_18
REMARK    9  A    between atoms: N_20  and  N_21
REMARK   10  A    between atoms: C_22  and  C_24
REMARK   11  A    between atoms: C_29  and  C_30
REMARK                            x       y       z     vdW  Elec       q    Type
REMARK                         _______ _______ _______ _____ _____    ______ ____
ROOT
ATOM      1  C   UNL     1       1.141   4.300  20.148  0.00  0.00    +0.000 C 
ENDROOT
BRANCH   1   2
ATOM      2  C   UNL     1       2.056   5.375  20.729  0.00  0.00    +0.000 C 
BRANCH   2   4
ATOM      3  N   UNL     1       1.954   7.645  19.805  0.00  0.00    +0.000 N 
ATOM      4  C   UNL     1       1.419   6.749  20.706  0.00  0.00    +0.000 C 
ATOM      5  O   UNL     1       0.472   7.043  21.437  0.00  0.00    +0.000 OA
ATOM      6  H   UNL     1       2.708   7.443  19.149  0.00  0.00    +0.000 HD
BRANCH   3   9
ATOM      7  C   UNL     1       1.128   9.495  18.509  0.00  0.00    +0.000 C 
ATOM      8  O   UNL     1       1.420   8.935  17.451  0.00  0.00    +0.000 OA
ATOM      9  N   UNL     1       1.362   8.913  19.734  0.00  0.00    +0.000 N 
ATOM     10  H   UNL     1       1.297   9.409  20.618  0.00  0.00    +0.000 HD
BRANCH   7  17
ATOM     11  C   UNL     1      -1.831  10.244  17.773  0.00  0.00    +0.000 C 
ATOM     12  C   UNL     1      -0.772  11.230  18.185  0.00  0.00    +0.000 A 
ATOM     13  C   UNL     1      -1.144  12.591  18.212  0.00  0.00    +0.000 A 
ATOM     14  C   UNL     1      -0.224  13.591  18.529  0.00  0.00    +0.000 A 
ATOM     15  C   UNL     1       1.088  13.251  18.829  0.00  0.00    +0.000 A 
ATOM     16  C   UNL     1       1.477  11.910  18.816  0.00  0.00    +0.000 A 
ATOM     17  C   UNL     1       0.561  10.885  18.506  0.00  0.00    +0.000 A 
ENDBRANCH   7  17
ENDBRANCH   3   9
ENDBRANCH   2   4
ENDBRANCH   1   2
BRANCH   1  18
ATOM     18  C   UNL     1       1.440   2.917  20.745  0.00  0.00    +0.000 C 
BRANCH  18  19
ATOM     19  C   UNL     1       1.430   1.810  19.685  0.00  0.00    +0.000 C 
BRANCH  19  20
ATOM     20  C   UNL     1       2.261   2.170  18.467  0.00  0.00    +0.000 C 
ATOM     21  O   UNL     1       1.784   2.292  17.339  0.00  0.00    +0.000 OA
ATOM     22  N   UNL     1       3.611   2.311  18.713  0.00  0.00    +0.000 N 
ATOM     23  H   UNL     1       4.047   2.233  19.630  0.00  0.00    +0.000 HD
BRANCH  22  24
ATOM     24  N   UNL     1       4.430   2.688  17.642  0.00  0.00    +0.000 N 
ATOM     25  C   UNL     1       4.629   4.033  17.374  0.00  0.00    +0.000 C 
ATOM     26  O   UNL     1       4.105   4.916  18.046  0.00  0.00    +0.000 OA
ATOM     27  H   UNL     1       4.633   1.957  16.963  0.00  0.00    +0.000 HD
BRANCH  25  28
ATOM     28  C   UNL     1       5.558   4.333  16.231  0.00  0.00    +0.000 A 
ATOM     29  C   UNL     1       5.084   4.124  14.920  0.00  0.00    +0.000 A 
ATOM     30  C   UNL     1       5.901   4.352  13.811  0.00  0.00    +0.000 A 
ATOM     31  C   UNL     1       7.205   4.787  13.993  0.00  0.00    +0.000 A 
ATOM     32  C   UNL     1       7.695   4.988  15.283  0.00  0.00    +0.000 A 
ATOM     33  C   UNL     1       6.895   4.749  16.417  0.00  0.00    +0.000 A 
ATOM     34  C   UNL     1       7.512   5.008  17.766  0.00  0.00    +0.000 C 
ENDBRANCH  25  28
ENDBRANCH  22  24
ENDBRANCH  19  20
ENDBRANCH  18  19
ENDBRANCH   1  18
TORSDOF 9
ENDMDL
MODEL 6
REMARK VINA RESULT:      -7.5      3.010      9.633
REMARK  Name = 
REMARK  11 active torsions:
REMARK  status: ('A' for Active; 'I' for Inactive)
REMARK    1  A    between atoms: C_1  and  C_2
REMARK    2  A    between atoms: C_7  and  C_8
REMARK    3  A    between atoms: N_10  and  N_11
REMARK    4  A    between atoms: C_12  and  C_14
REMARK    5  A    between atoms: C_14  and  C_15
REMARK    6  A    between atoms: C_15  and  C_16
REMARK    7  A    between atoms: C_16  and  C_17
REMARK    8  A    between atoms: C_17  and  C_18
REMARK    9  A    between atoms: N_20  and  N_21
REMARK   10  A    between atoms: C_22  and  C_24
REMARK   11  A    between atoms: C_29  and  C_30
REMARK                            x       y       z     vdW  Elec       q    Type
REMARK                         _______ _______ _______ _____ _____    ______ ____
ROOT
ATOM      1  C   UNL     1       7.831   8.262  17.648  0.00  0.00    +0.000 C 
ENDROOT
BRANCH   1   2
ATOM      2  C   UNL     1       8.335   7.115  18.520  0.00  0.00    +0.000 C 
BRANCH   2   4
ATOM      3  N   UNL     1       6.120   6.144  18.109  0.00  0.00    +0.000 N 
ATOM      4  C   UNL     1       7.224   6.174  18.936  0.00  0.00    +0.000 C 
ATOM      5  O   UNL     1       7.306   5.469  19.942  0.00  0.00    +0.000 OA
ATOM      6  H   UNL     1       6.017   6.674  17.243  0.00  0.00    +0.000 HD
BRANCH   3   9
ATOM      7  C   UNL     1       3.785   5.569  18.146  0.00  0.00    +0.000 C 
ATOM      8  O   UNL     1       3.478   6.618  17.576  0.00  0.00    +0.000 OA
ATOM      9  N   UNL     1       5.091   5.256  18.447  0.00  0.00    +0.000 N 
ATOM     10  H   UNL     1       5.362   4.494  19.062  0.00  0.00    +0.000 HD
BRANCH   7  17
ATOM     11  C   UNL     1       1.883   6.003  20.606  0.00  0.00    +0.000 C 
ATOM     12  C   UNL     1       1.859   4.801  19.703  0.00  0.00    +0.000 A 
ATOM     13  C   UNL     1       0.925   3.790  20.012  0.00  0.00    +0.000 A 
ATOM     14  C   UNL     1       0.855   2.611  19.270  0.00  0.00    +0.000 A 
ATOM     15  C   UNL     1       1.717   2.418  18.200  0.00  0.00    +0.000 A 
ATOM     16  C   UNL     1       2.645   3.408  17.870  0.00  0.00    +0.000 A 
ATOM     17  C   UNL     1       2.726   4.610  18.602  0.00  0.00    +0.000 A 
ENDBRANCH   7  17
ENDBRANCH   3   9
ENDBRANCH   2   4
ENDBRANCH   1   2
BRANCH   1  18
ATOM     18  C   UNL     1       8.094   9.628  18.297  0.00  0.00    +0.000 C 
BRANCH  18  19
ATOM     19  C   UNL     1       9.524  10.123  18.055  0.00  0.00    +0.000 C 
BRANCH  19  20
ATOM     20  C   UNL     1       9.987  11.097  19.123  0.00  0.00    +0.000 C 
ATOM     21  O   UNL     1      11.090  11.642  19.104  0.00  0.00    +0.000 OA
ATOM     22  N   UNL     1       9.085  11.297  20.148  0.00  0.00    +0.000 N 
ATOM     23  H   UNL     1       8.158  10.879  20.198  0.00  0.00    +0.000 HD
BRANCH  22  24
ATOM     24  N   UNL     1       9.429  12.219  21.144  0.00  0.00    +0.000 N 
ATOM     25  C   UNL     1       8.948  13.517  21.068  0.00  0.00    +0.000 C 
ATOM     26  O   UNL     1       8.227  13.893  20.149  0.00  0.00    +0.000 OA
ATOM     27  H   UNL     1      10.218  11.959  21.733  0.00  0.00    +0.000 HD
BRANCH  25  28
ATOM     28  C   UNL     1       9.338  14.417  22.207  0.00  0.00    +0.000 A 
ATOM     29  C   UNL     1       8.648  14.276  23.428  0.00  0.00    +0.000 A 
ATOM     30  C   UNL     1       8.935  15.097  24.520  0.00  0.00    +0.000 A 
ATOM     31  C   UNL     1       9.912  16.076  24.409  0.00  0.00    +0.000 A 
ATOM     32  C   UNL     1      10.596  16.238  23.204  0.00  0.00    +0.000 A 
ATOM     33  C   UNL     1      10.313  15.433  22.085  0.00  0.00    +0.000 A 
ATOM     34  C   UNL     1      11.115  15.678  20.835  0.00  0.00    +0.000 C 
ENDBRANCH  25  28
ENDBRANCH  22  24
ENDBRANCH  19  20
ENDBRANCH  18  19
ENDBRANCH   1  18
TORSDOF 9
ENDMDL
MODEL 7
REMARK VINA RESULT:      -7.5      4.847     11.088
REMARK  Name = 
REMARK  11 active torsions:
REMARK  status: ('A' for Active; 'I' for Inactive)
REMARK    1  A    between atoms: C_1  and  C_2
REMARK    2  A    between atoms: C_7  and  C_8
REMARK    3  A    between atoms: N_10  and  N_11
REMARK    4  A    between atoms: C_12  and  C_14
REMARK    5  A    between atoms: C_14  and  C_15
REMARK    6  A    between atoms: C_15  and  C_16
REMARK    7  A    between atoms: C_16  and  C_17
REMARK    8  A    between atoms: C_17  and  C_18
REMARK    9  A    between atoms: N_20  and  N_21
REMARK   10  A    between atoms: C_22  and  C_24
REMARK   11  A    between atoms: C_29  and  C_30
REMARK                            x       y       z     vdW  Elec       q    Type
REMARK                         _______ _______ _______ _____ _____    ______ ____
ROOT
ATOM      1  C   UNL     1      -0.255   8.649  21.575  0.00  0.00    +0.000 C 
ENDROOT
BRANCH   1   2
ATOM      2  C   UNL     1      -0.246   9.560  22.799  0.00  0.00    +0.000 C 
BRANCH   2   4
ATOM      3  N   UNL     1      -1.818  11.275  23.577  0.00  0.00    +0.000 N 
ATOM      4  C   UNL     1      -0.987  10.858  22.558  0.00  0.00    +0.000 C 
ATOM      5  O   UNL     1      -0.847  11.509  21.522  0.00  0.00    +0.000 OA
ATOM      6  H   UNL     1      -1.940  10.798  24.471  0.00  0.00    +0.000 HD
BRANCH   3   9
ATOM      7  C   UNL     1      -3.775  12.642  23.864  0.00  0.00    +0.000 C 
ATOM      8  O   UNL     1      -4.372  11.734  24.446  0.00  0.00    +0.000 OA
ATOM      9  N   UNL     1      -2.489  12.491  23.399  0.00  0.00    +0.000 N 
ATOM     10  H   UNL     1      -2.034  13.148  22.772  0.00  0.00    +0.000 HD
BRANCH   7  17
ATOM     11  C   UNL     1      -3.103  15.390  25.227  0.00  0.00    +0.000 C 
ATOM     12  C   UNL     1      -4.161  15.187  24.177  0.00  0.00    +0.000 A 
ATOM     13  C   UNL     1      -4.917  16.319  23.806  0.00  0.00    +0.000 A 
ATOM     14  C   UNL     1      -5.956  16.230  22.881  0.00  0.00    +0.000 A 
ATOM     15  C   UNL     1      -6.262  15.006  22.303  0.00  0.00    +0.000 A 
ATOM     16  C   UNL     1      -5.522  13.873  22.648  0.00  0.00    +0.000 A 
ATOM     17  C   UNL     1      -4.463  13.944  23.575  0.00  0.00    +0.000 A 
ENDBRANCH   7  17
ENDBRANCH   3   9
ENDBRANCH   2   4
ENDBRANCH   1   2
BRANCH   1  18
ATOM     18  C   UNL     1       1.082   8.694  20.822  0.00  0.00    +0.000 C 
BRANCH  18  19
ATOM     19  C   UNL     1       0.973   9.433  19.483  0.00  0.00    +0.000 C 
BRANCH  19  20
ATOM     20  C   UNL     1       1.867   8.828  18.416  0.00  0.00    +0.000 C 
ATOM     21  O   UNL     1       2.013   9.325  17.299  0.00  0.00    +0.000 OA
ATOM     22  N   UNL     1       2.478   7.647  18.780  0.00  0.00    +0.000 N 
ATOM     23  H   UNL     1       2.398   7.207  19.694  0.00  0.00    +0.000 HD
BRANCH  22  24
ATOM     24  N   UNL     1       3.354   7.058  17.859  0.00  0.00    +0.000 N 
ATOM     25  C   UNL     1       4.232   6.074  18.284  0.00  0.00    +0.000 C 
ATOM     26  O   UNL     1       4.273   5.696  19.451  0.00  0.00    +0.000 OA
ATOM     27  H   UNL     1       3.476   7.562  16.982  0.00  0.00    +0.000 HD
BRANCH  25  28
ATOM     28  C   UNL     1       5.099   5.476  17.212  0.00  0.00    +0.000 A 
ATOM     29  C   UNL     1       4.639   4.313  16.561  0.00  0.00    +0.000 A 
ATOM     30  C   UNL     1       5.404   3.685  15.576  0.00  0.00    +0.000 A 
ATOM     31  C   UNL     1       6.642   4.204  15.229  0.00  0.00    +0.000 A 
ATOM     32  C   UNL     1       7.119   5.346  15.872  0.00  0.00    +0.000 A 
ATOM     33  C   UNL     1       6.373   5.988  16.878  0.00  0.00    +0.000 A 
ATOM     34  C   UNL     1       6.969   7.221  17.502  0.00  0.00    +0.000 C 
ENDBRANCH  25  28
ENDBRANCH  22  24
ENDBRANCH  19  20
ENDBRANCH  18  19
ENDBRANCH   1  18
TORSDOF 9
ENDMDL
MODEL 8
REMARK VINA RESULT:      -7.4      1.440      1.612
REMARK  Name = 
REMARK  11 active torsions:
REMARK  status: ('A' for Active; 'I' for Inactive)
REMARK    1  A    between atoms: C_1  and  C_2
REMARK    2  A    between atoms: C_7  and  C_8
REMARK    3  A    between atoms: N_10  and  N_11
REMARK    4  A    between atoms: C_12  and  C_14
REMARK    5  A    between atoms: C_14  and  C_15
REMARK    6  A    between atoms: C_15  and  C_16
REMARK    7  A    between atoms: C_16  and  C_17
REMARK    8  A    between atoms: C_17  and  C_18
REMARK    9  A    between atoms: N_20  and  N_21
REMARK   10  A    between atoms: C_22  and  C_24
REMARK   11  A    between atoms: C_29  and  C_30
REMARK                            x       y       z     vdW  Elec       q    Type
REMARK                         _______ _______ _______ _____ _____    ______ ____
ROOT
ATOM      1  C   UNL     1       6.359   5.704  18.107  0.00  0.00    +0.000 C 
ENDROOT
BRANCH   1   2
ATOM      2  C   UNL     1       7.655   6.253  18.697  0.00  0.00    +0.000 C 
BRANCH   2   4
ATOM      3  N   UNL     1       8.655   8.475  18.978  0.00  0.00    +0.000 N 
ATOM      4  C   UNL     1       8.029   7.600  18.115  0.00  0.00    +0.000 C 
ATOM      5  O   UNL     1       7.801   7.891  16.941  0.00  0.00    +0.000 OA
ATOM      6  H   UNL     1       8.905   8.271  19.946  0.00  0.00    +0.000 HD
BRANCH   3   9
ATOM      7  C   UNL     1       9.554  10.682  19.298  0.00  0.00    +0.000 C 
ATOM      8  O   UNL     1       9.685  10.496  20.509  0.00  0.00    +0.000 OA
ATOM      9  N   UNL     1       9.046   9.715  18.460  0.00  0.00    +0.000 N 
ATOM     10  H   UNL     1       8.765   9.891  17.500  0.00  0.00    +0.000 HD
BRANCH   7  17
ATOM     11  C   UNL     1       8.354  13.438  20.207  0.00  0.00    +0.000 C 
ATOM     12  C   UNL     1       9.355  13.260  19.099  0.00  0.00    +0.000 A 
ATOM     13  C   UNL     1       9.756  14.424  18.409  0.00  0.00    +0.000 A 
ATOM     14  C   UNL     1      10.640  14.364  17.331  0.00  0.00    +0.000 A 
ATOM     15  C   UNL     1      11.145  13.138  16.922  0.00  0.00    +0.000 A 
ATOM     16  C   UNL     1      10.769  11.974  17.595  0.00  0.00    +0.000 A 
ATOM     17  C   UNL     1       9.884  12.014  18.690  0.00  0.00    +0.000 A 
ENDBRANCH   7  17
ENDBRANCH   3   9
ENDBRANCH   2   4
ENDBRANCH   1   2
BRANCH   1  18
ATOM     18  C   UNL     1       5.597   4.835  19.118  0.00  0.00    +0.000 C 
BRANCH  18  19
ATOM     19  C   UNL     1       4.294   4.272  18.539  0.00  0.00    +0.000 C 
BRANCH  19  20
ATOM     20  C   UNL     1       3.139   5.250  18.659  0.00  0.00    +0.000 C 
ATOM     21  O   UNL     1       2.131   5.189  17.956  0.00  0.00    +0.000 OA
ATOM     22  N   UNL     1       3.325   6.246  19.594  0.00  0.00    +0.000 N 
ATOM     23  H   UNL     1       4.134   6.328  20.206  0.00  0.00    +0.000 HD
BRANCH  22  24
ATOM     24  N   UNL     1       2.278   7.156  19.789  0.00  0.00    +0.000 N 
ATOM     25  C   UNL     1       2.183   8.272  18.973  0.00  0.00    +0.000 C 
ATOM     26  O   UNL     1       2.991   8.497  18.078  0.00  0.00    +0.000 OA
ATOM     27  H   UNL     1       1.791   7.084  20.680  0.00  0.00    +0.000 HD
BRANCH  25  28
ATOM     28  C   UNL     1       1.001   9.164  19.235  0.00  0.00    +0.000 A 
ATOM     29  C   UNL     1       0.305   9.683  18.124  0.00  0.00    +0.000 A 
ATOM     30  C   UNL     1      -0.784  10.541  18.290  0.00  0.00    +0.000 A 
ATOM     31  C   UNL     1      -1.191  10.900  19.566  0.00  0.00    +0.000 A 
ATOM     32  C   UNL     1      -0.506  10.407  20.676  0.00  0.00    +0.000 A 
ATOM     33  C   UNL     1       0.604   9.552  20.534  0.00  0.00    +0.000 A 
ATOM     34  C   UNL     1       1.267   9.064  21.793  0.00  0.00    +0.000 C 
ENDBRANCH  25  28
ENDBRANCH  22  24
ENDBRANCH  19  20
ENDBRANCH  18  19
ENDBRANCH   1  18
TORSDOF 9
ENDMDL
MODEL 9
REMARK VINA RESULT:      -7.4      3.098     10.084
REMARK  Name = 
REMARK  11 active torsions:
REMARK  status: ('A' for Active; 'I' for Inactive)
REMARK    1  A    between atoms: C_1  and  C_2
REMARK    2  A    between atoms: C_7  and  C_8
REMARK    3  A    between atoms: N_10  and  N_11
REMARK    4  A    between atoms: C_12  and  C_14
REMARK    5  A    between atoms: C_14  and  C_15
REMARK    6  A    between atoms: C_15  and  C_16
REMARK    7  A    between atoms: C_16  and  C_17
REMARK    8  A    between atoms: C_17  and  C_18
REMARK    9  A    between atoms: N_20  and  N_21
REMARK   10  A    between atoms: C_22  and  C_24
REMARK   11  A    between atoms: C_29  and  C_30
REMARK                            x       y       z     vdW  Elec       q    Type
REMARK                         _______ _______ _______ _____ _____    ______ ____
ROOT
ATOM      1  C   UNL     1       7.363   8.236  17.629  0.00  0.00    +0.000 C 
ENDROOT
BRANCH   1   2
ATOM      2  C   UNL     1       7.915   6.831  17.406  0.00  0.00    +0.000 C 
BRANCH   2   4
ATOM      3  N   UNL     1       5.943   6.034  18.627  0.00  0.00    +0.000 N 
ATOM      4  C   UNL     1       6.877   5.756  17.651  0.00  0.00    +0.000 C 
ATOM      5  O   UNL     1       6.859   4.705  17.010  0.00  0.00    +0.000 OA
ATOM      6  H   UNL     1       5.886   6.903  19.159  0.00  0.00    +0.000 HD
BRANCH   3   9
ATOM      7  C   UNL     1       3.685   5.258  18.333  0.00  0.00    +0.000 C 
ATOM      8  O   UNL     1       3.391   6.249  17.662  0.00  0.00    +0.000 OA
ATOM      9  N   UNL     1       4.947   5.075  18.852  0.00  0.00    +0.000 N 
ATOM     10  H   UNL     1       5.176   4.369  19.545  0.00  0.00    +0.000 HD
BRANCH   7  17
ATOM     11  C   UNL     1       1.732   5.399  20.788  0.00  0.00    +0.000 C 
ATOM     12  C   UNL     1       1.757   4.291  19.772  0.00  0.00    +0.000 A 
ATOM     13  C   UNL     1       0.847   3.229  19.963  0.00  0.00    +0.000 A 
ATOM     14  C   UNL     1       0.823   2.127  19.109  0.00  0.00    +0.000 A 
ATOM     15  C   UNL     1       1.707   2.063  18.041  0.00  0.00    +0.000 A 
ATOM     16  C   UNL     1       2.611   3.105  17.827  0.00  0.00    +0.000 A 
ATOM     17  C   UNL     1       2.646   4.231  18.674  0.00  0.00    +0.000 A 
ENDBRANCH   7  17
ENDBRANCH   3   9
ENDBRANCH   2   4
ENDBRANCH   1   2
BRANCH   1  18
ATOM     18  C   UNL     1       8.477   9.291  17.633  0.00  0.00    +0.000 C 
BRANCH  18  19
ATOM     19  C   UNL     1       9.078   9.501  19.028  0.00  0.00    +0.000 C 
BRANCH  19  20
ATOM     20  C   UNL     1       9.413  10.956  19.299  0.00  0.00    +0.000 C 
ATOM     21  O   UNL     1       9.844  11.357  20.380  0.00  0.00    +0.000 OA
ATOM     22  N   UNL     1       9.158  11.810  18.247  0.00  0.00    +0.000 N 
ATOM     23  H   UNL     1       8.816  11.523  17.332  0.00  0.00    +0.000 HD
BRANCH  22  24
ATOM     24  N   UNL     1       9.488  13.161  18.413  0.00  0.00    +0.000 N 
ATOM     25  C   UNL     1      10.720  13.622  17.976  0.00  0.00    +0.000 C 
ATOM     26  O   UNL     1      11.543  12.883  17.446  0.00  0.00    +0.000 OA
ATOM     27  H   UNL     1       8.911  13.678  19.073  0.00  0.00    +0.000 HD
BRANCH  25  28
ATOM     28  C   UNL     1      10.960  15.095  18.161  0.00  0.00    +0.000 A 
ATOM     29  C   UNL     1      11.115  15.890  17.006  0.00  0.00    +0.000 A 
ATOM     30  C   UNL     1      11.371  17.259  17.101  0.00  0.00    +0.000 A 
ATOM     31  C   UNL     1      11.481  17.855  18.348  0.00  0.00    +0.000 A 
ATOM     32  C   UNL     1      11.344  17.082  19.501  0.00  0.00    +0.000 A 
ATOM     33  C   UNL     1      11.101  15.697  19.431  0.00  0.00    +0.000 A 
ATOM     34  C   UNL     1      10.956  14.953  20.731  0.00  0.00    +0.000 C 
ENDBRANCH  25  28
ENDBRANCH  22  24
ENDBRANCH  19  20
ENDBRANCH  18  19
ENDBRANCH   1  18
TORSDOF 9
ENDMDL
