MODEL 1
REMARK VINA RESULT:      -7.1      0.000      0.000
REMARK  Name = 
REMARK  16 active torsions:
REMARK  status: ('A' for Active; 'I' for Inactive)
REMARK    1  A    between atoms: C_1  and  C_2
REMARK    2  A    between atoms: C_2  and  C_3
REMARK    3  A    between atoms: C_3  and  C_4
REMARK    4  A    between atoms: C_4  and  C_5
REMARK    5  A    between atoms: N_7  and  C_8
REMARK    6  A    between atoms: N_7  and  C_12
REMARK    7  A    between atoms: C_8  and  C_9
REMARK    8  A    between atoms: C_9  and  O_10
REMARK    9  A    between atoms: O_10  and  C_11
REMARK   10  A    between atoms: C_12  and  C_13
REMARK   11  A    between atoms: C_16  and  C_17
REMARK   12  A    between atoms: C_20  and  C_21
REMARK   13  A    between atoms: C_21  and  N_22
REMARK   14  A    between atoms: N_22  and  C_23
REMARK   15  A    between atoms: C_23  and  C_24
REMARK   16  A    between atoms: C_24  and  C_25
REMARK                            x       y       z     vdW  Elec       q    Type
REMARK                         _______ _______ _______ _____ _____    ______ ____
ROOT
ATOM      1  C   UNL     1       2.643   6.779  18.516  0.00  0.00    +0.000 A 
ATOM      2  C   UNL     1       2.403   6.447  19.853  0.00  0.00    +0.000 A 
ATOM      3  C   UNL     1       1.789   7.366  20.704  0.00  0.00    +0.000 A 
ATOM      4  C   UNL     1       1.386   8.629  20.239  0.00  0.00    +0.000 A 
ATOM      5  C   UNL     1       1.659   8.956  18.899  0.00  0.00    +0.000 A 
ATOM      6  C   UNL     1       2.281   8.045  18.048  0.00  0.00    +0.000 A 
ENDROOT
BRANCH   4   7
ATOM      7  C   UNL     1       0.633   9.555  21.096  0.00  0.00    +0.000 A 
ATOM      8  C   UNL     1      -0.018   9.154  22.261  0.00  0.00    +0.000 A 
ATOM      9  C   UNL     1      -0.796  10.078  22.953  0.00  0.00    +0.000 A 
ATOM     10  C   UNL     1      -0.907  11.385  22.476  0.00  0.00    +0.000 A 
ATOM     11  C   UNL     1      -0.204  11.705  21.324  0.00  0.00    +0.000 A 
ATOM     12  N   UNL     1       0.561  10.831  20.637  0.00  0.00    +0.000 NA
BRANCH  10  13
ATOM     13  C   UNL     1      -1.766  12.405  23.169  0.00  0.00    +0.000 C 
BRANCH  13  14
ATOM     14  N   UNL     1      -3.061  11.835  23.528  0.00  0.00    +0.000 NA
ATOM     15  H   UNL     1      -2.915  10.922  23.961  0.00  0.00    +0.000 HD
BRANCH  14  16
ATOM     16  C   UNL     1      -3.782  12.710  24.448  0.00  0.00    +0.000 C 
BRANCH  16  17
ATOM     17  C   UNL     1      -4.787  13.548  23.661  0.00  0.00    +0.000 C 
ATOM     18  C   UNL     1      -6.172  12.922  23.697  0.00  0.00    +0.000 C 
ENDBRANCH  16  17
ENDBRANCH  14  16
ENDBRANCH  13  14
ENDBRANCH  10  13
ENDBRANCH   4   7
BRANCH   1  19
ATOM     19  C   UNL     1       3.308   5.799  17.593  0.00  0.00    +0.000 C 
BRANCH  19  22
ATOM     20  C   UNL     1       4.341   3.848  18.675  0.00  0.00    +0.000 C 
ATOM     21  O   UNL     1       5.151   3.306  19.430  0.00  0.00    +0.000 OA
ATOM     22  N   UNL     1       4.527   5.105  18.040  0.00  0.00    +0.000 N 
BRANCH  20  23
ATOM     23  C   UNL     1       3.004   3.182  18.348  0.00  0.00    +0.000 C 
BRANCH  23  24
ATOM     24  C   UNL     1       2.567   1.971  19.164  0.00  0.00    +0.000 C 
BRANCH  24  26
ATOM     25  C   UNL     1       0.684   3.416  20.112  0.00  0.00    +0.000 C 
ATOM     26  C   UNL     1       1.844   2.492  20.417  0.00  0.00    +0.000 C 
ENDBRANCH  24  26
ENDBRANCH  23  24
ENDBRANCH  20  23
BRANCH  22  27
ATOM     27  C   UNL     1       5.732   5.931  18.284  0.00  0.00    +0.000 C 
BRANCH  27  28
ATOM     28  C   UNL     1       6.270   6.854  17.177  0.00  0.00    +0.000 C 
BRANCH  28  29
ATOM     29  O   UNL     1       7.385   6.277  16.491  0.00  0.00    +0.000 OA
ATOM     30  C   UNL     1       6.968   5.178  15.686  0.00  0.00    +0.000 C 
ENDBRANCH  28  29
ENDBRANCH  27  28
ENDBRANCH  22  27
ENDBRANCH  19  22
ENDBRANCH   1  19
TORSDOF 13
ENDMDL
MODEL 2
REMARK VINA RESULT:      -7.1      0.971      1.212
REMARK  Name = 
REMARK  16 active torsions:
REMARK  status: ('A' for Active; 'I' for Inactive)
REMARK    1  A    between atoms: C_1  and  C_2
REMARK    2  A    between atoms: C_2  and  C_3
REMARK    3  A    between atoms: C_3  and  C_4
REMARK    4  A    between atoms: C_4  and  C_5
REMARK    5  A    between atoms: N_7  and  C_8
REMARK    6  A    between atoms: N_7  and  C_12
REMARK    7  A    between atoms: C_8  and  C_9
REMARK    8  A    between atoms: C_9  and  O_10
REMARK    9  A    between atoms: O_10  and  C_11
REMARK   10  A    between atoms: C_12  and  C_13
REMARK   11  A    between atoms: C_16  and  C_17
REMARK   12  A    between atoms: C_20  and  C_21
REMARK   13  A    between atoms: C_21  and  N_22
REMARK   14  A    between atoms: N_22  and  C_23
REMARK   15  A    between atoms: C_23  and  C_24
REMARK   16  A    between atoms: C_24  and  C_25
REMARK                            x       y       z     vdW  Elec       q    Type
REMARK                         _______ _______ _______ _____ _____    ______ ____
ROOT
ATOM      1  C   UNL     1       2.675   6.473  18.681  0.00  0.00    +0.000 A 
ATOM      2  C   UNL     1       2.345   6.161  20.003  0.00  0.00    +0.000 A 
ATOM      3  C   UNL     1       1.732   7.116  20.816  0.00  0.00    +0.000 A 
ATOM      4  C   UNL     1       1.421   8.395  20.325  0.00  0.00    +0.000 A 
ATOM      5  C   UNL     1       1.784   8.699  19.001  0.00  0.00    +0.000 A 
ATOM      6  C   UNL     1       2.404   7.753  18.189  0.00  0.00    +0.000 A 
ENDROOT
BRANCH   4   7
ATOM      7  C   UNL     1       0.670   9.364  21.136  0.00  0.00    +0.000 A 
ATOM      8  C   UNL     1       0.152   9.062  22.393  0.00  0.00    +0.000 A 
ATOM      9  C   UNL     1      -0.637  10.007  23.043  0.00  0.00    +0.000 A 
ATOM     10  C   UNL     1      -0.891  11.236  22.433  0.00  0.00    +0.000 A 
ATOM     11  C   UNL     1      -0.313  11.463  21.193  0.00  0.00    +0.000 A 
ATOM     12  N   UNL     1       0.460  10.567  20.543  0.00  0.00    +0.000 NA
BRANCH  10  13
ATOM     13  C   UNL     1      -1.768  12.271  23.081  0.00  0.00    +0.000 C 
BRANCH  13  14
ATOM     14  N   UNL     1      -1.743  13.518  22.323  0.00  0.00    +0.000 NA
ATOM     15  H   UNL     1      -1.329  13.344  21.406  0.00  0.00    +0.000 HD
BRANCH  14  16
ATOM     16  C   UNL     1      -3.090  14.059  22.162  0.00  0.00    +0.000 C 
BRANCH  16  17
ATOM     17  C   UNL     1      -4.089  13.140  22.861  0.00  0.00    +0.000 C 
ATOM     18  C   UNL     1      -5.077  13.939  23.696  0.00  0.00    +0.000 C 
ENDBRANCH  16  17
ENDBRANCH  14  16
ENDBRANCH  13  14
ENDBRANCH  10  13
ENDBRANCH   4   7
BRANCH   1  19
ATOM     19  C   UNL     1       3.339   5.455  17.799  0.00  0.00    +0.000 C 
BRANCH  19  22
ATOM     20  C   UNL     1       4.174   3.383  18.827  0.00  0.00    +0.000 C 
ATOM     21  O   UNL     1       4.871   2.752  19.624  0.00  0.00    +0.000 OA
ATOM     22  N   UNL     1       4.474   4.679  18.326  0.00  0.00    +0.000 N 
BRANCH  20  23
ATOM     23  C   UNL     1       2.867   2.800  18.290  0.00  0.00    +0.000 C 
BRANCH  23  24
ATOM     24  C   UNL     1       2.002   1.956  19.219  0.00  0.00    +0.000 C 
BRANCH  24  26
ATOM     25  C   UNL     1       1.645   2.798  21.606  0.00  0.00    +0.000 C 
ATOM     26  C   UNL     1       1.246   2.918  20.150  0.00  0.00    +0.000 C 
ENDBRANCH  24  26
ENDBRANCH  23  24
ENDBRANCH  20  23
BRANCH  22  27
ATOM     27  C   UNL     1       5.665   5.434  18.779  0.00  0.00    +0.000 C 
BRANCH  27  28
ATOM     28  C   UNL     1       6.629   6.043  17.746  0.00  0.00    +0.000 C 
BRANCH  28  29
ATOM     29  O   UNL     1       7.691   6.774  18.368  0.00  0.00    +0.000 OA
ATOM     30  C   UNL     1       7.843   8.054  17.761  0.00  0.00    +0.000 C 
ENDBRANCH  28  29
ENDBRANCH  27  28
ENDBRANCH  22  27
ENDBRANCH  19  22
ENDBRANCH   1  19
TORSDOF 13
ENDMDL
MODEL 3
REMARK VINA RESULT:      -7.0      1.046      1.162
REMARK  Name = 
REMARK  16 active torsions:
REMARK  status: ('A' for Active; 'I' for Inactive)
REMARK    1  A    between atoms: C_1  and  C_2
REMARK    2  A    between atoms: C_2  and  C_3
REMARK    3  A    between atoms: C_3  and  C_4
REMARK    4  A    between atoms: C_4  and  C_5
REMARK    5  A    between atoms: N_7  and  C_8
REMARK    6  A    between atoms: N_7  and  C_12
REMARK    7  A    between atoms: C_8  and  C_9
REMARK    8  A    between atoms: C_9  and  O_10
REMARK    9  A    between atoms: O_10  and  C_11
REMARK   10  A    between atoms: C_12  and  C_13
REMARK   11  A    between atoms: C_16  and  C_17
REMARK   12  A    between atoms: C_20  and  C_21
REMARK   13  A    between atoms: C_21  and  N_22
REMARK   14  A    between atoms: N_22  and  C_23
REMARK   15  A    between atoms: C_23  and  C_24
REMARK   16  A    between atoms: C_24  and  C_25
REMARK                            x       y       z     vdW  Elec       q    Type
REMARK                         _______ _______ _______ _____ _____    ______ ____
ROOT
ATOM      1  C   UNL     1       2.633   6.476  18.635  0.00  0.00    +0.000 A 
ATOM      2  C   UNL     1       2.278   6.156  19.949  0.00  0.00    +0.000 A 
ATOM      3  C   UNL     1       1.691   7.119  20.771  0.00  0.00    +0.000 A 
ATOM      4  C   UNL     1       1.432   8.417  20.297  0.00  0.00    +0.000 A 
ATOM      5  C   UNL     1       1.819   8.728  18.982  0.00  0.00    +0.000 A 
ATOM      6  C   UNL     1       2.414   7.773  18.161  0.00  0.00    +0.000 A 
ENDROOT
BRANCH   4   7
ATOM      7  C   UNL     1       0.707   9.399  21.116  0.00  0.00    +0.000 A 
ATOM      8  C   UNL     1       0.079   9.073  22.316  0.00  0.00    +0.000 A 
ATOM      9  C   UNL     1      -0.674  10.044  22.971  0.00  0.00    +0.000 A 
ATOM     10  C   UNL     1      -0.783  11.322  22.422  0.00  0.00    +0.000 A 
ATOM     11  C   UNL     1      -0.103  11.568  21.239  0.00  0.00    +0.000 A 
ATOM     12  N   UNL     1       0.638  10.647  20.586  0.00  0.00    +0.000 NA
BRANCH  10  13
ATOM     13  C   UNL     1      -1.615  12.390  23.074  0.00  0.00    +0.000 C 
BRANCH  13  14
ATOM     14  N   UNL     1      -2.590  12.934  22.133  0.00  0.00    +0.000 NA
ATOM     15  H   UNL     1      -3.495  12.493  22.298  0.00  0.00    +0.000 HD
BRANCH  14  16
ATOM     16  C   UNL     1      -2.710  14.381  22.282  0.00  0.00    +0.000 C 
BRANCH  16  17
ATOM     17  C   UNL     1      -4.062  14.712  22.912  0.00  0.00    +0.000 C 
ATOM     18  C   UNL     1      -3.894  15.222  24.335  0.00  0.00    +0.000 C 
ENDBRANCH  16  17
ENDBRANCH  14  16
ENDBRANCH  13  14
ENDBRANCH  10  13
ENDBRANCH   4   7
BRANCH   1  19
ATOM     19  C   UNL     1       3.269   5.450  17.744  0.00  0.00    +0.000 C 
BRANCH  19  22
ATOM     20  C   UNL     1       4.080   3.364  18.763  0.00  0.00    +0.000 C 
ATOM     21  O   UNL     1       4.776   2.720  19.551  0.00  0.00    +0.000 OA
ATOM     22  N   UNL     1       4.397   4.653  18.257  0.00  0.00    +0.000 N 
BRANCH  20  23
ATOM     23  C   UNL     1       2.756   2.804  18.246  0.00  0.00    +0.000 C 
BRANCH  23  24
ATOM     24  C   UNL     1       1.911   1.937  19.172  0.00  0.00    +0.000 C 
BRANCH  24  26
ATOM     25  C   UNL     1       1.521   2.874  21.518  0.00  0.00    +0.000 C 
ATOM     26  C   UNL     1       1.088   2.878  20.067  0.00  0.00    +0.000 C 
ENDBRANCH  24  26
ENDBRANCH  23  24
ENDBRANCH  20  23
BRANCH  22  27
ATOM     27  C   UNL     1       5.608   5.387  18.691  0.00  0.00    +0.000 C 
BRANCH  27  28
ATOM     28  C   UNL     1       6.844   5.443  17.778  0.00  0.00    +0.000 C 
BRANCH  28  29
ATOM     29  O   UNL     1       6.880   4.351  16.854  0.00  0.00    +0.000 OA
ATOM     30  C   UNL     1       7.040   4.824  15.520  0.00  0.00    +0.000 C 
ENDBRANCH  28  29
ENDBRANCH  27  28
ENDBRANCH  22  27
ENDBRANCH  19  22
ENDBRANCH   1  19
TORSDOF 13
ENDMDL
MODEL 4
REMARK VINA RESULT:      -7.0      1.272      1.446
REMARK  Name = 
REMARK  16 active torsions:
REMARK  status: ('A' for Active; 'I' for Inactive)
REMARK    1  A    between atoms: C_1  and  C_2
REMARK    2  A    between atoms: C_2  and  C_3
REMARK    3  A    between atoms: C_3  and  C_4
REMARK    4  A    between atoms: C_4  and  C_5
REMARK    5  A    between atoms: N_7  and  C_8
REMARK    6  A    between atoms: N_7  and  C_12
REMARK    7  A    between atoms: C_8  and  C_9
REMARK    8  A    between atoms: C_9  and  O_10
REMARK    9  A    between atoms: O_10  and  C_11
REMARK   10  A    between atoms: C_12  and  C_13
REMARK   11  A    between atoms: C_16  and  C_17
REMARK   12  A    between atoms: C_20  and  C_21
REMARK   13  A    between atoms: C_21  and  N_22
REMARK   14  A    between atoms: N_22  and  C_23
REMARK   15  A    between atoms: C_23  and  C_24
REMARK   16  A    between atoms: C_24  and  C_25
REMARK                            x       y       z     vdW  Elec       q    Type
REMARK                         _______ _______ _______ _____ _____    ______ ____
ROOT
ATOM      1  C   UNL     1       2.866   6.534  18.429  0.00  0.00    +0.000 A 
ATOM      2  C   UNL     1       2.375   6.490  19.737  0.00  0.00    +0.000 A 
ATOM      3  C   UNL     1       1.709   7.592  20.273  0.00  0.00    +0.000 A 
ATOM      4  C   UNL     1       1.506   8.757  19.513  0.00  0.00    +0.000 A 
ATOM      5  C   UNL     1       2.029   8.793  18.210  0.00  0.00    +0.000 A 
ATOM      6  C   UNL     1       2.703   7.698  17.673  0.00  0.00    +0.000 A 
ENDROOT
BRANCH   4   7
ATOM      7  C   UNL     1       0.704   9.876  20.028  0.00  0.00    +0.000 A 
ATOM      8  C   UNL     1       0.976  10.512  21.237  0.00  0.00    +0.000 A 
ATOM      9  C   UNL     1       0.100  11.492  21.698  0.00  0.00    +0.000 A 
ATOM     10  C   UNL     1      -1.026  11.823  20.944  0.00  0.00    +0.000 A 
ATOM     11  C   UNL     1      -1.205  11.159  19.740  0.00  0.00    +0.000 A 
ATOM     12  N   UNL     1      -0.370  10.210  19.268  0.00  0.00    +0.000 NA
BRANCH  10  13
ATOM     13  C   UNL     1      -2.018  12.847  21.420  0.00  0.00    +0.000 C 
BRANCH  13  14
ATOM     14  N   UNL     1      -2.044  12.906  22.878  0.00  0.00    +0.000 NA
ATOM     15  H   UNL     1      -2.216  13.868  23.171  0.00  0.00    +0.000 HD
BRANCH  14  16
ATOM     16  C   UNL     1      -3.080  12.031  23.419  0.00  0.00    +0.000 C 
BRANCH  16  17
ATOM     17  C   UNL     1      -3.910  12.806  24.441  0.00  0.00    +0.000 C 
ATOM     18  C   UNL     1      -3.473  14.261  24.513  0.00  0.00    +0.000 C 
ENDBRANCH  16  17
ENDBRANCH  14  16
ENDBRANCH  13  14
ENDBRANCH  10  13
ENDBRANCH   4   7
BRANCH   1  19
ATOM     19  C   UNL     1       3.588   5.355  17.844  0.00  0.00    +0.000 C 
BRANCH  19  22
ATOM     20  C   UNL     1       4.225   3.351  19.118  0.00  0.00    +0.000 C 
ATOM     21  O   UNL     1       4.728   2.772  20.084  0.00  0.00    +0.000 OA
ATOM     22  N   UNL     1       4.587   4.646  18.661  0.00  0.00    +0.000 N 
BRANCH  20  23
ATOM     23  C   UNL     1       3.116   2.693  18.298  0.00  0.00    +0.000 C 
BRANCH  23  24
ATOM     24  C   UNL     1       2.016   1.929  19.027  0.00  0.00    +0.000 C 
BRANCH  24  26
ATOM     25  C   UNL     1       1.320   2.966  21.258  0.00  0.00    +0.000 C 
ATOM     26  C   UNL     1       1.138   2.961  19.754  0.00  0.00    +0.000 C 
ENDBRANCH  24  26
ENDBRANCH  23  24
ENDBRANCH  20  23
BRANCH  22  27
ATOM     27  C   UNL     1       5.598   5.468  19.365  0.00  0.00    +0.000 C 
BRANCH  27  28
ATOM     28  C   UNL     1       7.014   5.614  18.782  0.00  0.00    +0.000 C 
BRANCH  28  29
ATOM     29  O   UNL     1       7.464   4.409  18.155  0.00  0.00    +0.000 OA
ATOM     30  C   UNL     1       7.426   4.536  16.735  0.00  0.00    +0.000 C 
ENDBRANCH  28  29
ENDBRANCH  27  28
ENDBRANCH  22  27
ENDBRANCH  19  22
ENDBRANCH   1  19
TORSDOF 13
ENDMDL
MODEL 5
REMARK VINA RESULT:      -6.9      2.394      3.422
REMARK  Name = 
REMARK  16 active torsions:
REMARK  status: ('A' for Active; 'I' for Inactive)
REMARK    1  A    between atoms: C_1  and  C_2
REMARK    2  A    between atoms: C_2  and  C_3
REMARK    3  A    between atoms: C_3  and  C_4
REMARK    4  A    between atoms: C_4  and  C_5
REMARK    5  A    between atoms: N_7  and  C_8
REMARK    6  A    between atoms: N_7  and  C_12
REMARK    7  A    between atoms: C_8  and  C_9
REMARK    8  A    between atoms: C_9  and  O_10
REMARK    9  A    between atoms: O_10  and  C_11
REMARK   10  A    between atoms: C_12  and  C_13
REMARK   11  A    between atoms: C_16  and  C_17
REMARK   12  A    between atoms: C_20  and  C_21
REMARK   13  A    between atoms: C_21  and  N_22
REMARK   14  A    between atoms: N_22  and  C_23
REMARK   15  A    between atoms: C_23  and  C_24
REMARK   16  A    between atoms: C_24  and  C_25
REMARK                            x       y       z     vdW  Elec       q    Type
REMARK                         _______ _______ _______ _____ _____    ______ ____
ROOT
ATOM      1  C   UNL     1       2.775   6.664  19.149  0.00  0.00    +0.000 A 
ATOM      2  C   UNL     1       2.156   6.930  20.373  0.00  0.00    +0.000 A 
ATOM      3  C   UNL     1       1.439   8.113  20.554  0.00  0.00    +0.000 A 
ATOM      4  C   UNL     1       1.311   9.050  19.514  0.00  0.00    +0.000 A 
ATOM      5  C   UNL     1       1.962   8.779  18.299  0.00  0.00    +0.000 A 
ATOM      6  C   UNL     1       2.687   7.603  18.117  0.00  0.00    +0.000 A 
ENDROOT
BRANCH   4   7
ATOM      7  C   UNL     1       0.461  10.240  19.658  0.00  0.00    +0.000 A 
ATOM      8  C   UNL     1      -0.328  10.739  18.623  0.00  0.00    +0.000 A 
ATOM      9  C   UNL     1      -1.019  11.932  18.815  0.00  0.00    +0.000 A 
ATOM     10  C   UNL     1      -0.917  12.603  20.034  0.00  0.00    +0.000 A 
ATOM     11  C   UNL     1      -0.131  12.021  21.018  0.00  0.00    +0.000 A 
ATOM     12  N   UNL     1       0.545  10.864  20.860  0.00  0.00    +0.000 NA
BRANCH  10  13
ATOM     13  C   UNL     1      -1.614  13.913  20.273  0.00  0.00    +0.000 C 
BRANCH  13  14
ATOM     14  N   UNL     1      -1.134  14.932  19.345  0.00  0.00    +0.000 NA
ATOM     15  H   UNL     1      -1.894  15.581  19.139  0.00  0.00    +0.000 HD
BRANCH  14  16
ATOM     16  C   UNL     1      -0.000  15.660  19.907  0.00  0.00    +0.000 C 
BRANCH  16  17
ATOM     17  C   UNL     1       1.089  15.794  18.844  0.00  0.00    +0.000 C 
ATOM     18  C   UNL     1       1.845  14.488  18.666  0.00  0.00    +0.000 C 
ENDBRANCH  16  17
ENDBRANCH  14  16
ENDBRANCH  13  14
ENDBRANCH  10  13
ENDBRANCH   4   7
BRANCH   1  19
ATOM     19  C   UNL     1       3.553   5.396  18.945  0.00  0.00    +0.000 C 
BRANCH  19  22
ATOM     20  C   UNL     1       2.498   3.762  17.441  0.00  0.00    +0.000 C 
ATOM     21  O   UNL     1       2.523   2.862  16.599  0.00  0.00    +0.000 OA
ATOM     22  N   UNL     1       3.516   4.735  17.630  0.00  0.00    +0.000 N 
BRANCH  20  23
ATOM     23  C   UNL     1       1.316   3.911  18.398  0.00  0.00    +0.000 C 
BRANCH  23  24
ATOM     24  C   UNL     1       0.993   2.765  19.351  0.00  0.00    +0.000 C 
BRANCH  24  26
ATOM     25  C   UNL     1       2.322   2.962  21.525  0.00  0.00    +0.000 C 
ATOM     26  C   UNL     1       1.052   3.322  20.783  0.00  0.00    +0.000 C 
ENDBRANCH  24  26
ENDBRANCH  23  24
ENDBRANCH  20  23
BRANCH  22  27
ATOM     27  C   UNL     1       4.769   4.716  16.840  0.00  0.00    +0.000 C 
BRANCH  27  28
ATOM     28  C   UNL     1       5.159   5.934  15.985  0.00  0.00    +0.000 C 
BRANCH  28  29
ATOM     29  O   UNL     1       6.560   6.215  16.056  0.00  0.00    +0.000 OA
ATOM     30  C   UNL     1       6.959   6.447  17.404  0.00  0.00    +0.000 C 
ENDBRANCH  28  29
ENDBRANCH  27  28
ENDBRANCH  22  27
ENDBRANCH  19  22
ENDBRANCH   1  19
TORSDOF 13
ENDMDL
MODEL 6
REMARK VINA RESULT:      -6.9      1.346      3.843
REMARK  Name = 
REMARK  16 active torsions:
REMARK  status: ('A' for Active; 'I' for Inactive)
REMARK    1  A    between atoms: C_1  and  C_2
REMARK    2  A    between atoms: C_2  and  C_3
REMARK    3  A    between atoms: C_3  and  C_4
REMARK    4  A    between atoms: C_4  and  C_5
REMARK    5  A    between atoms: N_7  and  C_8
REMARK    6  A    between atoms: N_7  and  C_12
REMARK    7  A    between atoms: C_8  and  C_9
REMARK    8  A    between atoms: C_9  and  O_10
REMARK    9  A    between atoms: O_10  and  C_11
REMARK   10  A    between atoms: C_12  and  C_13
REMARK   11  A    between atoms: C_16  and  C_17
REMARK   12  A    between atoms: C_20  and  C_21
REMARK   13  A    between atoms: C_21  and  N_22
REMARK   14  A    between atoms: N_22  and  C_23
REMARK   15  A    between atoms: C_23  and  C_24
REMARK   16  A    between atoms: C_24  and  C_25
REMARK                            x       y       z     vdW  Elec       q    Type
REMARK                         _______ _______ _______ _____ _____    ______ ____
ROOT
ATOM      1  C   UNL     1       3.012   6.683  18.339  0.00  0.00    +0.000 A 
ATOM      2  C   UNL     1       2.712   6.423  19.680  0.00  0.00    +0.000 A 
ATOM      3  C   UNL     1       1.993   7.354  20.430  0.00  0.00    +0.000 A 
ATOM      4  C   UNL     1       1.544   8.556  19.857  0.00  0.00    +0.000 A 
ATOM      5  C   UNL     1       1.878   8.813  18.516  0.00  0.00    +0.000 A 
ATOM      6  C   UNL     1       2.604   7.891  17.766  0.00  0.00    +0.000 A 
ENDROOT
BRANCH   4   7
ATOM      7  C   UNL     1       0.686   9.486  20.605  0.00  0.00    +0.000 A 
ATOM      8  C   UNL     1       0.222  10.687  20.073  0.00  0.00    +0.000 A 
ATOM      9  C   UNL     1      -0.498  11.555  20.889  0.00  0.00    +0.000 A 
ATOM     10  C   UNL     1      -0.746  11.210  22.218  0.00  0.00    +0.000 A 
ATOM     11  C   UNL     1      -0.271   9.983  22.657  0.00  0.00    +0.000 A 
ATOM     12  N   UNL     1       0.424   9.121  21.886  0.00  0.00    +0.000 NA
BRANCH  10  13
ATOM     13  C   UNL     1      -1.485  12.133  23.146  0.00  0.00    +0.000 C 
BRANCH  13  14
ATOM     14  N   UNL     1      -2.903  11.787  23.200  0.00  0.00    +0.000 NA
ATOM     15  H   UNL     1      -3.023  10.962  23.788  0.00  0.00    +0.000 HD
BRANCH  14  16
ATOM     16  C   UNL     1      -3.692  12.893  23.733  0.00  0.00    +0.000 C 
BRANCH  16  17
ATOM     17  C   UNL     1      -5.055  12.917  23.044  0.00  0.00    +0.000 C 
ATOM     18  C   UNL     1      -6.184  12.799  24.056  0.00  0.00    +0.000 C 
ENDBRANCH  16  17
ENDBRANCH  14  16
ENDBRANCH  13  14
ENDBRANCH  10  13
ENDBRANCH   4   7
BRANCH   1  19
ATOM     19  C   UNL     1       3.790   5.691  17.524  0.00  0.00    +0.000 C 
BRANCH  19  22
ATOM     20  C   UNL     1       6.085   5.064  18.146  0.00  0.00    +0.000 C 
ATOM     21  O   UNL     1       7.001   4.254  18.310  0.00  0.00    +0.000 OA
ATOM     22  N   UNL     1       4.700   4.755  18.208  0.00  0.00    +0.000 N 
BRANCH  20  23
ATOM     23  C   UNL     1       6.379   6.532  17.842  0.00  0.00    +0.000 C 
BRANCH  23  24
ATOM     24  C   UNL     1       7.775   7.076  18.123  0.00  0.00    +0.000 C 
BRANCH  24  26
ATOM     25  C   UNL     1       8.651   9.453  18.467  0.00  0.00    +0.000 C 
ATOM     26  C   UNL     1       7.823   8.523  17.605  0.00  0.00    +0.000 C 
ENDBRANCH  24  26
ENDBRANCH  23  24
ENDBRANCH  20  23
BRANCH  22  27
ATOM     27  C   UNL     1       4.216   3.373  18.429  0.00  0.00    +0.000 C 
BRANCH  27  28
ATOM     28  C   UNL     1       3.882   2.892  19.851  0.00  0.00    +0.000 C 
BRANCH  28  29
ATOM     29  O   UNL     1       2.475   2.911  20.108  0.00  0.00    +0.000 OA
ATOM     30  C   UNL     1       1.750   2.429  18.980  0.00  0.00    +0.000 C 
ENDBRANCH  28  29
ENDBRANCH  27  28
ENDBRANCH  22  27
ENDBRANCH  19  22
ENDBRANCH   1  19
TORSDOF 13
ENDMDL
MODEL 7
REMARK VINA RESULT:      -6.9      1.749      3.916
REMARK  Name = 
REMARK  16 active torsions:
REMARK  status: ('A' for Active; 'I' for Inactive)
REMARK    1  A    between atoms: C_1  and  C_2
REMARK    2  A    between atoms: C_2  and  C_3
REMARK    3  A    between atoms: C_3  and  C_4
REMARK    4  A    between atoms: C_4  and  C_5
REMARK    5  A    between atoms: N_7  and  C_8
REMARK    6  A    between atoms: N_7  and  C_12
REMARK    7  A    between atoms: C_8  and  C_9
REMARK    8  A    between atoms: C_9  and  O_10
REMARK    9  A    between atoms: O_10  and  C_11
REMARK   10  A    between atoms: C_12  and  C_13
REMARK   11  A    between atoms: C_16  and  C_17
REMARK   12  A    between atoms: C_20  and  C_21
REMARK   13  A    between atoms: C_21  and  N_22
REMARK   14  A    between atoms: N_22  and  C_23
REMARK   15  A    between atoms: C_23  and  C_24
REMARK   16  A    between atoms: C_24  and  C_25
REMARK                            x       y       z     vdW  Elec       q    Type
REMARK                         _______ _______ _______ _____ _____    ______ ____
ROOT
ATOM      1  C   UNL     1       2.472   7.426  18.819  0.00  0.00    +0.000 A 
ATOM      2  C   UNL     1       1.949   8.596  18.261  0.00  0.00    +0.000 A 
ATOM      3  C   UNL     1       1.147   9.441  19.029  0.00  0.00    +0.000 A 
ATOM      4  C   UNL     1       0.862   9.147  20.373  0.00  0.00    +0.000 A 
ATOM      5  C   UNL     1       1.375   7.953  20.910  0.00  0.00    +0.000 A 
ATOM      6  C   UNL     1       2.168   7.101  20.145  0.00  0.00    +0.000 A 
ENDROOT
BRANCH   4   7
ATOM      7  C   UNL     1       0.118  10.089  21.222  0.00  0.00    +0.000 A 
ATOM      8  C   UNL     1      -0.296   9.782  22.516  0.00  0.00    +0.000 A 
ATOM      9  C   UNL     1      -1.088  10.696  23.207  0.00  0.00    +0.000 A 
ATOM     10  C   UNL     1      -1.447  11.899  22.599  0.00  0.00    +0.000 A 
ATOM     11  C   UNL     1      -0.967  12.135  21.319  0.00  0.00    +0.000 A 
ATOM     12  N   UNL     1      -0.195  11.270  20.629  0.00  0.00    +0.000 NA
BRANCH  10  13
ATOM     13  C   UNL     1      -2.330  12.898  23.292  0.00  0.00    +0.000 C 
BRANCH  13  14
ATOM     14  N   UNL     1      -1.989  14.259  22.889  0.00  0.00    +0.000 NA
ATOM     15  H   UNL     1      -2.848  14.788  22.738  0.00  0.00    +0.000 HD
BRANCH  14  16
ATOM     16  C   UNL     1      -1.175  14.918  23.907  0.00  0.00    +0.000 C 
BRANCH  16  17
ATOM     17  C   UNL     1      -2.040  15.209  25.132  0.00  0.00    +0.000 C 
ATOM     18  C   UNL     1      -1.246  15.941  26.203  0.00  0.00    +0.000 C 
ENDBRANCH  16  17
ENDBRANCH  14  16
ENDBRANCH  13  14
ENDBRANCH  10  13
ENDBRANCH   4   7
BRANCH   1  19
ATOM     19  C   UNL     1       3.332   6.507  18.001  0.00  0.00    +0.000 C 
BRANCH  19  22
ATOM     20  C   UNL     1       4.454   4.366  18.454  0.00  0.00    +0.000 C 
ATOM     21  O   UNL     1       4.634   3.159  18.283  0.00  0.00    +0.000 OA
ATOM     22  N   UNL     1       3.233   5.053  18.212  0.00  0.00    +0.000 N 
BRANCH  20  23
ATOM     23  C   UNL     1       5.581   5.267  18.958  0.00  0.00    +0.000 C 
BRANCH  23  24
ATOM     24  C   UNL     1       6.985   5.070  18.399  0.00  0.00    +0.000 C 
BRANCH  24  26
ATOM     25  C   UNL     1       7.546   7.424  17.576  0.00  0.00    +0.000 C 
ATOM     26  C   UNL     1       7.768   6.371  18.642  0.00  0.00    +0.000 C 
ENDBRANCH  24  26
ENDBRANCH  23  24
ENDBRANCH  20  23
BRANCH  22  27
ATOM     27  C   UNL     1       2.045   4.363  17.661  0.00  0.00    +0.000 C 
BRANCH  27  28
ATOM     28  C   UNL     1       1.244   3.386  18.539  0.00  0.00    +0.000 C 
BRANCH  28  29
ATOM     29  O   UNL     1       1.114   3.856  19.884  0.00  0.00    +0.000 OA
ATOM     30  C   UNL     1       1.475   2.835  20.811  0.00  0.00    +0.000 C 
ENDBRANCH  28  29
ENDBRANCH  27  28
ENDBRANCH  22  27
ENDBRANCH  19  22
ENDBRANCH   1  19
TORSDOF 13
ENDMDL
MODEL 8
REMARK VINA RESULT:      -6.9      1.133      1.495
REMARK  Name = 
REMARK  16 active torsions:
REMARK  status: ('A' for Active; 'I' for Inactive)
REMARK    1  A    between atoms: C_1  and  C_2
REMARK    2  A    between atoms: C_2  and  C_3
REMARK    3  A    between atoms: C_3  and  C_4
REMARK    4  A    between atoms: C_4  and  C_5
REMARK    5  A    between atoms: N_7  and  C_8
REMARK    6  A    between atoms: N_7  and  C_12
REMARK    7  A    between atoms: C_8  and  C_9
REMARK    8  A    between atoms: C_9  and  O_10
REMARK    9  A    between atoms: O_10  and  C_11
REMARK   10  A    between atoms: C_12  and  C_13
REMARK   11  A    between atoms: C_16  and  C_17
REMARK   12  A    between atoms: C_20  and  C_21
REMARK   13  A    between atoms: C_21  and  N_22
REMARK   14  A    between atoms: N_22  and  C_23
REMARK   15  A    between atoms: C_23  and  C_24
REMARK   16  A    between atoms: C_24  and  C_25
REMARK                            x       y       z     vdW  Elec       q    Type
REMARK                         _______ _______ _______ _____ _____    ______ ____
ROOT
ATOM      1  C   UNL     1       2.900   6.453  18.561  0.00  0.00    +0.000 A 
ATOM      2  C   UNL     1       2.418   6.137  19.835  0.00  0.00    +0.000 A 
ATOM      3  C   UNL     1       1.699   7.083  20.566  0.00  0.00    +0.000 A 
ATOM      4  C   UNL     1       1.431   8.358  20.038  0.00  0.00    +0.000 A 
ATOM      5  C   UNL     1       1.945   8.666  18.767  0.00  0.00    +0.000 A 
ATOM      6  C   UNL     1       2.673   7.729  18.037  0.00  0.00    +0.000 A 
ENDROOT
BRANCH   4   7
ATOM      7  C   UNL     1       0.574   9.316  20.750  0.00  0.00    +0.000 A 
ATOM      8  C   UNL     1       0.091  10.485  20.165  0.00  0.00    +0.000 A 
ATOM      9  C   UNL     1      -0.625  11.386  20.948  0.00  0.00    +0.000 A 
ATOM     10  C   UNL     1      -0.852  11.106  22.296  0.00  0.00    +0.000 A 
ATOM     11  C   UNL     1      -0.359   9.907  22.789  0.00  0.00    +0.000 A 
ATOM     12  N   UNL     1       0.333   9.013  22.052  0.00  0.00    +0.000 NA
BRANCH  10  13
ATOM     13  C   UNL     1      -1.587  12.067  23.187  0.00  0.00    +0.000 C 
BRANCH  13  14
ATOM     14  N   UNL     1      -2.321  13.050  22.395  0.00  0.00    +0.000 NA
ATOM     15  H   UNL     1      -3.278  12.722  22.260  0.00  0.00    +0.000 HD
BRANCH  14  16
ATOM     16  C   UNL     1      -2.334  14.352  23.056  0.00  0.00    +0.000 C 
BRANCH  16  17
ATOM     17  C   UNL     1      -3.650  15.061  22.746  0.00  0.00    +0.000 C 
ATOM     18  C   UNL     1      -4.719  14.706  23.767  0.00  0.00    +0.000 C 
ENDBRANCH  16  17
ENDBRANCH  14  16
ENDBRANCH  13  14
ENDBRANCH  10  13
ENDBRANCH   4   7
BRANCH   1  19
ATOM     19  C   UNL     1       3.680   5.444  17.768  0.00  0.00    +0.000 C 
BRANCH  19  22
ATOM     20  C   UNL     1       4.311   3.397  18.976  0.00  0.00    +0.000 C 
ATOM     21  O   UNL     1       4.897   2.780  19.868  0.00  0.00    +0.000 OA
ATOM     22  N   UNL     1       4.720   4.649  18.443  0.00  0.00    +0.000 N 
BRANCH  20  23
ATOM     23  C   UNL     1       3.034   2.844  18.344  0.00  0.00    +0.000 C 
BRANCH  23  24
ATOM     24  C   UNL     1       2.159   1.899  19.160  0.00  0.00    +0.000 C 
BRANCH  24  26
ATOM     25  C   UNL     1       1.390   2.731  21.451  0.00  0.00    +0.000 C 
ATOM     26  C   UNL     1       1.162   2.759  19.954  0.00  0.00    +0.000 C 
ENDBRANCH  24  26
ENDBRANCH  23  24
ENDBRANCH  20  23
BRANCH  22  27
ATOM     27  C   UNL     1       5.898   5.375  18.970  0.00  0.00    +0.000 C 
BRANCH  27  28
ATOM     28  C   UNL     1       7.235   5.330  18.210  0.00  0.00    +0.000 C 
BRANCH  28  29
ATOM     29  O   UNL     1       7.284   6.293  17.153  0.00  0.00    +0.000 OA
ATOM     30  C   UNL     1       7.623   7.581  17.660  0.00  0.00    +0.000 C 
ENDBRANCH  28  29
ENDBRANCH  27  28
ENDBRANCH  22  27
ENDBRANCH  19  22
ENDBRANCH   1  19
TORSDOF 13
ENDMDL
MODEL 9
REMARK VINA RESULT:      -6.9      0.977      1.482
REMARK  Name = 
REMARK  16 active torsions:
REMARK  status: ('A' for Active; 'I' for Inactive)
REMARK    1  A    between atoms: C_1  and  C_2
REMARK    2  A    between atoms: C_2  and  C_3
REMARK    3  A    between atoms: C_3  and  C_4
REMARK    4  A    between atoms: C_4  and  C_5
REMARK    5  A    between atoms: N_7  and  C_8
REMARK    6  A    between atoms: N_7  and  C_12
REMARK    7  A    between atoms: C_8  and  C_9
REMARK    8  A    between atoms: C_9  and  O_10
REMARK    9  A    between atoms: O_10  and  C_11
REMARK   10  A    between atoms: C_12  and  C_13
REMARK   11  A    between atoms: C_16  and  C_17
REMARK   12  A    between atoms: C_20  and  C_21
REMARK   13  A    between atoms: C_21  and  N_22
REMARK   14  A    between atoms: N_22  and  C_23
REMARK   15  A    between atoms: C_23  and  C_24
REMARK   16  A    between atoms: C_24  and  C_25
REMARK                            x       y       z     vdW  Elec       q    Type
REMARK                         _______ _______ _______ _____ _____    ______ ____
ROOT
ATOM      1  C   UNL     1       2.858   6.665  18.409  0.00  0.00    +0.000 A 
ATOM      2  C   UNL     1       2.530   7.939  17.937  0.00  0.00    +0.000 A 
ATOM      3  C   UNL     1       1.808   8.821  18.743  0.00  0.00    +0.000 A 
ATOM      4  C   UNL     1       1.411   8.457  20.041  0.00  0.00    +0.000 A 
ATOM      5  C   UNL     1       1.727   7.163  20.489  0.00  0.00    +0.000 A 
ATOM      6  C   UNL     1       2.439   6.276  19.685  0.00  0.00    +0.000 A 
ENDROOT
BRANCH   4   7
ATOM      7  C   UNL     1       0.755   9.420  20.938  0.00  0.00    +0.000 A 
ATOM      8  C   UNL     1       0.156   9.051  22.140  0.00  0.00    +0.000 A 
ATOM      9  C   UNL     1      -0.534  10.012  22.874  0.00  0.00    +0.000 A 
ATOM     10  C   UNL     1      -0.611  11.322  22.400  0.00  0.00    +0.000 A 
ATOM     11  C   UNL     1       0.037  11.607  21.207  0.00  0.00    +0.000 A 
ATOM     12  N   UNL     1       0.717  10.697  20.479  0.00  0.00    +0.000 NA
BRANCH  10  13
ATOM     13  C   UNL     1      -1.377  12.383  23.139  0.00  0.00    +0.000 C 
BRANCH  13  14
ATOM     14  N   UNL     1      -2.796  12.046  23.206  0.00  0.00    +0.000 NA
ATOM     15  H   UNL     1      -3.041  11.823  24.172  0.00  0.00    +0.000 HD
BRANCH  14  16
ATOM     16  C   UNL     1      -3.621  13.152  22.729  0.00  0.00    +0.000 C 
BRANCH  16  17
ATOM     17  C   UNL     1      -4.213  12.787  21.369  0.00  0.00    +0.000 C 
ATOM     18  C   UNL     1      -5.725  12.644  21.450  0.00  0.00    +0.000 C 
ENDBRANCH  16  17
ENDBRANCH  14  16
ENDBRANCH  13  14
ENDBRANCH  10  13
ENDBRANCH   4   7
BRANCH   1  19
ATOM     19  C   UNL     1       3.630   5.708  17.549  0.00  0.00    +0.000 C 
BRANCH  19  22
ATOM     20  C   UNL     1       4.704   3.818  18.700  0.00  0.00    +0.000 C 
ATOM     21  O   UNL     1       5.490   3.325  19.512  0.00  0.00    +0.000 OA
ATOM     22  N   UNL     1       4.856   5.090  18.084  0.00  0.00    +0.000 N 
BRANCH  20  23
ATOM     23  C   UNL     1       3.441   3.071  18.273  0.00  0.00    +0.000 C 
BRANCH  23  24
ATOM     24  C   UNL     1       2.763   2.142  19.274  0.00  0.00    +0.000 C 
BRANCH  24  26
ATOM     25  C   UNL     1       1.191   2.850  21.161  0.00  0.00    +0.000 C 
ATOM     26  C   UNL     1       2.591   2.922  20.588  0.00  0.00    +0.000 C 
ENDBRANCH  24  26
ENDBRANCH  23  24
ENDBRANCH  20  23
BRANCH  22  27
ATOM     27  C   UNL     1       5.983   5.989  18.418  0.00  0.00    +0.000 C 
BRANCH  27  28
ATOM     28  C   UNL     1       6.521   6.975  17.366  0.00  0.00    +0.000 C 
BRANCH  28  29
ATOM     29  O   UNL     1       7.864   7.381  17.646  0.00  0.00    +0.000 OA
ATOM     30  C   UNL     1       7.947   8.799  17.761  0.00  0.00    +0.000 C 
ENDBRANCH  28  29
ENDBRANCH  27  28
ENDBRANCH  22  27
ENDBRANCH  19  22
ENDBRANCH   1  19
TORSDOF 13
ENDMDL
