MODEL 1
REMARK VINA RESULT:      -6.7      0.000      0.000
REMARK  Name = 
REMARK  4 active torsions:
REMARK  status: ('A' for Active; 'I' for Inactive)
REMARK    1  A    between atoms: C_1  and  C_2
REMARK    2  A    between atoms: C_7  and  C_8
REMARK    3  A    between atoms: C_18  and  C_20
REMARK    4  A    between atoms: C_20  and  C_21
REMARK                            x       y       z     vdW  Elec       q    Type
REMARK                         _______ _______ _______ _____ _____    ______ ____
ROOT
ATOM      1  C   UNL     1      -2.784  18.613  24.738  0.00  0.00    +0.000 C 
ATOM      2  C   UNL     1      -2.242  17.353  24.134  0.00  0.00    +0.000 A 
ATOM      3  N   UNL     1      -1.098  16.892  24.654  0.00  0.00    +0.000 NA
ATOM      4  C   UNL     1      -0.602  15.792  24.078  0.00  0.00    +0.000 A 
ATOM      5  C   UNL     1      -1.203  15.165  23.007  0.00  0.00    +0.000 A 
ATOM      6  C   UNL     1      -0.644  14.036  22.396  0.00  0.00    +0.000 A 
ATOM      7  C   UNL     1      -1.338  13.297  21.429  0.00  0.00    +0.000 A 
ATOM      8  C   UNL     1      -2.561  13.874  21.041  0.00  0.00    +0.000 A 
ATOM      9  N   UNL     1      -3.280  13.390  19.932  0.00  0.00    +0.000 N 
ATOM     10  C   UNL     1      -4.287  12.441  20.039  0.00  0.00    +0.000 C 
ATOM     11  O   UNL     1      -4.594  11.867  21.079  0.00  0.00    +0.000 OA
ATOM     12  N   UNL     1      -3.026  15.067  21.525  0.00  0.00    +0.000 NA
ATOM     13  C   UNL     1      -2.405  15.677  22.549  0.00  0.00    +0.000 A 
ATOM     14  N   UNL     1      -2.906  16.790  23.102  0.00  0.00    +0.000 NA
ATOM     15  H   UNL     1      -3.491  14.123  19.268  0.00  0.00    +0.000 HD
ENDROOT
BRANCH   7  16
ATOM     16  C   UNL     1      -0.702  12.028  20.924  0.00  0.00    +0.000 A 
ATOM     17  C   UNL     1      -0.617  10.857  21.746  0.00  0.00    +0.000 A 
ATOM     18 CL   UNL     1      -1.325  10.719  23.333  0.00  0.00    +0.000 Cl
ATOM     19  C   UNL     1       0.050   9.691  21.334  0.00  0.00    +0.000 A 
ATOM     20  C   UNL     1       0.561   9.592  20.053  0.00  0.00    +0.000 A 
ATOM     21  C   UNL     1       0.478  10.690  19.212  0.00  0.00    +0.000 A 
ATOM     22  C   UNL     1      -0.075  11.906  19.658  0.00  0.00    +0.000 A 
ATOM     23 CL   UNL     1       0.239  13.242  18.594  0.00  0.00    +0.000 Cl
ENDBRANCH   7  16
BRANCH  10  24
ATOM     24  C   UNL     1      -4.923  12.098  18.684  0.00  0.00    +0.000 C 
BRANCH  24  25
ATOM     25  C   UNL     1      -4.076  11.391  17.643  0.00  0.00    +0.000 A 
ATOM     26  C   UNL     1      -3.027  10.524  17.987  0.00  0.00    +0.000 A 
ATOM     27  C   UNL     1      -2.355   9.793  17.001  0.00  0.00    +0.000 A 
ATOM     28  C   UNL     1      -2.720   9.904  15.658  0.00  0.00    +0.000 A 
ATOM     29  C   UNL     1      -3.760  10.756  15.298  0.00  0.00    +0.000 A 
ATOM     30  C   UNL     1      -4.434  11.490  16.282  0.00  0.00    +0.000 A 
ENDBRANCH  24  25
ENDBRANCH  10  24
TORSDOF 3
ENDMDL
MODEL 2
REMARK VINA RESULT:      -6.4      3.938      6.821
REMARK  Name = 
REMARK  4 active torsions:
REMARK  status: ('A' for Active; 'I' for Inactive)
REMARK    1  A    between atoms: C_1  and  C_2
REMARK    2  A    between atoms: C_7  and  C_8
REMARK    3  A    between atoms: C_18  and  C_20
REMARK    4  A    between atoms: C_20  and  C_21
REMARK                            x       y       z     vdW  Elec       q    Type
REMARK                         _______ _______ _______ _____ _____    ______ ____
ROOT
ATOM      1  C   UNL     1       1.462   8.647  21.139  0.00  0.00    +0.000 C 
ATOM      2  C   UNL     1       0.515   9.670  21.688  0.00  0.00    +0.000 A 
ATOM      3  N   UNL     1      -0.112   9.347  22.825  0.00  0.00    +0.000 NA
ATOM      4  C   UNL     1      -0.986  10.250  23.281  0.00  0.00    +0.000 A 
ATOM      5  C   UNL     1      -1.254  11.436  22.631  0.00  0.00    +0.000 A 
ATOM      6  C   UNL     1      -2.202  12.349  23.108  0.00  0.00    +0.000 A 
ATOM      7  C   UNL     1      -2.347  13.626  22.551  0.00  0.00    +0.000 A 
ATOM      8  C   UNL     1      -1.563  13.838  21.401  0.00  0.00    +0.000 A 
ATOM      9  N   UNL     1      -1.746  14.974  20.591  0.00  0.00    +0.000 N 
ATOM     10  C   UNL     1      -1.011  16.141  20.746  0.00  0.00    +0.000 C 
ATOM     11  O   UNL     1      -0.201  16.337  21.647  0.00  0.00    +0.000 OA
ATOM     12  N   UNL     1      -0.758  12.881  20.843  0.00  0.00    +0.000 NA
ATOM     13  C   UNL     1      -0.537  11.719  21.480  0.00  0.00    +0.000 A 
ATOM     14  N   UNL     1       0.328  10.816  20.999  0.00  0.00    +0.000 NA
ATOM     15  H   UNL     1      -1.900  14.726  19.622  0.00  0.00    +0.000 HD
ENDROOT
BRANCH   7  16
ATOM     16  C   UNL     1      -3.308  14.578  23.215  0.00  0.00    +0.000 A 
ATOM     17  C   UNL     1      -2.898  15.415  24.304  0.00  0.00    +0.000 A 
ATOM     18 CL   UNL     1      -1.260  15.522  24.895  0.00  0.00    +0.000 Cl
ATOM     19  C   UNL     1      -3.792  16.244  24.999  0.00  0.00    +0.000 A 
ATOM     20  C   UNL     1      -5.104  16.368  24.579  0.00  0.00    +0.000 A 
ATOM     21  C   UNL     1      -5.540  15.599  23.511  0.00  0.00    +0.000 A 
ATOM     22  C   UNL     1      -4.684  14.671  22.887  0.00  0.00    +0.000 A 
ATOM     23 CL   UNL     1      -5.511  13.567  21.831  0.00  0.00    +0.000 Cl
ENDBRANCH   7  16
BRANCH  10  24
ATOM     24  C   UNL     1      -1.391  17.221  19.725  0.00  0.00    +0.000 C 
BRANCH  24  25
ATOM     25  C   UNL     1      -0.453  17.483  18.561  0.00  0.00    +0.000 A 
ATOM     26  C   UNL     1      -0.841  18.222  17.433  0.00  0.00    +0.000 A 
ATOM     27  C   UNL     1       0.091  18.550  16.443  0.00  0.00    +0.000 A 
ATOM     28  C   UNL     1       1.425  18.158  16.560  0.00  0.00    +0.000 A 
ATOM     29  C   UNL     1       1.829  17.428  17.675  0.00  0.00    +0.000 A 
ATOM     30  C   UNL     1       0.899  17.096  18.668  0.00  0.00    +0.000 A 
ENDBRANCH  24  25
ENDBRANCH  10  24
TORSDOF 3
ENDMDL
MODEL 3
REMARK VINA RESULT:      -6.2      3.255      7.164
REMARK  Name = 
REMARK  4 active torsions:
REMARK  status: ('A' for Active; 'I' for Inactive)
REMARK    1  A    between atoms: C_1  and  C_2
REMARK    2  A    between atoms: C_7  and  C_8
REMARK    3  A    between atoms: C_18  and  C_20
REMARK    4  A    between atoms: C_20  and  C_21
REMARK                            x       y       z     vdW  Elec       q    Type
REMARK                         _______ _______ _______ _____ _____    ______ ____
ROOT
ATOM      1  C   UNL     1      -3.399   9.888  14.974  0.00  0.00    +0.000 C 
ATOM      2  C   UNL     1      -3.333  10.584  16.300  0.00  0.00    +0.000 A 
ATOM      3  N   UNL     1      -4.475  10.637  16.998  0.00  0.00    +0.000 NA
ATOM      4  C   UNL     1      -4.413  11.298  18.158  0.00  0.00    +0.000 A 
ATOM      5  C   UNL     1      -3.266  11.909  18.620  0.00  0.00    +0.000 A 
ATOM      6  C   UNL     1      -3.235  12.628  19.820  0.00  0.00    +0.000 A 
ATOM      7  C   UNL     1      -2.036  13.095  20.375  0.00  0.00    +0.000 A 
ATOM      8  C   UNL     1      -0.913  12.897  19.550  0.00  0.00    +0.000 A 
ATOM      9  N   UNL     1       0.326  13.495  19.847  0.00  0.00    +0.000 N 
ATOM     10  C   UNL     1       1.320  12.855  20.574  0.00  0.00    +0.000 C 
ATOM     11  O   UNL     1       1.195  11.756  21.104  0.00  0.00    +0.000 OA
ATOM     12  N   UNL     1      -0.975  12.338  18.302  0.00  0.00    +0.000 NA
ATOM     13  C   UNL     1      -2.114  11.777  17.861  0.00  0.00    +0.000 A 
ATOM     14  N   UNL     1      -2.163  11.135  16.686  0.00  0.00    +0.000 NA
ATOM     15  H   UNL     1       0.684  14.030  19.066  0.00  0.00    +0.000 HD
ENDROOT
BRANCH   7  16
ATOM     16  C   UNL     1      -2.097  13.748  21.731  0.00  0.00    +0.000 A 
ATOM     17  C   UNL     1      -2.194  15.171  21.871  0.00  0.00    +0.000 A 
ATOM     18 CL   UNL     1      -2.373  16.278  20.535  0.00  0.00    +0.000 Cl
ATOM     19  C   UNL     1      -2.161  15.812  23.120  0.00  0.00    +0.000 A 
ATOM     20  C   UNL     1      -2.146  15.071  24.287  0.00  0.00    +0.000 A 
ATOM     21  C   UNL     1      -2.080  13.690  24.203  0.00  0.00    +0.000 A 
ATOM     22  C   UNL     1      -1.984  13.042  22.956  0.00  0.00    +0.000 A 
ATOM     23 CL   UNL     1      -1.552  11.364  23.077  0.00  0.00    +0.000 Cl
ENDBRANCH   7  16
BRANCH  10  24
ATOM     24  C   UNL     1       2.578  13.718  20.742  0.00  0.00    +0.000 C 
BRANCH  24  25
ATOM     25  C   UNL     1       2.906  14.741  19.670  0.00  0.00    +0.000 A 
ATOM     26  C   UNL     1       3.551  14.397  18.472  0.00  0.00    +0.000 A 
ATOM     27  C   UNL     1       3.718  15.345  17.457  0.00  0.00    +0.000 A 
ATOM     28  C   UNL     1       3.241  16.647  17.611  0.00  0.00    +0.000 A 
ATOM     29  C   UNL     1       2.595  17.006  18.791  0.00  0.00    +0.000 A 
ATOM     30  C   UNL     1       2.426  16.061  19.810  0.00  0.00    +0.000 A 
ENDBRANCH  24  25
ENDBRANCH  10  24
TORSDOF 3
ENDMDL
MODEL 4
REMARK VINA RESULT:      -6.1      4.039      7.639
REMARK  Name = 
REMARK  4 active torsions:
REMARK  status: ('A' for Active; 'I' for Inactive)
REMARK    1  A    between atoms: C_1  and  C_2
REMARK    2  A    between atoms: C_7  and  C_8
REMARK    3  A    between atoms: C_18  and  C_20
REMARK    4  A    between atoms: C_20  and  C_21
REMARK                            x       y       z     vdW  Elec       q    Type
REMARK                         _______ _______ _______ _____ _____    ______ ____
ROOT
ATOM      1  C   UNL     1       4.511   6.120  17.011  0.00  0.00    +0.000 C 
ATOM      2  C   UNL     1       3.535   6.883  17.855  0.00  0.00    +0.000 A 
ATOM      3  N   UNL     1       2.933   6.194  18.833  0.00  0.00    +0.000 NA
ATOM      4  C   UNL     1       2.034   6.874  19.550  0.00  0.00    +0.000 A 
ATOM      5  C   UNL     1       1.715   8.193  19.307  0.00  0.00    +0.000 A 
ATOM      6  C   UNL     1       0.741   8.874  20.047  0.00  0.00    +0.000 A 
ATOM      7  C   UNL     1       0.543  10.255  19.921  0.00  0.00    +0.000 A 
ATOM      8  C   UNL     1       1.305  10.846  18.896  0.00  0.00    +0.000 A 
ATOM      9  N   UNL     1       1.072  12.172  18.485  0.00  0.00    +0.000 N 
ATOM     10  C   UNL     1       1.767  13.258  19.000  0.00  0.00    +0.000 C 
ATOM     11  O   UNL     1       2.579  13.191  19.917  0.00  0.00    +0.000 OA
ATOM     12  N   UNL     1       2.137  10.145  18.065  0.00  0.00    +0.000 NA
ATOM     13  C   UNL     1       2.407   8.851  18.304  0.00  0.00    +0.000 A 
ATOM     14  N   UNL     1       3.299   8.179  17.562  0.00  0.00    +0.000 NA
ATOM     15  H   UNL     1       0.914  12.237  17.487  0.00  0.00    +0.000 HD
ENDROOT
BRANCH   7  16
ATOM     16  C   UNL     1      -0.443  10.912  20.851  0.00  0.00    +0.000 A 
ATOM     17  C   UNL     1      -0.435  10.642  22.259  0.00  0.00    +0.000 A 
ATOM     18 CL   UNL     1       0.753   9.649  23.061  0.00  0.00    +0.000 Cl
ATOM     19  C   UNL     1      -1.398  11.170  23.135  0.00  0.00    +0.000 A 
ATOM     20  C   UNL     1      -2.339  12.075  22.679  0.00  0.00    +0.000 A 
ATOM     21  C   UNL     1      -2.367  12.388  21.329  0.00  0.00    +0.000 A 
ATOM     22  C   UNL     1      -1.488  11.768  20.421  0.00  0.00    +0.000 A 
ATOM     23 CL   UNL     1      -1.919  12.019  18.757  0.00  0.00    +0.000 Cl
ENDBRANCH   7  16
BRANCH  10  24
ATOM     24  C   UNL     1       1.335  14.589  18.371  0.00  0.00    +0.000 C 
BRANCH  24  25
ATOM     25  C   UNL     1       0.202  15.365  19.017  0.00  0.00    +0.000 A 
ATOM     26  C   UNL     1      -0.245  15.100  20.320  0.00  0.00    +0.000 A 
ATOM     27  C   UNL     1      -1.203  15.921  20.924  0.00  0.00    +0.000 A 
ATOM     28  C   UNL     1      -1.727  17.023  20.248  0.00  0.00    +0.000 A 
ATOM     29  C   UNL     1      -1.293  17.304  18.955  0.00  0.00    +0.000 A 
ATOM     30  C   UNL     1      -0.335  16.484  18.346  0.00  0.00    +0.000 A 
ENDBRANCH  24  25
ENDBRANCH  10  24
TORSDOF 3
ENDMDL
MODEL 5
REMARK VINA RESULT:      -6.1      3.603      5.549
REMARK  Name = 
REMARK  4 active torsions:
REMARK  status: ('A' for Active; 'I' for Inactive)
REMARK    1  A    between atoms: C_1  and  C_2
REMARK    2  A    between atoms: C_7  and  C_8
REMARK    3  A    between atoms: C_18  and  C_20
REMARK    4  A    between atoms: C_20  and  C_21
REMARK                            x       y       z     vdW  Elec       q    Type
REMARK                         _______ _______ _______ _____ _____    ______ ____
ROOT
ATOM      1  C   UNL     1       2.447  17.517  17.068  0.00  0.00    +0.000 C 
ATOM      2  C   UNL     1       1.428  16.940  18.002  0.00  0.00    +0.000 A 
ATOM      3  N   UNL     1       0.427  17.754  18.362  0.00  0.00    +0.000 NA
ATOM      4  C   UNL     1      -0.451  17.242  19.230  0.00  0.00    +0.000 A 
ATOM      5  C   UNL     1      -0.346  15.968  19.748  0.00  0.00    +0.000 A 
ATOM      6  C   UNL     1      -1.258  15.467  20.685  0.00  0.00    +0.000 A 
ATOM      7  C   UNL     1      -1.256  14.121  21.075  0.00  0.00    +0.000 A 
ATOM      8  C   UNL     1      -0.181  13.379  20.551  0.00  0.00    +0.000 A 
ATOM      9  N   UNL     1       0.102  12.079  21.010  0.00  0.00    +0.000 N 
ATOM     10  C   UNL     1      -0.389  10.935  20.395  0.00  0.00    +0.000 C 
ATOM     11  O   UNL     1      -1.180  10.936  19.457  0.00  0.00    +0.000 OA
ATOM     12  N   UNL     1       0.802  13.916  19.765  0.00  0.00    +0.000 NA
ATOM     13  C   UNL     1       0.694  15.171  19.298  0.00  0.00    +0.000 A 
ATOM     14  N   UNL     1       1.595  15.675  18.443  0.00  0.00    +0.000 NA
ATOM     15  H   UNL     1       1.061  11.986  21.317  0.00  0.00    +0.000 HD
ENDROOT
BRANCH   7  16
ATOM     16  C   UNL     1      -2.355  13.654  21.993  0.00  0.00    +0.000 A 
ATOM     17  C   UNL     1      -3.564  13.081  21.479  0.00  0.00    +0.000 A 
ATOM     18 CL   UNL     1      -3.853  12.751  19.791  0.00  0.00    +0.000 Cl
ATOM     19  C   UNL     1      -4.641  12.721  22.305  0.00  0.00    +0.000 A 
ATOM     20  C   UNL     1      -4.527  12.805  23.681  0.00  0.00    +0.000 A 
ATOM     21  C   UNL     1      -3.365  13.327  24.226  0.00  0.00    +0.000 A 
ATOM     22  C   UNL     1      -2.329  13.809  23.402  0.00  0.00    +0.000 A 
ATOM     23 CL   UNL     1      -1.139  14.740  24.258  0.00  0.00    +0.000 Cl
ENDBRANCH   7  16
BRANCH  10  24
ATOM     24  C   UNL     1       0.082   9.646  21.081  0.00  0.00    +0.000 C 
BRANCH  24  25
ATOM     25  C   UNL     1       1.046   8.739  20.339  0.00  0.00    +0.000 A 
ATOM     26  C   UNL     1       1.429   7.482  20.833  0.00  0.00    +0.000 A 
ATOM     27  C   UNL     1       2.218   6.624  20.059  0.00  0.00    +0.000 A 
ATOM     28  C   UNL     1       2.631   6.995  18.779  0.00  0.00    +0.000 A 
ATOM     29  C   UNL     1       2.258   8.236  18.271  0.00  0.00    +0.000 A 
ATOM     30  C   UNL     1       1.470   9.099  19.043  0.00  0.00    +0.000 A 
ENDBRANCH  24  25
ENDBRANCH  10  24
TORSDOF 3
ENDMDL
MODEL 6
REMARK VINA RESULT:      -6.1      3.253      7.059
REMARK  Name = 
REMARK  4 active torsions:
REMARK  status: ('A' for Active; 'I' for Inactive)
REMARK    1  A    between atoms: C_1  and  C_2
REMARK    2  A    between atoms: C_7  and  C_8
REMARK    3  A    between atoms: C_18  and  C_20
REMARK    4  A    between atoms: C_20  and  C_21
REMARK                            x       y       z     vdW  Elec       q    Type
REMARK                         _______ _______ _______ _____ _____    ______ ____
ROOT
ATOM      1  C   UNL     1      -3.060   9.736  15.142  0.00  0.00    +0.000 C 
ATOM      2  C   UNL     1      -3.171  10.477  16.441  0.00  0.00    +0.000 A 
ATOM      3  N   UNL     1      -4.365  10.436  17.046  0.00  0.00    +0.000 NA
ATOM      4  C   UNL     1      -4.463  11.136  18.180  0.00  0.00    +0.000 A 
ATOM      5  C   UNL     1      -3.422  11.874  18.704  0.00  0.00    +0.000 A 
ATOM      6  C   UNL     1      -3.560  12.631  19.874  0.00  0.00    +0.000 A 
ATOM      7  C   UNL     1      -2.462  13.233  20.501  0.00  0.00    +0.000 A 
ATOM      8  C   UNL     1      -1.262  13.124  19.774  0.00  0.00    +0.000 A 
ATOM      9  N   UNL     1      -0.116  13.854  20.142  0.00  0.00    +0.000 N 
ATOM     10  C   UNL     1       0.874  13.342  20.969  0.00  0.00    +0.000 C 
ATOM     11  O   UNL     1       0.816  12.253  21.531  0.00  0.00    +0.000 OA
ATOM     12  N   UNL     1      -1.167  12.523  18.549  0.00  0.00    +0.000 NA
ATOM     13  C   UNL     1      -2.206  11.836  18.043  0.00  0.00    +0.000 A 
ATOM     14  N   UNL     1      -2.095  11.155  16.894  0.00  0.00    +0.000 NA
ATOM     15  H   UNL     1       0.250  14.398  19.372  0.00  0.00    +0.000 HD
ENDROOT
BRANCH   7  16
ATOM     16  C   UNL     1      -2.697  13.920  21.822  0.00  0.00    +0.000 A 
ATOM     17  C   UNL     1      -2.593  13.209  23.062  0.00  0.00    +0.000 A 
ATOM     18 CL   UNL     1      -2.079  11.548  23.200  0.00  0.00    +0.000 Cl
ATOM     19  C   UNL     1      -2.893  13.800  24.300  0.00  0.00    +0.000 A 
ATOM     20  C   UNL     1      -3.199  15.146  24.377  0.00  0.00    +0.000 A 
ATOM     21  C   UNL     1      -3.284  15.882  23.206  0.00  0.00    +0.000 A 
ATOM     22  C   UNL     1      -3.109  15.271  21.950  0.00  0.00    +0.000 A 
ATOM     23 CL   UNL     1      -3.607  16.268  20.618  0.00  0.00    +0.000 Cl
ENDBRANCH   7  16
BRANCH  10  24
ATOM     24  C   UNL     1       2.024  14.333  21.200  0.00  0.00    +0.000 C 
BRANCH  24  25
ATOM     25  C   UNL     1       2.586  15.083  20.007  0.00  0.00    +0.000 A 
ATOM     26  C   UNL     1       3.339  14.450  19.006  0.00  0.00    +0.000 A 
ATOM     27  C   UNL     1       3.729  15.151  17.859  0.00  0.00    +0.000 A 
ATOM     28  C   UNL     1       3.371  16.488  17.683  0.00  0.00    +0.000 A 
ATOM     29  C   UNL     1       2.621  17.131  18.664  0.00  0.00    +0.000 A 
ATOM     30  C   UNL     1       2.229  16.435  19.813  0.00  0.00    +0.000 A 
ENDBRANCH  24  25
ENDBRANCH  10  24
TORSDOF 3
ENDMDL
MODEL 7
REMARK VINA RESULT:      -6.0      2.382      4.409
REMARK  Name = 
REMARK  4 active torsions:
REMARK  status: ('A' for Active; 'I' for Inactive)
REMARK    1  A    between atoms: C_1  and  C_2
REMARK    2  A    between atoms: C_7  and  C_8
REMARK    3  A    between atoms: C_18  and  C_20
REMARK    4  A    between atoms: C_20  and  C_21
REMARK                            x       y       z     vdW  Elec       q    Type
REMARK                         _______ _______ _______ _____ _____    ______ ____
ROOT
ATOM      1  C   UNL     1      -1.206  16.836  26.239  0.00  0.00    +0.000 C 
ATOM      2  C   UNL     1      -1.444  16.185  24.910  0.00  0.00    +0.000 A 
ATOM      3  N   UNL     1      -2.050  16.937  23.983  0.00  0.00    +0.000 NA
ATOM      4  C   UNL     1      -2.295  16.331  22.817  0.00  0.00    +0.000 A 
ATOM      5  C   UNL     1      -1.971  15.014  22.567  0.00  0.00    +0.000 A 
ATOM      6  C   UNL     1      -2.272  14.390  21.351  0.00  0.00    +0.000 A 
ATOM      7  C   UNL     1      -1.788  13.115  21.032  0.00  0.00    +0.000 A 
ATOM      8  C   UNL     1      -1.108  12.484  22.090  0.00  0.00    +0.000 A 
ATOM      9  N   UNL     1      -0.750  11.125  22.021  0.00  0.00    +0.000 N 
ATOM     10  C   UNL     1       0.489  10.690  21.573  0.00  0.00    +0.000 C 
ATOM     11  O   UNL     1       1.358  11.424  21.111  0.00  0.00    +0.000 OA
ATOM     12  N   UNL     1      -0.958  13.035  23.334  0.00  0.00    +0.000 NA
ATOM     13  C   UNL     1      -1.311  14.312  23.561  0.00  0.00    +0.000 A 
ATOM     14  N   UNL     1      -1.075  14.897  24.744  0.00  0.00    +0.000 NA
ATOM     15  H   UNL     1      -1.091  10.603  22.818  0.00  0.00    +0.000 HD
ENDROOT
BRANCH   7  16
ATOM     16  C   UNL     1      -2.065  12.584  19.649  0.00  0.00    +0.000 A 
ATOM     17  C   UNL     1      -3.343  12.036  19.301  0.00  0.00    +0.000 A 
ATOM     18 CL   UNL     1      -4.728  12.029  20.361  0.00  0.00    +0.000 Cl
ATOM     19  C   UNL     1      -3.600  11.453  18.050  0.00  0.00    +0.000 A 
ATOM     20  C   UNL     1      -2.644  11.487  17.051  0.00  0.00    +0.000 A 
ATOM     21  C   UNL     1      -1.401  12.032  17.332  0.00  0.00    +0.000 A 
ATOM     22  C   UNL     1      -1.091  12.505  18.622  0.00  0.00    +0.000 A 
ATOM     23 CL   UNL     1       0.603  12.806  18.861  0.00  0.00    +0.000 Cl
ENDBRANCH   7  16
BRANCH  10  24
ATOM     24  C   UNL     1       0.631   9.162  21.614  0.00  0.00    +0.000 C 
BRANCH  24  25
ATOM     25  C   UNL     1       1.217   8.454  20.406  0.00  0.00    +0.000 A 
ATOM     26  C   UNL     1       1.280   9.053  19.139  0.00  0.00    +0.000 A 
ATOM     27  C   UNL     1       1.943   8.417  18.083  0.00  0.00    +0.000 A 
ATOM     28  C   UNL     1       2.562   7.181  18.271  0.00  0.00    +0.000 A 
ATOM     29  C   UNL     1       2.514   6.573  19.523  0.00  0.00    +0.000 A 
ATOM     30  C   UNL     1       1.850   7.205  20.581  0.00  0.00    +0.000 A 
ENDBRANCH  24  25
ENDBRANCH  10  24
TORSDOF 3
ENDMDL
MODEL 8
REMARK VINA RESULT:      -6.0      4.281      8.240
REMARK  Name = 
REMARK  4 active torsions:
REMARK  status: ('A' for Active; 'I' for Inactive)
REMARK    1  A    between atoms: C_1  and  C_2
REMARK    2  A    between atoms: C_7  and  C_8
REMARK    3  A    between atoms: C_18  and  C_20
REMARK    4  A    between atoms: C_20  and  C_21
REMARK                            x       y       z     vdW  Elec       q    Type
REMARK                         _______ _______ _______ _____ _____    ______ ____
ROOT
ATOM      1  C   UNL     1       4.617   4.054  18.979  0.00  0.00    +0.000 C 
ATOM      2  C   UNL     1       3.868   5.329  18.732  0.00  0.00    +0.000 A 
ATOM      3  N   UNL     1       3.857   5.774  17.470  0.00  0.00    +0.000 NA
ATOM      4  C   UNL     1       3.223   6.934  17.271  0.00  0.00    +0.000 A 
ATOM      5  C   UNL     1       2.628   7.653  18.286  0.00  0.00    +0.000 A 
ATOM      6  C   UNL     1       2.003   8.885  18.060  0.00  0.00    +0.000 A 
ATOM      7  C   UNL     1       1.247   9.526  19.050  0.00  0.00    +0.000 A 
ATOM      8  C   UNL     1       1.301   8.893  20.306  0.00  0.00    +0.000 A 
ATOM      9  N   UNL     1       0.787   9.513  21.460  0.00  0.00    +0.000 N 
ATOM     10  C   UNL     1      -0.504   9.302  21.922  0.00  0.00    +0.000 C 
ATOM     11  O   UNL     1      -1.352   8.636  21.335  0.00  0.00    +0.000 OA
ATOM     12  N   UNL     1       2.049   7.775  20.562  0.00  0.00    +0.000 NA
ATOM     13  C   UNL     1       2.647   7.110  19.560  0.00  0.00    +0.000 A 
ATOM     14  N   UNL     1       3.295   5.957  19.781  0.00  0.00    +0.000 NA
ATOM     15  H   UNL     1       1.474   9.559  22.202  0.00  0.00    +0.000 HD
ENDROOT
BRANCH   7  16
ATOM     16  C   UNL     1       0.512  10.785  18.669  0.00  0.00    +0.000 A 
ATOM     17  C   UNL     1       1.073  12.081  18.914  0.00  0.00    +0.000 A 
ATOM     18 CL   UNL     1       2.675  12.352  19.549  0.00  0.00    +0.000 Cl
ATOM     19  C   UNL     1       0.373  13.270  18.652  0.00  0.00    +0.000 A 
ATOM     20  C   UNL     1      -0.863  13.233  18.033  0.00  0.00    +0.000 A 
ATOM     21  C   UNL     1      -1.434  12.002  17.751  0.00  0.00    +0.000 A 
ATOM     22  C   UNL     1      -0.797  10.803  18.124  0.00  0.00    +0.000 A 
ATOM     23 CL   UNL     1      -1.825   9.407  18.012  0.00  0.00    +0.000 Cl
ENDBRANCH   7  16
BRANCH  10  24
ATOM     24  C   UNL     1      -0.808  10.083  23.208  0.00  0.00    +0.000 C 
BRANCH  24  25
ATOM     25  C   UNL     1      -1.329  11.504  23.090  0.00  0.00    +0.000 A 
ATOM     26  C   UNL     1      -0.612  12.516  22.433  0.00  0.00    +0.000 A 
ATOM     27  C   UNL     1      -1.184  13.777  22.234  0.00  0.00    +0.000 A 
ATOM     28  C   UNL     1      -2.478  14.052  22.676  0.00  0.00    +0.000 A 
ATOM     29  C   UNL     1      -3.206  13.059  23.327  0.00  0.00    +0.000 A 
ATOM     30  C   UNL     1      -2.638  11.795  23.529  0.00  0.00    +0.000 A 
ENDBRANCH  24  25
ENDBRANCH  10  24
TORSDOF 3
ENDMDL
MODEL 9
REMARK VINA RESULT:      -6.0      2.969      7.506
REMARK  Name = 
REMARK  4 active torsions:
REMARK  status: ('A' for Active; 'I' for Inactive)
REMARK    1  A    between atoms: C_1  and  C_2
REMARK    2  A    between atoms: C_7  and  C_8
REMARK    3  A    between atoms: C_18  and  C_20
REMARK    4  A    between atoms: C_20  and  C_21
REMARK                            x       y       z     vdW  Elec       q    Type
REMARK                         _______ _______ _______ _____ _____    ______ ____
ROOT
ATOM      1  C   UNL     1       1.309   9.292  18.270  0.00  0.00    +0.000 C 
ATOM      2  C   UNL     1       0.011  10.005  18.499  0.00  0.00    +0.000 A 
ATOM      3  N   UNL     1      -0.917   9.868  17.544  0.00  0.00    +0.000 NA
ATOM      4  C   UNL     1      -2.053  10.544  17.740  0.00  0.00    +0.000 A 
ATOM      5  C   UNL     1      -2.273  11.351  18.836  0.00  0.00    +0.000 A 
ATOM      6  C   UNL     1      -3.457  12.080  19.001  0.00  0.00    +0.000 A 
ATOM      7  C   UNL     1      -3.752  12.755  20.192  0.00  0.00    +0.000 A 
ATOM      8  C   UNL     1      -2.701  12.746  21.127  0.00  0.00    +0.000 A 
ATOM      9  N   UNL     1      -2.739  13.555  22.278  0.00  0.00    +0.000 N 
ATOM     10  C   UNL     1      -3.219  13.108  23.502  0.00  0.00    +0.000 C 
ATOM     11  O   UNL     1      -3.735  12.010  23.686  0.00  0.00    +0.000 OA
ATOM     12  N   UNL     1      -1.481  12.169  20.894  0.00  0.00    +0.000 NA
ATOM     13  C   UNL     1      -1.282  11.413  19.802  0.00  0.00    +0.000 A 
ATOM     14  N   UNL     1      -0.128  10.757  19.612  0.00  0.00    +0.000 NA
ATOM     15  H   UNL     1      -1.914  14.134  22.361  0.00  0.00    +0.000 HD
ENDROOT
BRANCH   7  16
ATOM     16  C   UNL     1      -5.106  13.405  20.314  0.00  0.00    +0.000 A 
ATOM     17  C   UNL     1      -6.312  12.635  20.256  0.00  0.00    +0.000 A 
ATOM     18 CL   UNL     1      -6.361  10.894  20.165  0.00  0.00    +0.000 Cl
ATOM     19  C   UNL     1      -7.588  13.223  20.276  0.00  0.00    +0.000 A 
ATOM     20  C   UNL     1      -7.728  14.585  20.468  0.00  0.00    +0.000 A 
ATOM     21  C   UNL     1      -6.588  15.369  20.558  0.00  0.00    +0.000 A 
ATOM     22  C   UNL     1      -5.306  14.806  20.412  0.00  0.00    +0.000 A 
ATOM     23 CL   UNL     1      -4.050  15.987  20.195  0.00  0.00    +0.000 Cl
ENDBRANCH   7  16
BRANCH  10  24
ATOM     24  C   UNL     1      -3.134  14.179  24.598  0.00  0.00    +0.000 C 
BRANCH  24  25
ATOM     25  C   UNL     1      -4.096  15.352  24.543  0.00  0.00    +0.000 A 
ATOM     26  C   UNL     1      -3.699  16.665  24.839  0.00  0.00    +0.000 A 
ATOM     27  C   UNL     1      -4.583  17.734  24.652  0.00  0.00    +0.000 A 
ATOM     28  C   UNL     1      -5.871  17.517  24.161  0.00  0.00    +0.000 A 
ATOM     29  C   UNL     1      -6.281  16.221  23.860  0.00  0.00    +0.000 A 
ATOM     30  C   UNL     1      -5.400  15.149  24.046  0.00  0.00    +0.000 A 
ENDBRANCH  24  25
ENDBRANCH  10  24
TORSDOF 3
ENDMDL
