MODEL 1
REMARK VINA RESULT:      -7.7      0.000      0.000
REMARK  Name = 
REMARK  2 active torsions:
REMARK  status: ('A' for Active; 'I' for Inactive)
REMARK    1  A    between atoms: N_7  and  C_8
REMARK    2  A    between atoms: C_13  and  N_14
REMARK                            x       y       z     vdW  Elec       q    Type
REMARK                         _______ _______ _______ _____ _____    ______ ____
ROOT
ATOM      1  N   UNL     1       6.362   3.758  14.487  0.00  0.00    +0.000 NA
ATOM      2  C   UNL     1       6.896   4.923  14.579  0.00  0.00    +0.000 C 
ATOM      3  N   UNL     1       7.812   5.380  13.701  0.00  0.00    +0.000 N 
ATOM      4  N   UNL     1       6.543   5.762  15.601  0.00  0.00    +0.000 N 
ATOM      5  C   UNL     1       5.610   5.619  16.611  0.00  0.00    +0.000 C 
ATOM      6  O   UNL     1       5.456   6.559  17.389  0.00  0.00    +0.000 OA
ATOM      7  N   UNL     1       4.959   4.414  16.649  0.00  0.00    +0.000 N 
ATOM      8  H   UNL     1       6.715   3.298  13.643  0.00  0.00    +0.000 HD
ATOM      9  H   UNL     1       8.282   4.694  13.123  0.00  0.00    +0.000 HD
ATOM     10  H   UNL     1       8.429   6.125  14.006  0.00  0.00    +0.000 HD
ATOM     11  H   UNL     1       6.969   6.674  15.626  0.00  0.00    +0.000 HD
ATOM     12  H   UNL     1       5.341   3.729  15.992  0.00  0.00    +0.000 HD
ENDROOT
BRANCH   7  13
ATOM     13  C   UNL     1       3.964   4.018  17.557  0.00  0.00    +0.000 A 
ATOM     14  C   UNL     1       2.608   4.301  17.361  0.00  0.00    +0.000 A 
ATOM     15  C   UNL     1       1.651   3.953  18.321  0.00  0.00    +0.000 A 
ATOM     16  C   UNL     1       2.036   3.315  19.498  0.00  0.00    +0.000 A 
ATOM     17 CL   UNL     1       0.816   3.024  20.683  0.00  0.00    +0.000 Cl
ATOM     18  C   UNL     1       3.382   2.992  19.668  0.00  0.00    +0.000 A 
ATOM     19  C   UNL     1       4.351   3.323  18.704  0.00  0.00    +0.000 A 
BRANCH  18  20
ATOM     20  N   UNL     1       3.829   2.332  20.874  0.00  0.00    +0.000 N 
ATOM     21  O   UNL     1       4.937   1.781  20.847  0.00  0.00    +0.000 OA
ATOM     22  O   UNL     1       3.089   2.413  21.863  0.00  0.00    +0.000 OA
ENDBRANCH  18  20
ENDBRANCH   7  13
TORSDOF 2
ENDMDL
MODEL 2
REMARK VINA RESULT:      -7.6      2.957      6.245
REMARK  Name = 
REMARK  2 active torsions:
REMARK  status: ('A' for Active; 'I' for Inactive)
REMARK    1  A    between atoms: N_7  and  C_8
REMARK    2  A    between atoms: C_13  and  N_14
REMARK                            x       y       z     vdW  Elec       q    Type
REMARK                         _______ _______ _______ _____ _____    ______ ____
ROOT
ATOM      1  N   UNL     1       1.078   3.655  20.695  0.00  0.00    +0.000 NA
ATOM      2  C   UNL     1       1.561   2.827  21.550  0.00  0.00    +0.000 C 
ATOM      3  N   UNL     1       0.861   2.383  22.614  0.00  0.00    +0.000 N 
ATOM      4  N   UNL     1       2.838   2.356  21.406  0.00  0.00    +0.000 N 
ATOM      5  C   UNL     1       3.775   2.566  20.413  0.00  0.00    +0.000 C 
ATOM      6  O   UNL     1       4.852   1.977  20.504  0.00  0.00    +0.000 OA
ATOM      7  N   UNL     1       3.406   3.442  19.425  0.00  0.00    +0.000 N 
ATOM      8  H   UNL     1       0.105   3.858  20.943  0.00  0.00    +0.000 HD
ATOM      9  H   UNL     1       0.047   2.918  22.889  0.00  0.00    +0.000 HD
ATOM     10  H   UNL     1       1.383   2.028  23.408  0.00  0.00    +0.000 HD
ATOM     11  H   UNL     1       3.171   1.693  22.086  0.00  0.00    +0.000 HD
ATOM     12  H   UNL     1       2.523   3.920  19.622  0.00  0.00    +0.000 HD
ENDROOT
BRANCH   7  13
ATOM     13  C   UNL     1       4.160   3.818  18.303  0.00  0.00    +0.000 A 
ATOM     14  C   UNL     1       3.663   3.738  16.998  0.00  0.00    +0.000 A 
ATOM     15  C   UNL     1       4.466   4.055  15.897  0.00  0.00    +0.000 A 
ATOM     16  C   UNL     1       5.787   4.459  16.084  0.00  0.00    +0.000 A 
ATOM     17 CL   UNL     1       6.748   4.720  14.675  0.00  0.00    +0.000 Cl
ATOM     18  C   UNL     1       6.263   4.584  17.388  0.00  0.00    +0.000 A 
ATOM     19  C   UNL     1       5.461   4.282  18.503  0.00  0.00    +0.000 A 
BRANCH  18  20
ATOM     20  N   UNL     1       7.627   4.998  17.632  0.00  0.00    +0.000 N 
ATOM     21  O   UNL     1       8.470   4.111  17.818  0.00  0.00    +0.000 OA
ATOM     22  O   UNL     1       7.859   6.213  17.585  0.00  0.00    +0.000 OA
ENDBRANCH  18  20
ENDBRANCH   7  13
TORSDOF 2
ENDMDL
MODEL 3
REMARK VINA RESULT:      -7.6      3.107      6.322
REMARK  Name = 
REMARK  2 active torsions:
REMARK  status: ('A' for Active; 'I' for Inactive)
REMARK    1  A    between atoms: N_7  and  C_8
REMARK    2  A    between atoms: C_13  and  N_14
REMARK                            x       y       z     vdW  Elec       q    Type
REMARK                         _______ _______ _______ _____ _____    ______ ____
ROOT
ATOM      1  N   UNL     1       1.328   3.927  20.509  0.00  0.00    +0.000 NA
ATOM      2  C   UNL     1       1.741   3.020  21.320  0.00  0.00    +0.000 C 
ATOM      3  N   UNL     1       0.992   2.553  22.339  0.00  0.00    +0.000 N 
ATOM      4  N   UNL     1       2.992   2.484  21.171  0.00  0.00    +0.000 N 
ATOM      5  C   UNL     1       3.963   2.700  20.213  0.00  0.00    +0.000 C 
ATOM      6  O   UNL     1       5.001   2.044  20.288  0.00  0.00    +0.000 OA
ATOM      7  N   UNL     1       3.669   3.656  19.276  0.00  0.00    +0.000 N 
ATOM      8  H   UNL     1       0.363   4.172  20.750  0.00  0.00    +0.000 HD
ATOM      9  H   UNL     1       0.203   3.117  22.631  0.00  0.00    +0.000 HD
ATOM     10  H   UNL     1       1.473   2.119  23.119  0.00  0.00    +0.000 HD
ATOM     11  H   UNL     1       3.270   1.761  21.815  0.00  0.00    +0.000 HD
ATOM     12  H   UNL     1       2.811   4.172  19.485  0.00  0.00    +0.000 HD
ENDROOT
BRANCH   7  13
ATOM     13  C   UNL     1       4.470   4.056  18.195  0.00  0.00    +0.000 A 
ATOM     14  C   UNL     1       4.291   3.562  16.899  0.00  0.00    +0.000 A 
ATOM     15  C   UNL     1       5.152   3.930  15.859  0.00  0.00    +0.000 A 
ATOM     16  C   UNL     1       6.213   4.801  16.101  0.00  0.00    +0.000 A 
ATOM     17 CL   UNL     1       7.299   5.114  14.797  0.00  0.00    +0.000 Cl
ATOM     18  C   UNL     1       6.360   5.328  17.383  0.00  0.00    +0.000 A 
ATOM     19  C   UNL     1       5.492   4.978  18.433  0.00  0.00    +0.000 A 
BRANCH  18  20
ATOM     20  N   UNL     1       7.446   6.234  17.682  0.00  0.00    +0.000 N 
ATOM     21  O   UNL     1       7.690   7.127  16.860  0.00  0.00    +0.000 OA
ATOM     22  O   UNL     1       8.020   6.079  18.769  0.00  0.00    +0.000 OA
ENDBRANCH  18  20
ENDBRANCH   7  13
TORSDOF 2
ENDMDL
MODEL 4
REMARK VINA RESULT:      -7.4      1.438      1.524
REMARK  Name = 
REMARK  2 active torsions:
REMARK  status: ('A' for Active; 'I' for Inactive)
REMARK    1  A    between atoms: N_7  and  C_8
REMARK    2  A    between atoms: C_13  and  N_14
REMARK                            x       y       z     vdW  Elec       q    Type
REMARK                         _______ _______ _______ _____ _____    ______ ____
ROOT
ATOM      1  N   UNL     1       6.209   4.544  13.984  0.00  0.00    +0.000 NA
ATOM      2  C   UNL     1       7.265   5.222  14.257  0.00  0.00    +0.000 C 
ATOM      3  N   UNL     1       8.271   5.396  13.376  0.00  0.00    +0.000 N 
ATOM      4  N   UNL     1       7.408   5.805  15.487  0.00  0.00    +0.000 N 
ATOM      5  C   UNL     1       6.551   5.863  16.569  0.00  0.00    +0.000 C 
ATOM      6  O   UNL     1       6.913   6.500  17.557  0.00  0.00    +0.000 OA
ATOM      7  N   UNL     1       5.375   5.172  16.430  0.00  0.00    +0.000 N 
ATOM      8  H   UNL     1       6.262   4.224  13.012  0.00  0.00    +0.000 HD
ATOM      9  H   UNL     1       8.314   4.759  12.590  0.00  0.00    +0.000 HD
ATOM     10  H   UNL     1       9.187   5.627  13.745  0.00  0.00    +0.000 HD
ATOM     11  H   UNL     1       8.242   6.345  15.654  0.00  0.00    +0.000 HD
ATOM     12  H   UNL     1       5.342   4.601  15.582  0.00  0.00    +0.000 HD
ENDROOT
BRANCH   7  13
ATOM     13  C   UNL     1       4.333   5.079  17.366  0.00  0.00    +0.000 A 
ATOM     14  C   UNL     1       3.502   6.160  17.680  0.00  0.00    +0.000 A 
ATOM     15  C   UNL     1       2.518   6.052  18.669  0.00  0.00    +0.000 A 
ATOM     16  C   UNL     1       2.349   4.856  19.364  0.00  0.00    +0.000 A 
ATOM     17 CL   UNL     1       1.196   4.836  20.647  0.00  0.00    +0.000 Cl
ATOM     18  C   UNL     1       3.147   3.767  19.015  0.00  0.00    +0.000 A 
ATOM     19  C   UNL     1       4.129   3.859  18.013  0.00  0.00    +0.000 A 
BRANCH  18  20
ATOM     20  N   UNL     1       3.009   2.506  19.709  0.00  0.00    +0.000 N 
ATOM     21  O   UNL     1       2.106   1.745  19.340  0.00  0.00    +0.000 OA
ATOM     22  O   UNL     1       3.843   2.261  20.591  0.00  0.00    +0.000 OA
ENDBRANCH  18  20
ENDBRANCH   7  13
TORSDOF 2
ENDMDL
MODEL 5
REMARK VINA RESULT:      -7.4      3.407      6.224
REMARK  Name = 
REMARK  2 active torsions:
REMARK  status: ('A' for Active; 'I' for Inactive)
REMARK    1  A    between atoms: N_7  and  C_8
REMARK    2  A    between atoms: C_13  and  N_14
REMARK                            x       y       z     vdW  Elec       q    Type
REMARK                         _______ _______ _______ _____ _____    ______ ____
ROOT
ATOM      1  N   UNL     1       2.985   2.485  21.795  0.00  0.00    +0.000 NA
ATOM      2  C   UNL     1       1.722   2.648  21.618  0.00  0.00    +0.000 C 
ATOM      3  N   UNL     1       0.806   2.327  22.554  0.00  0.00    +0.000 N 
ATOM      4  N   UNL     1       1.254   3.165  20.441  0.00  0.00    +0.000 N 
ATOM      5  C   UNL     1       1.923   3.638  19.328  0.00  0.00    +0.000 C 
ATOM      6  O   UNL     1       1.251   4.099  18.406  0.00  0.00    +0.000 OA
ATOM      7  N   UNL     1       3.288   3.523  19.365  0.00  0.00    +0.000 N 
ATOM      8  H   UNL     1       3.144   2.132  22.743  0.00  0.00    +0.000 HD
ATOM      9  H   UNL     1       1.098   1.701  23.293  0.00  0.00    +0.000 HD
ATOM     10  H   UNL     1      -0.144   2.153  22.245  0.00  0.00    +0.000 HD
ATOM     11  H   UNL     1       0.260   3.296  20.350  0.00  0.00    +0.000 HD
ATOM     12  H   UNL     1       3.625   2.986  20.167  0.00  0.00    +0.000 HD
ENDROOT
BRANCH   7  13
ATOM     13  C   UNL     1       4.198   3.934  18.378  0.00  0.00    +0.000 A 
ATOM     14  C   UNL     1       3.999   3.684  17.016  0.00  0.00    +0.000 A 
ATOM     15  C   UNL     1       4.961   4.047  16.066  0.00  0.00    +0.000 A 
ATOM     16  C   UNL     1       6.143   4.667  16.465  0.00  0.00    +0.000 A 
ATOM     17 CL   UNL     1       7.329   4.977  15.251  0.00  0.00    +0.000 Cl
ATOM     18  C   UNL     1       6.316   4.958  17.818  0.00  0.00    +0.000 A 
ATOM     19  C   UNL     1       5.351   4.612  18.780  0.00  0.00    +0.000 A 
BRANCH  18  20
ATOM     20  N   UNL     1       7.527   5.599  18.279  0.00  0.00    +0.000 N 
ATOM     21  O   UNL     1       7.684   6.795  18.001  0.00  0.00    +0.000 OA
ATOM     22  O   UNL     1       8.296   4.913  18.966  0.00  0.00    +0.000 OA
ENDBRANCH  18  20
ENDBRANCH   7  13
TORSDOF 2
ENDMDL
MODEL 6
REMARK VINA RESULT:      -7.3      1.632      1.919
REMARK  Name = 
REMARK  2 active torsions:
REMARK  status: ('A' for Active; 'I' for Inactive)
REMARK    1  A    between atoms: N_7  and  C_8
REMARK    2  A    between atoms: C_13  and  N_14
REMARK                            x       y       z     vdW  Elec       q    Type
REMARK                         _______ _______ _______ _____ _____    ______ ____
ROOT
ATOM      1  N   UNL     1       5.596   3.750  13.192  0.00  0.00    +0.000 NA
ATOM      2  C   UNL     1       6.714   4.376  13.100  0.00  0.00    +0.000 C 
ATOM      3  N   UNL     1       7.460   4.380  11.976  0.00  0.00    +0.000 N 
ATOM      4  N   UNL     1       7.200   5.075  14.171  0.00  0.00    +0.000 N 
ATOM      5  C   UNL     1       6.661   5.311  15.422  0.00  0.00    +0.000 C 
ATOM      6  O   UNL     1       7.297   6.022  16.198  0.00  0.00    +0.000 OA
ATOM      7  N   UNL     1       5.462   4.697  15.674  0.00  0.00    +0.000 N 
ATOM      8  H   UNL     1       5.378   3.326  12.286  0.00  0.00    +0.000 HD
ATOM      9  H   UNL     1       7.268   3.662  11.290  0.00  0.00    +0.000 HD
ATOM     10  H   UNL     1       8.449   4.582  12.067  0.00  0.00    +0.000 HD
ATOM     11  H   UNL     1       8.070   5.568  14.052  0.00  0.00    +0.000 HD
ATOM     12  H   UNL     1       5.183   4.042  14.939  0.00  0.00    +0.000 HD
ENDROOT
BRANCH   7  13
ATOM     13  C   UNL     1       4.700   4.780  16.850  0.00  0.00    +0.000 A 
ATOM     14  C   UNL     1       4.094   5.968  17.274  0.00  0.00    +0.000 A 
ATOM     15  C   UNL     1       3.400   6.033  18.487  0.00  0.00    +0.000 A 
ATOM     16  C   UNL     1       3.301   4.906  19.301  0.00  0.00    +0.000 A 
ATOM     17 CL   UNL     1       2.531   5.095  20.834  0.00  0.00    +0.000 Cl
ATOM     18  C   UNL     1       3.866   3.712  18.853  0.00  0.00    +0.000 A 
ATOM     19  C   UNL     1       4.553   3.631  17.629  0.00  0.00    +0.000 A 
BRANCH  18  20
ATOM     20  N   UNL     1       3.791   2.517  19.664  0.00  0.00    +0.000 N 
ATOM     21  O   UNL     1       2.710   1.916  19.698  0.00  0.00    +0.000 OA
ATOM     22  O   UNL     1       4.834   2.156  20.224  0.00  0.00    +0.000 OA
ENDBRANCH  18  20
ENDBRANCH   7  13
TORSDOF 2
ENDMDL
MODEL 7
REMARK VINA RESULT:      -7.3      4.560      5.976
REMARK  Name = 
REMARK  2 active torsions:
REMARK  status: ('A' for Active; 'I' for Inactive)
REMARK    1  A    between atoms: N_7  and  C_8
REMARK    2  A    between atoms: C_13  and  N_14
REMARK                            x       y       z     vdW  Elec       q    Type
REMARK                         _______ _______ _______ _____ _____    ______ ____
ROOT
ATOM      1  N   UNL     1       5.241   3.755  19.237  0.00  0.00    +0.000 NA
ATOM      2  C   UNL     1       4.538   2.767  19.664  0.00  0.00    +0.000 C 
ATOM      3  N   UNL     1       5.044   1.529  19.835  0.00  0.00    +0.000 N 
ATOM      4  N   UNL     1       3.215   2.946  19.964  0.00  0.00    +0.000 N 
ATOM      5  C   UNL     1       2.427   4.081  19.953  0.00  0.00    +0.000 C 
ATOM      6  O   UNL     1       1.257   3.973  20.317  0.00  0.00    +0.000 OA
ATOM      7  N   UNL     1       3.040   5.223  19.509  0.00  0.00    +0.000 N 
ATOM      8  H   UNL     1       6.208   3.442  19.109  0.00  0.00    +0.000 HD
ATOM      9  H   UNL     1       5.914   1.315  19.365  0.00  0.00    +0.000 HD
ATOM     10  H   UNL     1       4.395   0.750  19.834  0.00  0.00    +0.000 HD
ATOM     11  H   UNL     1       2.704   2.152  20.315  0.00  0.00    +0.000 HD
ATOM     12  H   UNL     1       3.975   5.055  19.127  0.00  0.00    +0.000 HD
ENDROOT
BRANCH   7  13
ATOM     13  C   UNL     1       2.474   6.504  19.411  0.00  0.00    +0.000 A 
ATOM     14  C   UNL     1       2.505   7.254  18.230  0.00  0.00    +0.000 A 
ATOM     15  C   UNL     1       1.993   8.556  18.187  0.00  0.00    +0.000 A 
ATOM     16  C   UNL     1       1.440   9.131  19.330  0.00  0.00    +0.000 A 
ATOM     17 CL   UNL     1       0.937  10.779  19.228  0.00  0.00    +0.000 Cl
ATOM     18  C   UNL     1       1.368   8.363  20.491  0.00  0.00    +0.000 A 
ATOM     19  C   UNL     1       1.866   7.049  20.543  0.00  0.00    +0.000 A 
BRANCH  18  20
ATOM     20  N   UNL     1       0.805   8.918  21.702  0.00  0.00    +0.000 N 
ATOM     21  O   UNL     1      -0.402   8.736  21.907  0.00  0.00    +0.000 OA
ATOM     22  O   UNL     1       1.588   9.491  22.471  0.00  0.00    +0.000 OA
ENDBRANCH  18  20
ENDBRANCH   7  13
TORSDOF 2
ENDMDL
MODEL 8
REMARK VINA RESULT:      -7.3      2.181      2.579
REMARK  Name = 
REMARK  2 active torsions:
REMARK  status: ('A' for Active; 'I' for Inactive)
REMARK    1  A    between atoms: N_7  and  C_8
REMARK    2  A    between atoms: C_13  and  N_14
REMARK                            x       y       z     vdW  Elec       q    Type
REMARK                         _______ _______ _______ _____ _____    ______ ____
ROOT
ATOM      1  N   UNL     1       5.702   4.632  14.866  0.00  0.00    +0.000 NA
ATOM      2  C   UNL     1       6.932   4.937  15.079  0.00  0.00    +0.000 C 
ATOM      3  N   UNL     1       7.765   5.341  14.099  0.00  0.00    +0.000 N 
ATOM      4  N   UNL     1       7.450   4.858  16.343  0.00  0.00    +0.000 N 
ATOM      5  C   UNL     1       6.856   4.541  17.549  0.00  0.00    +0.000 C 
ATOM      6  O   UNL     1       7.551   4.587  18.563  0.00  0.00    +0.000 OA
ATOM      7  N   UNL     1       5.535   4.182  17.482  0.00  0.00    +0.000 N 
ATOM      8  H   UNL     1       5.487   4.794  13.878  0.00  0.00    +0.000 HD
ATOM      9  H   UNL     1       7.491   5.141  13.146  0.00  0.00    +0.000 HD
ATOM     10  H   UNL     1       8.762   5.233  14.252  0.00  0.00    +0.000 HD
ATOM     11  H   UNL     1       8.412   5.125  16.471  0.00  0.00    +0.000 HD
ATOM     12  H   UNL     1       5.194   4.079  16.523  0.00  0.00    +0.000 HD
ENDROOT
BRANCH   7  13
ATOM     13  C   UNL     1       4.698   3.828  18.553  0.00  0.00    +0.000 A 
ATOM     14  C   UNL     1       4.819   2.613  19.236  0.00  0.00    +0.000 A 
ATOM     15  C   UNL     1       3.924   2.263  20.253  0.00  0.00    +0.000 A 
ATOM     16  C   UNL     1       2.888   3.126  20.605  0.00  0.00    +0.000 A 
ATOM     17 CL   UNL     1       1.757   2.574  21.785  0.00  0.00    +0.000 Cl
ATOM     18  C   UNL     1       2.800   4.357  19.955  0.00  0.00    +0.000 A 
ATOM     19  C   UNL     1       3.702   4.726  18.941  0.00  0.00    +0.000 A 
BRANCH  18  20
ATOM     20  N   UNL     1       1.741   5.285  20.284  0.00  0.00    +0.000 N 
ATOM     21  O   UNL     1       0.607   4.820  20.460  0.00  0.00    +0.000 OA
ATOM     22  O   UNL     1       2.061   6.473  20.417  0.00  0.00    +0.000 OA
ENDBRANCH  18  20
ENDBRANCH   7  13
TORSDOF 2
ENDMDL
MODEL 9
REMARK VINA RESULT:      -7.3      4.476      5.746
REMARK  Name = 
REMARK  2 active torsions:
REMARK  status: ('A' for Active; 'I' for Inactive)
REMARK    1  A    between atoms: N_7  and  C_8
REMARK    2  A    between atoms: C_13  and  N_14
REMARK                            x       y       z     vdW  Elec       q    Type
REMARK                         _______ _______ _______ _____ _____    ______ ____
ROOT
ATOM      1  N   UNL     1       3.206   2.793  20.332  0.00  0.00    +0.000 NA
ATOM      2  C   UNL     1       4.412   2.661  19.907  0.00  0.00    +0.000 C 
ATOM      3  N   UNL     1       5.087   1.495  19.973  0.00  0.00    +0.000 N 
ATOM      4  N   UNL     1       5.069   3.730  19.361  0.00  0.00    +0.000 N 
ATOM      5  C   UNL     1       4.645   5.019  19.102  0.00  0.00    +0.000 C 
ATOM      6  O   UNL     1       5.436   5.786  18.554  0.00  0.00    +0.000 OA
ATOM      7  N   UNL     1       3.371   5.317  19.510  0.00  0.00    +0.000 N 
ATOM      8  H   UNL     1       2.870   1.884  20.663  0.00  0.00    +0.000 HD
ATOM      9  H   UNL     1       4.735   0.791  20.610  0.00  0.00    +0.000 HD
ATOM     10  H   UNL     1       6.100   1.534  19.952  0.00  0.00    +0.000 HD
ATOM     11  H   UNL     1       6.005   3.580  19.022  0.00  0.00    +0.000 HD
ATOM     12  H   UNL     1       2.942   4.573  20.066  0.00  0.00    +0.000 HD
ENDROOT
BRANCH   7  13
ATOM     13  C   UNL     1       2.698   6.540  19.357  0.00  0.00    +0.000 A 
ATOM     14  C   UNL     1       2.685   7.248  18.151  0.00  0.00    +0.000 A 
ATOM     15  C   UNL     1       2.063   8.498  18.053  0.00  0.00    +0.000 A 
ATOM     16  C   UNL     1       1.441   9.062  19.166  0.00  0.00    +0.000 A 
ATOM     17 CL   UNL     1       0.800  10.655  18.997  0.00  0.00    +0.000 Cl
ATOM     18  C   UNL     1       1.415   8.332  20.353  0.00  0.00    +0.000 A 
ATOM     19  C   UNL     1       2.024   7.069  20.459  0.00  0.00    +0.000 A 
BRANCH  18  20
ATOM     20  N   UNL     1       0.784   8.877  21.534  0.00  0.00    +0.000 N 
ATOM     21  O   UNL     1      -0.396   8.572  21.744  0.00  0.00    +0.000 OA
ATOM     22  O   UNL     1       1.493   9.569  22.277  0.00  0.00    +0.000 OA
ENDBRANCH  18  20
ENDBRANCH   7  13
TORSDOF 2
ENDMDL
