MODEL 1
REMARK VINA RESULT:      -8.8      0.000      0.000
REMARK  Name = 
REMARK  2 active torsions:
REMARK  status: ('A' for Active; 'I' for Inactive)
REMARK    1  A    between atoms: C_2  and  C_3
REMARK    2  A    between atoms: C_13  and  C_14
REMARK                            x       y       z     vdW  Elec       q    Type
REMARK                         _______ _______ _______ _____ _____    ______ ____
ROOT
ATOM      1  O   UNL     1       2.579   7.145  18.879  0.00  0.00    +0.000 OA
ATOM      2  C   UNL     1       3.162   6.060  18.870  0.00  0.00    +0.000 C 
ATOM      3  N   UNL     1       4.405   5.867  18.238  0.00  0.00    +0.000 N 
ATOM      4  C   UNL     1       5.107   4.588  18.148  0.00  0.00    +0.000 C 
ATOM      5  C   UNL     1       6.619   4.716  18.118  0.00  0.00    +0.000 C 
ATOM      6  C   UNL     1       7.110   5.738  17.098  0.00  0.00    +0.000 C 
ATOM      7  C   UNL     1       6.358   7.061  17.269  0.00  0.00    +0.000 C 
ATOM      8  C   UNL     1       4.840   6.891  17.288  0.00  0.00    +0.000 C 
ENDROOT
BRANCH   6   9
ATOM      9  C   UNL     1       7.047   5.219  15.690  0.00  0.00    +0.000 A 
ATOM     10  N   UNL     1       7.786   5.584  14.662  0.00  0.00    +0.000 NA
ATOM     11  C   UNL     1       7.309   4.865  13.585  0.00  0.00    +0.000 A 
ATOM     12  C   UNL     1       7.711   4.872  12.241  0.00  0.00    +0.000 A 
ATOM     13  C   UNL     1       7.042   4.037  11.335  0.00  0.00    +0.000 A 
ATOM     14  C   UNL     1       5.996   3.212  11.758  0.00  0.00    +0.000 A 
ATOM     15  C   UNL     1       5.585   3.194  13.098  0.00  0.00    +0.000 A 
ATOM     16  C   UNL     1       6.268   4.033  13.974  0.00  0.00    +0.000 A 
ATOM     17  N   UNL     1       6.126   4.271  15.318  0.00  0.00    +0.000 N 
ATOM     18  H   UNL     1       5.443   3.837  15.923  0.00  0.00    +0.000 HD
ENDBRANCH   6   9
BRANCH   2  19
ATOM     19  C   UNL     1       2.516   4.942  19.616  0.00  0.00    +0.000 A 
ATOM     20  C   UNL     1       2.627   4.810  21.006  0.00  0.00    +0.000 A 
ATOM     21  C   UNL     1       1.883   3.845  21.686  0.00  0.00    +0.000 A 
ATOM     22  C   UNL     1       1.117   2.932  20.967  0.00  0.00    +0.000 A 
ATOM     23  C   UNL     1       1.108   2.981  19.574  0.00  0.00    +0.000 A 
ATOM     24 CL   UNL     1       0.234   1.788  18.694  0.00  0.00    +0.000 Cl
ATOM     25  C   UNL     1       1.793   3.986  18.892  0.00  0.00    +0.000 A 
ENDBRANCH   2  19
TORSDOF 2
ENDMDL
MODEL 2
REMARK VINA RESULT:      -8.3      0.256      1.207
REMARK  Name = 
REMARK  2 active torsions:
REMARK  status: ('A' for Active; 'I' for Inactive)
REMARK    1  A    between atoms: C_2  and  C_3
REMARK    2  A    between atoms: C_13  and  C_14
REMARK                            x       y       z     vdW  Elec       q    Type
REMARK                         _______ _______ _______ _____ _____    ______ ____
ROOT
ATOM      1  O   UNL     1       2.716   7.096  19.154  0.00  0.00    +0.000 OA
ATOM      2  C   UNL     1       3.247   5.988  19.074  0.00  0.00    +0.000 C 
ATOM      3  N   UNL     1       4.458   5.770  18.389  0.00  0.00    +0.000 N 
ATOM      4  C   UNL     1       5.095   4.467  18.214  0.00  0.00    +0.000 C 
ATOM      5  C   UNL     1       6.610   4.528  18.135  0.00  0.00    +0.000 C 
ATOM      6  C   UNL     1       7.113   5.574  17.146  0.00  0.00    +0.000 C 
ATOM      7  C   UNL     1       6.430   6.920  17.406  0.00  0.00    +0.000 C 
ATOM      8  C   UNL     1       4.908   6.818  17.472  0.00  0.00    +0.000 C 
ENDROOT
BRANCH   6   9
ATOM      9  C   UNL     1       6.978   5.128  15.719  0.00  0.00    +0.000 A 
ATOM     10  N   UNL     1       6.210   4.170  15.242  0.00  0.00    +0.000 NA
ATOM     11  C   UNL     1       6.486   4.107  13.891  0.00  0.00    +0.000 A 
ATOM     12  C   UNL     1       5.972   3.258  12.900  0.00  0.00    +0.000 A 
ATOM     13  C   UNL     1       6.435   3.403  11.584  0.00  0.00    +0.000 A 
ATOM     14  C   UNL     1       7.390   4.372  11.263  0.00  0.00    +0.000 A 
ATOM     15  C   UNL     1       7.912   5.227  12.243  0.00  0.00    +0.000 A 
ATOM     16  C   UNL     1       7.431   5.061  13.540  0.00  0.00    +0.000 A 
ATOM     17  N   UNL     1       7.723   5.701  14.718  0.00  0.00    +0.000 N 
ATOM     18  H   UNL     1       8.389   6.452  14.829  0.00  0.00    +0.000 HD
ENDBRANCH   6   9
BRANCH   2  19
ATOM     19  C   UNL     1       2.575   4.866  19.789  0.00  0.00    +0.000 A 
ATOM     20  C   UNL     1       2.678   4.697  21.176  0.00  0.00    +0.000 A 
ATOM     21  C   UNL     1       1.911   3.731  21.829  0.00  0.00    +0.000 A 
ATOM     22  C   UNL     1       1.129   2.852  21.085  0.00  0.00    +0.000 A 
ATOM     23  C   UNL     1       1.127   2.935  19.693  0.00  0.00    +0.000 A 
ATOM     24 CL   UNL     1       0.232   1.783  18.781  0.00  0.00    +0.000 Cl
ATOM     25  C   UNL     1       1.835   3.943  19.040  0.00  0.00    +0.000 A 
ENDBRANCH   2  19
TORSDOF 2
ENDMDL
MODEL 3
REMARK VINA RESULT:      -8.3      1.021      1.443
REMARK  Name = 
REMARK  2 active torsions:
REMARK  status: ('A' for Active; 'I' for Inactive)
REMARK    1  A    between atoms: C_2  and  C_3
REMARK    2  A    between atoms: C_13  and  C_14
REMARK                            x       y       z     vdW  Elec       q    Type
REMARK                         _______ _______ _______ _____ _____    ______ ____
ROOT
ATOM      1  O   UNL     1       2.274   6.891  18.629  0.00  0.00    +0.000 OA
ATOM      2  C   UNL     1       2.790   5.777  18.542  0.00  0.00    +0.000 C 
ATOM      3  N   UNL     1       4.092   5.576  18.044  0.00  0.00    +0.000 N 
ATOM      4  C   UNL     1       4.726   4.271  17.865  0.00  0.00    +0.000 C 
ATOM      5  C   UNL     1       6.234   4.291  18.035  0.00  0.00    +0.000 C 
ATOM      6  C   UNL     1       6.909   5.396  17.231  0.00  0.00    +0.000 C 
ATOM      7  C   UNL     1       6.218   6.738  17.489  0.00  0.00    +0.000 C 
ATOM      8  C   UNL     1       4.704   6.679  17.302  0.00  0.00    +0.000 C 
ENDROOT
BRANCH   6   9
ATOM      9  C   UNL     1       7.000   5.069  15.769  0.00  0.00    +0.000 A 
ATOM     10  N   UNL     1       7.717   5.680  14.847  0.00  0.00    +0.000 NA
ATOM     11  C   UNL     1       7.416   5.047  13.658  0.00  0.00    +0.000 A 
ATOM     12  C   UNL     1       7.875   5.298  12.357  0.00  0.00    +0.000 A 
ATOM     13  C   UNL     1       7.397   4.498  11.309  0.00  0.00    +0.000 A 
ATOM     14  C   UNL     1       6.481   3.470  11.553  0.00  0.00    +0.000 A 
ATOM     15  C   UNL     1       6.015   3.208  12.848  0.00  0.00    +0.000 A 
ATOM     16  C   UNL     1       6.509   4.017  13.868  0.00  0.00    +0.000 A 
ATOM     17  N   UNL     1       6.266   4.047  15.218  0.00  0.00    +0.000 N 
ATOM     18  H   UNL     1       5.635   3.434  15.714  0.00  0.00    +0.000 HD
ENDBRANCH   6   9
BRANCH   2  19
ATOM     19  C   UNL     1       1.992   4.623  19.045  0.00  0.00    +0.000 A 
ATOM     20  C   UNL     1       1.125   3.898  18.216  0.00  0.00    +0.000 A 
ATOM     21  C   UNL     1       0.514   2.731  18.680  0.00  0.00    +0.000 A 
ATOM     22  C   UNL     1       0.675   2.350  20.009  0.00  0.00    +0.000 A 
ATOM     23  C   UNL     1       1.434   3.143  20.870  0.00  0.00    +0.000 A 
ATOM     24 CL   UNL     1       1.546   2.713  22.532  0.00  0.00    +0.000 Cl
ATOM     25  C   UNL     1       2.103   4.270  20.395  0.00  0.00    +0.000 A 
ENDBRANCH   2  19
TORSDOF 2
ENDMDL
MODEL 4
REMARK VINA RESULT:      -8.0      5.371      8.292
REMARK  Name = 
REMARK  2 active torsions:
REMARK  status: ('A' for Active; 'I' for Inactive)
REMARK    1  A    between atoms: C_2  and  C_3
REMARK    2  A    between atoms: C_13  and  C_14
REMARK                            x       y       z     vdW  Elec       q    Type
REMARK                         _______ _______ _______ _____ _____    ______ ____
ROOT
ATOM      1  O   UNL     1       1.979   5.861  21.144  0.00  0.00    +0.000 OA
ATOM      2  C   UNL     1       2.115   6.305  20.004  0.00  0.00    +0.000 C 
ATOM      3  N   UNL     1       1.759   7.620  19.650  0.00  0.00    +0.000 N 
ATOM      4  C   UNL     1       1.845   8.174  18.300  0.00  0.00    +0.000 C 
ATOM      5  C   UNL     1       2.126   9.666  18.263  0.00  0.00    +0.000 C 
ATOM      6  C   UNL     1       1.208  10.467  19.178  0.00  0.00    +0.000 C 
ATOM      7  C   UNL     1       1.189   9.854  20.581  0.00  0.00    +0.000 C 
ATOM      8  C   UNL     1       0.897   8.355  20.577  0.00  0.00    +0.000 C 
ENDROOT
BRANCH   6   9
ATOM      9  C   UNL     1      -0.170  10.634  18.606  0.00  0.00    +0.000 A 
ATOM     10  N   UNL     1      -1.194  11.272  19.137  0.00  0.00    +0.000 NA
ATOM     11  C   UNL     1      -2.244  11.090  18.261  0.00  0.00    +0.000 A 
ATOM     12  C   UNL     1      -3.573  11.534  18.334  0.00  0.00    +0.000 A 
ATOM     13  C   UNL     1      -4.452  11.198  17.295  0.00  0.00    +0.000 A 
ATOM     14  C   UNL     1      -4.017  10.437  16.206  0.00  0.00    +0.000 A 
ATOM     15  C   UNL     1      -2.693   9.988  16.119  0.00  0.00    +0.000 A 
ATOM     16  C   UNL     1      -1.842  10.338  17.164  0.00  0.00    +0.000 A 
ATOM     17  N   UNL     1      -0.519  10.067  17.404  0.00  0.00    +0.000 N 
ATOM     18  H   UNL     1       0.087   9.523  16.806  0.00  0.00    +0.000 HD
ENDBRANCH   6   9
BRANCH   2  19
ATOM     19  C   UNL     1       2.735   5.397  18.997  0.00  0.00    +0.000 A 
ATOM     20  C   UNL     1       1.975   4.512  18.222  0.00  0.00    +0.000 A 
ATOM     21  C   UNL     1       2.569   3.793  17.183  0.00  0.00    +0.000 A 
ATOM     22  C   UNL     1       3.945   3.866  16.992  0.00  0.00    +0.000 A 
ATOM     23  C   UNL     1       4.722   4.648  17.847  0.00  0.00    +0.000 A 
ATOM     24 CL   UNL     1       6.433   4.656  17.660  0.00  0.00    +0.000 Cl
ATOM     25  C   UNL     1       4.127   5.424  18.841  0.00  0.00    +0.000 A 
ENDBRANCH   2  19
TORSDOF 2
ENDMDL
MODEL 5
REMARK VINA RESULT:      -7.9      5.531      8.533
REMARK  Name = 
REMARK  2 active torsions:
REMARK  status: ('A' for Active; 'I' for Inactive)
REMARK    1  A    between atoms: C_2  and  C_3
REMARK    2  A    between atoms: C_13  and  C_14
REMARK                            x       y       z     vdW  Elec       q    Type
REMARK                         _______ _______ _______ _____ _____    ______ ____
ROOT
ATOM      1  O   UNL     1       2.055   6.302  20.905  0.00  0.00    +0.000 OA
ATOM      2  C   UNL     1       2.142   6.826  19.793  0.00  0.00    +0.000 C 
ATOM      3  N   UNL     1       1.696   8.135  19.530  0.00  0.00    +0.000 N 
ATOM      4  C   UNL     1       1.721   8.778  18.217  0.00  0.00    +0.000 C 
ATOM      5  C   UNL     1       1.905  10.283  18.273  0.00  0.00    +0.000 C 
ATOM      6  C   UNL     1       0.955  10.964  19.251  0.00  0.00    +0.000 C 
ATOM      7  C   UNL     1       1.001  10.263  20.611  0.00  0.00    +0.000 C 
ATOM      8  C   UNL     1       0.806   8.751  20.515  0.00  0.00    +0.000 C 
ENDROOT
BRANCH   6   9
ATOM      9  C   UNL     1      -0.442  11.076  18.710  0.00  0.00    +0.000 A 
ATOM     10  N   UNL     1      -1.502  11.576  19.311  0.00  0.00    +0.000 NA
ATOM     11  C   UNL     1      -2.550  11.399  18.430  0.00  0.00    +0.000 A 
ATOM     12  C   UNL     1      -3.908  11.726  18.559  0.00  0.00    +0.000 A 
ATOM     13  C   UNL     1      -4.775  11.426  17.500  0.00  0.00    +0.000 A 
ATOM     14  C   UNL     1      -4.300  10.813  16.336  0.00  0.00    +0.000 A 
ATOM     15  C   UNL     1      -2.947  10.482  16.193  0.00  0.00    +0.000 A 
ATOM     16  C   UNL     1      -2.109  10.794  17.261  0.00  0.00    +0.000 A 
ATOM     17  N   UNL     1      -0.765  10.606  17.461  0.00  0.00    +0.000 N 
ATOM     18  H   UNL     1      -0.129  10.173  16.807  0.00  0.00    +0.000 HD
ENDBRANCH   6   9
BRANCH   2  19
ATOM     19  C   UNL     1       2.800   6.026  18.721  0.00  0.00    +0.000 A 
ATOM     20  C   UNL     1       3.793   6.564  17.891  0.00  0.00    +0.000 A 
ATOM     21  C   UNL     1       4.495   5.745  17.006  0.00  0.00    +0.000 A 
ATOM     22  C   UNL     1       4.127   4.410  16.863  0.00  0.00    +0.000 A 
ATOM     23  C   UNL     1       3.053   3.905  17.595  0.00  0.00    +0.000 A 
ATOM     24 CL   UNL     1       2.548   2.280  17.338  0.00  0.00    +0.000 Cl
ATOM     25  C   UNL     1       2.394   4.699  18.532  0.00  0.00    +0.000 A 
ENDBRANCH   2  19
TORSDOF 2
ENDMDL
MODEL 6
REMARK VINA RESULT:      -7.8      5.376      8.344
REMARK  Name = 
REMARK  2 active torsions:
REMARK  status: ('A' for Active; 'I' for Inactive)
REMARK    1  A    between atoms: C_2  and  C_3
REMARK    2  A    between atoms: C_13  and  C_14
REMARK                            x       y       z     vdW  Elec       q    Type
REMARK                         _______ _______ _______ _____ _____    ______ ____
ROOT
ATOM      1  O   UNL     1       2.058   5.679  21.149  0.00  0.00    +0.000 OA
ATOM      2  C   UNL     1       2.206   6.138  20.015  0.00  0.00    +0.000 C 
ATOM      3  N   UNL     1       1.812   7.442  19.662  0.00  0.00    +0.000 N 
ATOM      4  C   UNL     1       1.911   8.010  18.319  0.00  0.00    +0.000 C 
ATOM      5  C   UNL     1       2.139   9.511  18.301  0.00  0.00    +0.000 C 
ATOM      6  C   UNL     1       1.170  10.272  19.199  0.00  0.00    +0.000 C 
ATOM      7  C   UNL     1       1.140   9.646  20.596  0.00  0.00    +0.000 C 
ATOM      8  C   UNL     1       0.901   8.137  20.573  0.00  0.00    +0.000 C 
ENDROOT
BRANCH   6   9
ATOM      9  C   UNL     1      -0.199  10.394  18.594  0.00  0.00    +0.000 A 
ATOM     10  N   UNL     1      -0.630   9.878  17.461  0.00  0.00    +0.000 NA
ATOM     11  C   UNL     1      -1.929  10.320  17.319  0.00  0.00    +0.000 A 
ATOM     12  C   UNL     1      -2.856  10.094  16.291  0.00  0.00    +0.000 A 
ATOM     13  C   UNL     1      -4.127  10.677  16.391  0.00  0.00    +0.000 A 
ATOM     14  C   UNL     1      -4.468  11.468  17.492  0.00  0.00    +0.000 A 
ATOM     15  C   UNL     1      -3.553  11.702  18.527  0.00  0.00    +0.000 A 
ATOM     16  C   UNL     1      -2.299  11.109  18.400  0.00  0.00    +0.000 A 
ATOM     17  N   UNL     1      -1.185  11.134  19.200  0.00  0.00    +0.000 N 
ATOM     18  H   UNL     1      -1.100  11.633  20.074  0.00  0.00    +0.000 HD
ENDBRANCH   6   9
BRANCH   2  19
ATOM     19  C   UNL     1       2.882   5.261  19.017  0.00  0.00    +0.000 A 
ATOM     20  C   UNL     1       2.172   4.370  18.202  0.00  0.00    +0.000 A 
ATOM     21  C   UNL     1       2.818   3.682  17.174  0.00  0.00    +0.000 A 
ATOM     22  C   UNL     1       4.198   3.792  17.033  0.00  0.00    +0.000 A 
ATOM     23  C   UNL     1       4.926   4.578  17.926  0.00  0.00    +0.000 A 
ATOM     24 CL   UNL     1       6.641   4.629  17.800  0.00  0.00    +0.000 Cl
ATOM     25  C   UNL     1       4.277   5.323  18.910  0.00  0.00    +0.000 A 
ENDBRANCH   2  19
TORSDOF 2
ENDMDL
MODEL 7
REMARK VINA RESULT:      -7.6      1.136      1.274
REMARK  Name = 
REMARK  2 active torsions:
REMARK  status: ('A' for Active; 'I' for Inactive)
REMARK    1  A    between atoms: C_2  and  C_3
REMARK    2  A    between atoms: C_13  and  C_14
REMARK                            x       y       z     vdW  Elec       q    Type
REMARK                         _______ _______ _______ _____ _____    ______ ____
ROOT
ATOM      1  O   UNL     1       2.590   7.031  18.972  0.00  0.00    +0.000 OA
ATOM      2  C   UNL     1       3.214   5.969  18.962  0.00  0.00    +0.000 C 
ATOM      3  N   UNL     1       4.445   5.814  18.297  0.00  0.00    +0.000 N 
ATOM      4  C   UNL     1       5.193   4.562  18.205  0.00  0.00    +0.000 C 
ATOM      5  C   UNL     1       6.698   4.747  18.128  0.00  0.00    +0.000 C 
ATOM      6  C   UNL     1       7.119   5.770  17.079  0.00  0.00    +0.000 C 
ATOM      7  C   UNL     1       6.322   7.067  17.253  0.00  0.00    +0.000 C 
ATOM      8  C   UNL     1       4.813   6.839  17.319  0.00  0.00    +0.000 C 
ENDROOT
BRANCH   6   9
ATOM      9  C   UNL     1       7.036   5.228  15.682  0.00  0.00    +0.000 A 
ATOM     10  N   UNL     1       7.786   5.546  14.646  0.00  0.00    +0.000 NA
ATOM     11  C   UNL     1       7.282   4.825  13.583  0.00  0.00    +0.000 A 
ATOM     12  C   UNL     1       7.682   4.792  12.239  0.00  0.00    +0.000 A 
ATOM     13  C   UNL     1       6.983   3.964  11.349  0.00  0.00    +0.000 A 
ATOM     14  C   UNL     1       5.908   3.185  11.789  0.00  0.00    +0.000 A 
ATOM     15  C   UNL     1       5.498   3.208  13.128  0.00  0.00    +0.000 A 
ATOM     16  C   UNL     1       6.212   4.038  13.989  0.00  0.00    +0.000 A 
ATOM     17  N   UNL     1       6.081   4.307  15.328  0.00  0.00    +0.000 N 
ATOM     18  H   UNL     1       5.383   3.909  15.941  0.00  0.00    +0.000 HD
ENDBRANCH   6   9
BRANCH   2  19
ATOM     19  C   UNL     1       2.634   4.839  19.742  0.00  0.00    +0.000 A 
ATOM     20  C   UNL     1       1.259   4.731  19.989  0.00  0.00    +0.000 A 
ATOM     21  C   UNL     1       0.736   3.583  20.586  0.00  0.00    +0.000 A 
ATOM     22  C   UNL     1       1.598   2.591  21.045  0.00  0.00    +0.000 A 
ATOM     23  C   UNL     1       2.977   2.757  20.916  0.00  0.00    +0.000 A 
ATOM     24 CL   UNL     1       4.034   1.569  21.573  0.00  0.00    +0.000 Cl
ATOM     25  C   UNL     1       3.501   3.868  20.258  0.00  0.00    +0.000 A 
ENDBRANCH   2  19
TORSDOF 2
ENDMDL
MODEL 8
REMARK VINA RESULT:      -7.6      5.549      8.599
REMARK  Name = 
REMARK  2 active torsions:
REMARK  status: ('A' for Active; 'I' for Inactive)
REMARK    1  A    between atoms: C_2  and  C_3
REMARK    2  A    between atoms: C_13  and  C_14
REMARK                            x       y       z     vdW  Elec       q    Type
REMARK                         _______ _______ _______ _____ _____    ______ ____
ROOT
ATOM      1  O   UNL     1       2.161   6.228  20.965  0.00  0.00    +0.000 OA
ATOM      2  C   UNL     1       2.216   6.714  19.834  0.00  0.00    +0.000 C 
ATOM      3  N   UNL     1       1.737   8.004  19.534  0.00  0.00    +0.000 N 
ATOM      4  C   UNL     1       1.725   8.600  18.200  0.00  0.00    +0.000 C 
ATOM      5  C   UNL     1       1.877  10.111  18.200  0.00  0.00    +0.000 C 
ATOM      6  C   UNL     1       0.930  10.805  19.172  0.00  0.00    +0.000 C 
ATOM      7  C   UNL     1       1.017  10.153  20.555  0.00  0.00    +0.000 C 
ATOM      8  C   UNL     1       0.852   8.635  20.514  0.00  0.00    +0.000 C 
ENDROOT
BRANCH   6   9
ATOM      9  C   UNL     1      -0.478  10.869  18.654  0.00  0.00    +0.000 A 
ATOM     10  N   UNL     1      -0.941  10.401  17.513  0.00  0.00    +0.000 NA
ATOM     11  C   UNL     1      -2.274  10.758  17.475  0.00  0.00    +0.000 A 
ATOM     12  C   UNL     1      -3.244  10.535  16.487  0.00  0.00    +0.000 A 
ATOM     13  C   UNL     1      -4.543  11.017  16.699  0.00  0.00    +0.000 A 
ATOM     14  C   UNL     1      -4.869  11.707  17.871  0.00  0.00    +0.000 A 
ATOM     15  C   UNL     1      -3.911  11.936  18.867  0.00  0.00    +0.000 A 
ATOM     16  C   UNL     1      -2.630  11.443  18.629  0.00  0.00    +0.000 A 
ATOM     17  N   UNL     1      -1.473  11.495  19.365  0.00  0.00    +0.000 N 
ATOM     18  H   UNL     1      -1.370  11.939  20.267  0.00  0.00    +0.000 HD
ENDBRANCH   6   9
BRANCH   2  19
ATOM     19  C   UNL     1       2.872   5.891  18.779  0.00  0.00    +0.000 A 
ATOM     20  C   UNL     1       3.876   6.405  17.948  0.00  0.00    +0.000 A 
ATOM     21  C   UNL     1       4.574   5.565  17.080  0.00  0.00    +0.000 A 
ATOM     22  C   UNL     1       4.191   4.233  16.953  0.00  0.00    +0.000 A 
ATOM     23  C   UNL     1       3.106   3.751  17.684  0.00  0.00    +0.000 A 
ATOM     24 CL   UNL     1       2.583   2.129  17.447  0.00  0.00    +0.000 Cl
ATOM     25  C   UNL     1       2.450   4.567  18.605  0.00  0.00    +0.000 A 
ENDBRANCH   2  19
TORSDOF 2
ENDMDL
MODEL 9
REMARK VINA RESULT:      -7.5      1.084      1.903
REMARK  Name = 
REMARK  2 active torsions:
REMARK  status: ('A' for Active; 'I' for Inactive)
REMARK    1  A    between atoms: C_2  and  C_3
REMARK    2  A    between atoms: C_13  and  C_14
REMARK                            x       y       z     vdW  Elec       q    Type
REMARK                         _______ _______ _______ _____ _____    ______ ____
ROOT
ATOM      1  O   UNL     1       2.349   6.782  18.874  0.00  0.00    +0.000 OA
ATOM      2  C   UNL     1       2.802   5.650  18.703  0.00  0.00    +0.000 C 
ATOM      3  N   UNL     1       4.076   5.414  18.151  0.00  0.00    +0.000 N 
ATOM      4  C   UNL     1       4.634   4.092  17.872  0.00  0.00    +0.000 C 
ATOM      5  C   UNL     1       6.145   4.024  17.993  0.00  0.00    +0.000 C 
ATOM      6  C   UNL     1       6.855   5.141  17.236  0.00  0.00    +0.000 C 
ATOM      7  C   UNL     1       6.244   6.498  17.598  0.00  0.00    +0.000 C 
ATOM      8  C   UNL     1       4.724   6.529  17.458  0.00  0.00    +0.000 C 
ENDROOT
BRANCH   6   9
ATOM      9  C   UNL     1       6.885   4.901  15.755  0.00  0.00    +0.000 A 
ATOM     10  N   UNL     1       6.236   3.979  15.072  0.00  0.00    +0.000 NA
ATOM     11  C   UNL     1       6.638   4.132  13.761  0.00  0.00    +0.000 A 
ATOM     12  C   UNL     1       6.281   3.409  12.613  0.00  0.00    +0.000 A 
ATOM     13  C   UNL     1       6.850   3.773  11.385  0.00  0.00    +0.000 A 
ATOM     14  C   UNL     1       7.756   4.835  11.301  0.00  0.00    +0.000 A 
ATOM     15  C   UNL     1       8.121   5.567  12.439  0.00  0.00    +0.000 A 
ATOM     16  C   UNL     1       7.538   5.183  13.644  0.00  0.00    +0.000 A 
ATOM     17  N   UNL     1       7.672   5.660  14.923  0.00  0.00    +0.000 N 
ATOM     18  H   UNL     1       8.269   6.425  15.205  0.00  0.00    +0.000 HD
ENDBRANCH   6   9
BRANCH   2  19
ATOM     19  C   UNL     1       1.958   4.510  19.160  0.00  0.00    +0.000 A 
ATOM     20  C   UNL     1       1.123   3.802  18.286  0.00  0.00    +0.000 A 
ATOM     21  C   UNL     1       0.469   2.646  18.714  0.00  0.00    +0.000 A 
ATOM     22  C   UNL     1       0.554   2.259  20.048  0.00  0.00    +0.000 A 
ATOM     23  C   UNL     1       1.281   3.036  20.949  0.00  0.00    +0.000 A 
ATOM     24 CL   UNL     1       1.299   2.602  22.614  0.00  0.00    +0.000 Cl
ATOM     25  C   UNL     1       1.994   4.152  20.513  0.00  0.00    +0.000 A 
ENDBRANCH   2  19
TORSDOF 2
ENDMDL
