MODEL 1
REMARK VINA RESULT:      -8.4      0.000      0.000
REMARK  Name = 
REMARK  9 active torsions:
REMARK  status: ('A' for Active; 'I' for Inactive)
REMARK    1  A    between atoms: C_1  and  C_2
REMARK    2  A    between atoms: C_2  and  S_3
REMARK    3  A    between atoms: S_3  and  N_6
REMARK    4  A    between atoms: N_6  and  C_7
REMARK    5  A    between atoms: C_10  and  C_11
REMARK    6  A    between atoms: C_11  and  C_12
REMARK    7  A    between atoms: C_12  and  N_13
REMARK    8  A    between atoms: C_14  and  C_16
REMARK    9  A    between atoms: C_22  and  C_23
REMARK                            x       y       z     vdW  Elec       q    Type
REMARK                         _______ _______ _______ _____ _____    ______ ____
ROOT
ATOM      1  N   UNL     1       6.820   7.739  17.686  0.00  0.00    +0.000 N 
ATOM      2  C   UNL     1       6.762   6.595  16.918  0.00  0.00    +0.000 C 
ATOM      3  O   UNL     1       7.648   6.268  16.133  0.00  0.00    +0.000 OA
ATOM      4  H   UNL     1       6.050   7.941  18.324  0.00  0.00    +0.000 HD
ENDROOT
BRANCH   2   5
ATOM      5  C   UNL     1       5.567   5.736  17.064  0.00  0.00    +0.000 A 
ATOM      6  C   UNL     1       5.614   4.401  16.631  0.00  0.00    +0.000 A 
ATOM      7  C   UNL     1       4.484   3.603  16.757  0.00  0.00    +0.000 A 
ATOM      8  N   UNL     1       3.301   3.996  17.283  0.00  0.00    +0.000 NA
ATOM      9  C   UNL     1       3.318   5.281  17.673  0.00  0.00    +0.000 A 
ATOM     10  N   UNL     1       2.276   5.964  18.218  0.00  0.00    +0.000 N 
ATOM     11  C   UNL     1       2.673   7.266  18.433  0.00  0.00    +0.000 A 
ATOM     12  N   UNL     1       3.940   7.426  18.080  0.00  0.00    +0.000 NA
ATOM     13  C   UNL     1       4.357   6.195  17.600  0.00  0.00    +0.000 A 
ATOM     14  H   UNL     1       1.355   5.584  18.362  0.00  0.00    +0.000 HD
BRANCH  11  15
ATOM     15  C   UNL     1       1.751   8.303  18.900  0.00  0.00    +0.000 A 
ATOM     16  C   UNL     1       1.404   8.418  20.256  0.00  0.00    +0.000 A 
ATOM     17  C   UNL     1       0.449   9.352  20.667  0.00  0.00    +0.000 A 
ATOM     18  C   UNL     1      -0.153  10.176  19.723  0.00  0.00    +0.000 A 
ATOM     19  F   UNL     1      -1.088  11.050  20.115  0.00  0.00    +0.000 F 
ATOM     20  C   UNL     1       0.198  10.101  18.382  0.00  0.00    +0.000 A 
ATOM     21  C   UNL     1       1.156   9.170  17.971  0.00  0.00    +0.000 A 
ENDBRANCH  11  15
ENDBRANCH   2   5
BRANCH   1  22
ATOM     22  C   UNL     1       7.948   8.644  17.581  0.00  0.00    +0.000 C 
BRANCH  22  23
ATOM     23  C   UNL     1       8.686   8.850  18.906  0.00  0.00    +0.000 C 
BRANCH  23  27
ATOM     24  C   UNL     1      10.616  12.706  19.148  0.00  0.00    +0.000 A 
ATOM     25  C   UNL     1      10.283  12.171  17.903  0.00  0.00    +0.000 A 
ATOM     26  C   UNL     1       9.633  10.935  17.823  0.00  0.00    +0.000 A 
ATOM     27  C   UNL     1       9.295  10.232  18.988  0.00  0.00    +0.000 A 
ATOM     28  C   UNL     1       9.584  10.809  20.234  0.00  0.00    +0.000 A 
ATOM     29  C   UNL     1      10.231  12.046  20.313  0.00  0.00    +0.000 A 
BRANCH  24  30
ATOM     30  N   UNL     1      11.331  13.947  19.236  0.00  0.00    +0.000 N 
ATOM     31  H   UNL     1      12.266  13.857  18.835  0.00  0.00    +0.000 HD
BRANCH  30  32
ATOM     32  S   UNL     1      10.572  15.273  18.488  0.00  0.00    +0.000 S 
ATOM     33  O   UNL     1       9.142  15.188  18.678  0.00  0.00    +0.000 OA
ATOM     34  O   UNL     1      11.171  15.390  17.177  0.00  0.00    +0.000 OA
BRANCH  32  36
ATOM     35  C   UNL     1      11.342  16.171  20.957  0.00  0.00    +0.000 C 
ATOM     36  C   UNL     1      11.193  16.606  19.511  0.00  0.00    +0.000 C 
ENDBRANCH  32  36
ENDBRANCH  30  32
ENDBRANCH  24  30
ENDBRANCH  23  27
ENDBRANCH  22  23
ENDBRANCH   1  22
TORSDOF 8
ENDMDL
MODEL 2
REMARK VINA RESULT:      -8.3      1.042      1.263
REMARK  Name = 
REMARK  9 active torsions:
REMARK  status: ('A' for Active; 'I' for Inactive)
REMARK    1  A    between atoms: C_1  and  C_2
REMARK    2  A    between atoms: C_2  and  S_3
REMARK    3  A    between atoms: S_3  and  N_6
REMARK    4  A    between atoms: N_6  and  C_7
REMARK    5  A    between atoms: C_10  and  C_11
REMARK    6  A    between atoms: C_11  and  C_12
REMARK    7  A    between atoms: C_12  and  N_13
REMARK    8  A    between atoms: C_14  and  C_16
REMARK    9  A    between atoms: C_22  and  C_23
REMARK                            x       y       z     vdW  Elec       q    Type
REMARK                         _______ _______ _______ _____ _____    ______ ____
ROOT
ATOM      1  N   UNL     1       6.861   7.731  17.618  0.00  0.00    +0.000 N 
ATOM      2  C   UNL     1       6.785   6.572  16.875  0.00  0.00    +0.000 C 
ATOM      3  O   UNL     1       7.650   6.230  16.074  0.00  0.00    +0.000 OA
ATOM      4  H   UNL     1       6.108   7.946  18.271  0.00  0.00    +0.000 HD
ENDROOT
BRANCH   2   5
ATOM      5  C   UNL     1       5.596   5.715  17.069  0.00  0.00    +0.000 A 
ATOM      6  C   UNL     1       5.640   4.366  16.680  0.00  0.00    +0.000 A 
ATOM      7  C   UNL     1       4.515   3.570  16.852  0.00  0.00    +0.000 A 
ATOM      8  N   UNL     1       3.340   3.977  17.385  0.00  0.00    +0.000 NA
ATOM      9  C   UNL     1       3.358   5.274  17.731  0.00  0.00    +0.000 A 
ATOM     10  N   UNL     1       2.324   5.971  18.271  0.00  0.00    +0.000 N 
ATOM     11  C   UNL     1       2.720   7.281  18.435  0.00  0.00    +0.000 A 
ATOM     12  N   UNL     1       3.980   7.433  18.055  0.00  0.00    +0.000 NA
ATOM     13  C   UNL     1       4.393   6.188  17.610  0.00  0.00    +0.000 A 
ATOM     14  H   UNL     1       1.407   5.594  18.442  0.00  0.00    +0.000 HD
BRANCH  11  15
ATOM     15  C   UNL     1       1.802   8.330  18.882  0.00  0.00    +0.000 A 
ATOM     16  C   UNL     1       1.399   8.428  20.225  0.00  0.00    +0.000 A 
ATOM     17  C   UNL     1       0.448   9.376  20.612  0.00  0.00    +0.000 A 
ATOM     18  C   UNL     1      -0.094  10.231  19.661  0.00  0.00    +0.000 A 
ATOM     19  F   UNL     1      -1.025  11.120  20.030  0.00  0.00    +0.000 F 
ATOM     20  C   UNL     1       0.315  10.175  18.335  0.00  0.00    +0.000 A 
ATOM     21  C   UNL     1       1.268   9.229  17.946  0.00  0.00    +0.000 A 
ENDBRANCH  11  15
ENDBRANCH   2   5
BRANCH   1  22
ATOM     22  C   UNL     1       7.984   8.636  17.465  0.00  0.00    +0.000 C 
BRANCH  22  23
ATOM     23  C   UNL     1       8.654   9.002  18.792  0.00  0.00    +0.000 C 
BRANCH  23  27
ATOM     24  C   UNL     1      10.380  12.953  18.565  0.00  0.00    +0.000 A 
ATOM     25  C   UNL     1       9.306  12.616  17.741  0.00  0.00    +0.000 A 
ATOM     26  C   UNL     1       8.728  11.346  17.832  0.00  0.00    +0.000 A 
ATOM     27  C   UNL     1       9.207  10.409  18.760  0.00  0.00    +0.000 A 
ATOM     28  C   UNL     1      10.249  10.784  19.622  0.00  0.00    +0.000 A 
ATOM     29  C   UNL     1      10.825  12.055  19.531  0.00  0.00    +0.000 A 
BRANCH  24  30
ATOM     30  N   UNL     1      11.014  14.235  18.439  0.00  0.00    +0.000 N 
ATOM     31  H   UNL     1      11.108  14.499  17.457  0.00  0.00    +0.000 HD
BRANCH  30  32
ATOM     32  S   UNL     1      10.231  15.512  19.247  0.00  0.00    +0.000 S 
ATOM     33  O   UNL     1      11.208  16.484  19.684  0.00  0.00    +0.000 OA
ATOM     34  O   UNL     1       9.296  14.894  20.159  0.00  0.00    +0.000 OA
BRANCH  32  36
ATOM     35  C   UNL     1       7.812  16.136  18.129  0.00  0.00    +0.000 C 
ATOM     36  C   UNL     1       9.307  16.222  17.887  0.00  0.00    +0.000 C 
ENDBRANCH  32  36
ENDBRANCH  30  32
ENDBRANCH  24  30
ENDBRANCH  23  27
ENDBRANCH  22  23
ENDBRANCH   1  22
TORSDOF 8
ENDMDL
MODEL 3
REMARK VINA RESULT:      -8.3      4.384      9.597
REMARK  Name = 
REMARK  9 active torsions:
REMARK  status: ('A' for Active; 'I' for Inactive)
REMARK    1  A    between atoms: C_1  and  C_2
REMARK    2  A    between atoms: C_2  and  S_3
REMARK    3  A    between atoms: S_3  and  N_6
REMARK    4  A    between atoms: N_6  and  C_7
REMARK    5  A    between atoms: C_10  and  C_11
REMARK    6  A    between atoms: C_11  and  C_12
REMARK    7  A    between atoms: C_12  and  N_13
REMARK    8  A    between atoms: C_14  and  C_16
REMARK    9  A    between atoms: C_22  and  C_23
REMARK                            x       y       z     vdW  Elec       q    Type
REMARK                         _______ _______ _______ _____ _____    ______ ____
ROOT
ATOM      1  N   UNL     1       9.029  11.264  18.367  0.00  0.00    +0.000 N 
ATOM      2  C   UNL     1      10.268  11.814  18.618  0.00  0.00    +0.000 C 
ATOM      3  O   UNL     1      11.222  11.160  19.032  0.00  0.00    +0.000 OA
ATOM      4  H   UNL     1       8.287  11.867  18.015  0.00  0.00    +0.000 HD
ENDROOT
BRANCH   2   5
ATOM      5  C   UNL     1      10.434  13.262  18.368  0.00  0.00    +0.000 A 
ATOM      6  C   UNL     1      11.725  13.803  18.248  0.00  0.00    +0.000 A 
ATOM      7  C   UNL     1      11.874  15.167  18.028  0.00  0.00    +0.000 A 
ATOM      8  N   UNL     1      10.863  16.057  17.903  0.00  0.00    +0.000 NA
ATOM      9  C   UNL     1       9.657  15.480  18.032  0.00  0.00    +0.000 A 
ATOM     10  N   UNL     1       8.457  16.117  17.976  0.00  0.00    +0.000 N 
ATOM     11  C   UNL     1       7.462  15.192  18.204  0.00  0.00    +0.000 A 
ATOM     12  N   UNL     1       7.982  13.985  18.366  0.00  0.00    +0.000 NA
ATOM     13  C   UNL     1       9.354  14.148  18.264  0.00  0.00    +0.000 A 
ATOM     14  H   UNL     1       8.342  17.110  17.861  0.00  0.00    +0.000 HD
BRANCH  11  15
ATOM     15  C   UNL     1       6.053  15.569  18.332  0.00  0.00    +0.000 A 
ATOM     16  C   UNL     1       5.666  16.751  18.985  0.00  0.00    +0.000 A 
ATOM     17  C   UNL     1       4.314  17.044  19.180  0.00  0.00    +0.000 A 
ATOM     18  C   UNL     1       3.348  16.159  18.717  0.00  0.00    +0.000 A 
ATOM     19  F   UNL     1       2.054  16.428  18.931  0.00  0.00    +0.000 F 
ATOM     20  C   UNL     1       3.706  15.000  18.040  0.00  0.00    +0.000 A 
ATOM     21  C   UNL     1       5.059  14.709  17.841  0.00  0.00    +0.000 A 
ENDBRANCH  11  15
ENDBRANCH   2   5
BRANCH   1  22
ATOM     22  C   UNL     1       8.782   9.855  18.611  0.00  0.00    +0.000 C 
BRANCH  22  23
ATOM     23  C   UNL     1       8.250   9.111  17.384  0.00  0.00    +0.000 C 
BRANCH  23  27
ATOM     24  C   UNL     1       6.720   5.184  18.324  0.00  0.00    +0.000 A 
ATOM     25  C   UNL     1       7.770   5.718  19.071  0.00  0.00    +0.000 A 
ATOM     26  C   UNL     1       8.249   7.001  18.787  0.00  0.00    +0.000 A 
ATOM     27  C   UNL     1       7.671   7.767  17.764  0.00  0.00    +0.000 A 
ATOM     28  C   UNL     1       6.577   7.239  17.060  0.00  0.00    +0.000 A 
ATOM     29  C   UNL     1       6.097   5.957  17.347  0.00  0.00    +0.000 A 
BRANCH  24  30
ATOM     30  N   UNL     1       6.260   3.848  18.574  0.00  0.00    +0.000 N 
ATOM     31  H   UNL     1       6.894   3.357  19.207  0.00  0.00    +0.000 HD
BRANCH  30  32
ATOM     32  S   UNL     1       4.690   3.732  19.221  0.00  0.00    +0.000 S 
ATOM     33  O   UNL     1       4.264   5.028  19.700  0.00  0.00    +0.000 OA
ATOM     34  O   UNL     1       4.691   2.559  20.066  0.00  0.00    +0.000 OA
BRANCH  32  36
ATOM     35  C   UNL     1       2.920   2.109  17.909  0.00  0.00    +0.000 C 
ATOM     36  C   UNL     1       3.766   3.355  17.734  0.00  0.00    +0.000 C 
ENDBRANCH  32  36
ENDBRANCH  30  32
ENDBRANCH  24  30
ENDBRANCH  23  27
ENDBRANCH  22  23
ENDBRANCH   1  22
TORSDOF 8
ENDMDL
MODEL 4
REMARK VINA RESULT:      -8.2      4.622      9.710
REMARK  Name = 
REMARK  9 active torsions:
REMARK  status: ('A' for Active; 'I' for Inactive)
REMARK    1  A    between atoms: C_1  and  C_2
REMARK    2  A    between atoms: C_2  and  S_3
REMARK    3  A    between atoms: S_3  and  N_6
REMARK    4  A    between atoms: N_6  and  C_7
REMARK    5  A    between atoms: C_10  and  C_11
REMARK    6  A    between atoms: C_11  and  C_12
REMARK    7  A    between atoms: C_12  and  N_13
REMARK    8  A    between atoms: C_14  and  C_16
REMARK    9  A    between atoms: C_22  and  C_23
REMARK                            x       y       z     vdW  Elec       q    Type
REMARK                         _______ _______ _______ _____ _____    ______ ____
ROOT
ATOM      1  N   UNL     1       8.695   9.639  17.782  0.00  0.00    +0.000 N 
ATOM      2  C   UNL     1       9.324  10.440  18.711  0.00  0.00    +0.000 C 
ATOM      3  O   UNL     1       9.434  10.135  19.896  0.00  0.00    +0.000 OA
ATOM      4  H   UNL     1       8.649   9.953  16.814  0.00  0.00    +0.000 HD
ENDROOT
BRANCH   2   5
ATOM      5  C   UNL     1       9.885  11.723  18.236  0.00  0.00    +0.000 A 
ATOM      6  C   UNL     1      11.251  11.811  17.923  0.00  0.00    +0.000 A 
ATOM      7  C   UNL     1      11.775  13.023  17.490  0.00  0.00    +0.000 A 
ATOM      8  N   UNL     1      11.072  14.167  17.327  0.00  0.00    +0.000 NA
ATOM      9  C   UNL     1       9.776  14.021  17.646  0.00  0.00    +0.000 A 
ATOM     10  N   UNL     1       8.829  14.994  17.604  0.00  0.00    +0.000 N 
ATOM     11  C   UNL     1       7.639  14.464  18.055  0.00  0.00    +0.000 A 
ATOM     12  N   UNL     1       7.788  13.180  18.346  0.00  0.00    +0.000 NA
ATOM     13  C   UNL     1       9.119  12.888  18.099  0.00  0.00    +0.000 A 
ATOM     14  H   UNL     1       9.004  15.953  17.355  0.00  0.00    +0.000 HD
BRANCH  11  15
ATOM     15  C   UNL     1       6.439  15.279  18.251  0.00  0.00    +0.000 A 
ATOM     16  C   UNL     1       6.487  16.498  18.949  0.00  0.00    +0.000 A 
ATOM     17  C   UNL     1       5.314  17.213  19.208  0.00  0.00    +0.000 A 
ATOM     18  C   UNL     1       4.096  16.714  18.764  0.00  0.00    +0.000 A 
ATOM     19  F   UNL     1       2.971  17.387  19.039  0.00  0.00    +0.000 F 
ATOM     20  C   UNL     1       4.029  15.528  18.044  0.00  0.00    +0.000 A 
ATOM     21  C   UNL     1       5.202  14.815  17.781  0.00  0.00    +0.000 A 
ENDBRANCH  11  15
ENDBRANCH   2   5
BRANCH   1  22
ATOM     22  C   UNL     1       8.098   8.377  18.177  0.00  0.00    +0.000 C 
BRANCH  22  23
ATOM     23  C   UNL     1       7.667   7.512  16.990  0.00  0.00    +0.000 C 
BRANCH  23  27
ATOM     24  C   UNL     1       5.054   4.277  18.153  0.00  0.00    +0.000 A 
ATOM     25  C   UNL     1       5.897   4.864  19.097  0.00  0.00    +0.000 A 
ATOM     26  C   UNL     1       6.724   5.930  18.730  0.00  0.00    +0.000 A 
ATOM     27  C   UNL     1       6.702   6.429  17.419  0.00  0.00    +0.000 A 
ATOM     28  C   UNL     1       5.808   5.867  16.496  0.00  0.00    +0.000 A 
ATOM     29  C   UNL     1       4.979   4.802  16.865  0.00  0.00    +0.000 A 
BRANCH  24  30
ATOM     30  N   UNL     1       4.243   3.148  18.508  0.00  0.00    +0.000 N 
ATOM     31  H   UNL     1       4.513   2.779  19.422  0.00  0.00    +0.000 HD
BRANCH  30  32
ATOM     32  S   UNL     1       2.568   3.442  18.543  0.00  0.00    +0.000 S 
ATOM     33  O   UNL     1       1.971   3.012  17.299  0.00  0.00    +0.000 OA
ATOM     34  O   UNL     1       2.408   4.786  19.051  0.00  0.00    +0.000 OA
BRANCH  32  36
ATOM     35  C   UNL     1       2.446   2.808  21.203  0.00  0.00    +0.000 C 
ATOM     36  C   UNL     1       2.075   2.293  19.826  0.00  0.00    +0.000 C 
ENDBRANCH  32  36
ENDBRANCH  30  32
ENDBRANCH  24  30
ENDBRANCH  23  27
ENDBRANCH  22  23
ENDBRANCH   1  22
TORSDOF 8
ENDMDL
MODEL 5
REMARK VINA RESULT:      -8.2      6.743      9.143
REMARK  Name = 
REMARK  9 active torsions:
REMARK  status: ('A' for Active; 'I' for Inactive)
REMARK    1  A    between atoms: C_1  and  C_2
REMARK    2  A    between atoms: C_2  and  S_3
REMARK    3  A    between atoms: S_3  and  N_6
REMARK    4  A    between atoms: N_6  and  C_7
REMARK    5  A    between atoms: C_10  and  C_11
REMARK    6  A    between atoms: C_11  and  C_12
REMARK    7  A    between atoms: C_12  and  N_13
REMARK    8  A    between atoms: C_14  and  C_16
REMARK    9  A    between atoms: C_22  and  C_23
REMARK                            x       y       z     vdW  Elec       q    Type
REMARK                         _______ _______ _______ _____ _____    ______ ____
ROOT
ATOM      1  N   UNL     1       2.240   7.926  18.330  0.00  0.00    +0.000 N 
ATOM      2  C   UNL     1       2.184   7.316  19.565  0.00  0.00    +0.000 C 
ATOM      3  O   UNL     1       1.864   7.910  20.592  0.00  0.00    +0.000 OA
ATOM      4  H   UNL     1       2.505   7.367  17.520  0.00  0.00    +0.000 HD
ENDROOT
BRANCH   2   5
ATOM      5  C   UNL     1       2.528   5.880  19.634  0.00  0.00    +0.000 A 
ATOM      6  C   UNL     1       2.086   5.110  20.722  0.00  0.00    +0.000 A 
ATOM      7  C   UNL     1       2.425   3.765  20.788  0.00  0.00    +0.000 A 
ATOM      8  N   UNL     1       3.158   3.095  19.869  0.00  0.00    +0.000 NA
ATOM      9  C   UNL     1       3.555   3.885  18.858  0.00  0.00    +0.000 A 
ATOM     10  N   UNL     1       4.318   3.504  17.800  0.00  0.00    +0.000 N 
ATOM     11  C   UNL     1       4.551   4.610  17.010  0.00  0.00    +0.000 A 
ATOM     12  N   UNL     1       3.932   5.670  17.508  0.00  0.00    +0.000 NA
ATOM     13  C   UNL     1       3.307   5.234  18.664  0.00  0.00    +0.000 A 
ATOM     14  H   UNL     1       4.702   2.583  17.673  0.00  0.00    +0.000 HD
BRANCH  11  15
ATOM     15  C   UNL     1       5.443   4.574  15.850  0.00  0.00    +0.000 A 
ATOM     16  C   UNL     1       6.654   5.285  15.834  0.00  0.00    +0.000 A 
ATOM     17  C   UNL     1       7.444   5.315  14.681  0.00  0.00    +0.000 A 
ATOM     18  C   UNL     1       7.027   4.629  13.548  0.00  0.00    +0.000 A 
ATOM     19  F   UNL     1       7.771   4.683  12.436  0.00  0.00    +0.000 F 
ATOM     20  C   UNL     1       5.850   3.892  13.551  0.00  0.00    +0.000 A 
ATOM     21  C   UNL     1       5.061   3.858  14.705  0.00  0.00    +0.000 A 
ENDBRANCH  11  15
ENDBRANCH   2   5
BRANCH   1  22
ATOM     22  C   UNL     1       1.940   9.338  18.186  0.00  0.00    +0.000 C 
BRANCH  22  23
ATOM     23  C   UNL     1       0.447   9.627  18.019  0.00  0.00    +0.000 C 
BRANCH  23  27
ATOM     24  C   UNL     1      -0.785  12.880  20.578  0.00  0.00    +0.000 A 
ATOM     25  C   UNL     1       0.572  12.665  20.331  0.00  0.00    +0.000 A 
ATOM     26  C   UNL     1       0.971  11.629  19.481  0.00  0.00    +0.000 A 
ATOM     27  C   UNL     1       0.018  10.811  18.857  0.00  0.00    +0.000 A 
ATOM     28  C   UNL     1      -1.343  11.077  19.069  0.00  0.00    +0.000 A 
ATOM     29  C   UNL     1      -1.743  12.114  19.918  0.00  0.00    +0.000 A 
BRANCH  24  30
ATOM     30  N   UNL     1      -1.200  13.905  21.492  0.00  0.00    +0.000 N 
ATOM     31  H   UNL     1      -2.075  14.334  21.184  0.00  0.00    +0.000 HD
BRANCH  30  32
ATOM     32  S   UNL     1      -1.410  13.398  23.102  0.00  0.00    +0.000 S 
ATOM     33  O   UNL     1      -0.858  14.387  24.001  0.00  0.00    +0.000 OA
ATOM     34  O   UNL     1      -1.007  12.011  23.141  0.00  0.00    +0.000 OA
BRANCH  32  36
ATOM     35  C   UNL     1      -3.730  12.415  24.172  0.00  0.00    +0.000 C 
ATOM     36  C   UNL     1      -3.196  13.470  23.223  0.00  0.00    +0.000 C 
ENDBRANCH  32  36
ENDBRANCH  30  32
ENDBRANCH  24  30
ENDBRANCH  23  27
ENDBRANCH  22  23
ENDBRANCH   1  22
TORSDOF 8
ENDMDL
MODEL 6
REMARK VINA RESULT:      -8.1      7.004      9.353
REMARK  Name = 
REMARK  9 active torsions:
REMARK  status: ('A' for Active; 'I' for Inactive)
REMARK    1  A    between atoms: C_1  and  C_2
REMARK    2  A    between atoms: C_2  and  S_3
REMARK    3  A    between atoms: S_3  and  N_6
REMARK    4  A    between atoms: N_6  and  C_7
REMARK    5  A    between atoms: C_10  and  C_11
REMARK    6  A    between atoms: C_11  and  C_12
REMARK    7  A    between atoms: C_12  and  N_13
REMARK    8  A    between atoms: C_14  and  C_16
REMARK    9  A    between atoms: C_22  and  C_23
REMARK                            x       y       z     vdW  Elec       q    Type
REMARK                         _______ _______ _______ _____ _____    ______ ____
ROOT
ATOM      1  N   UNL     1       2.493   7.331  18.798  0.00  0.00    +0.000 N 
ATOM      2  C   UNL     1       2.179   6.509  19.859  0.00  0.00    +0.000 C 
ATOM      3  O   UNL     1       1.588   6.903  20.861  0.00  0.00    +0.000 OA
ATOM      4  H   UNL     1       2.977   6.931  17.995  0.00  0.00    +0.000 HD
ENDROOT
BRANCH   2   5
ATOM      5  C   UNL     1       2.582   5.090  19.765  0.00  0.00    +0.000 A 
ATOM      6  C   UNL     1       2.172   4.183  20.756  0.00  0.00    +0.000 A 
ATOM      7  C   UNL     1       2.566   2.854  20.669  0.00  0.00    +0.000 A 
ATOM      8  N   UNL     1       3.327   2.324  19.683  0.00  0.00    +0.000 NA
ATOM      9  C   UNL     1       3.691   3.240  18.771  0.00  0.00    +0.000 A 
ATOM     10  N   UNL     1       4.470   3.015  17.680  0.00  0.00    +0.000 N 
ATOM     11  C   UNL     1       4.657   4.212  17.024  0.00  0.00    +0.000 A 
ATOM     12  N   UNL     1       3.995   5.182  17.636  0.00  0.00    +0.000 NA
ATOM     13  C   UNL     1       3.388   4.591  18.732  0.00  0.00    +0.000 A 
ATOM     14  H   UNL     1       4.892   2.130  17.451  0.00  0.00    +0.000 HD
BRANCH  11  15
ATOM     15  C   UNL     1       5.550   4.346  15.871  0.00  0.00    +0.000 A 
ATOM     16  C   UNL     1       6.783   5.012  15.973  0.00  0.00    +0.000 A 
ATOM     17  C   UNL     1       7.576   5.212  14.840  0.00  0.00    +0.000 A 
ATOM     18  C   UNL     1       7.141   4.740  13.607  0.00  0.00    +0.000 A 
ATOM     19  F   UNL     1       7.890   4.959  12.519  0.00  0.00    +0.000 F 
ATOM     20  C   UNL     1       5.942   4.051  13.490  0.00  0.00    +0.000 A 
ATOM     21  C   UNL     1       5.150   3.846  14.623  0.00  0.00    +0.000 A 
ENDBRANCH  11  15
ENDBRANCH   2   5
BRANCH   1  22
ATOM     22  C   UNL     1       2.152   8.741  18.827  0.00  0.00    +0.000 C 
BRANCH  22  23
ATOM     23  C   UNL     1       1.087   9.130  17.799  0.00  0.00    +0.000 C 
BRANCH  23  27
ATOM     24  C   UNL     1      -1.551  12.248  19.197  0.00  0.00    +0.000 A 
ATOM     25  C   UNL     1      -2.067  11.176  18.469  0.00  0.00    +0.000 A 
ATOM     26  C   UNL     1      -1.219  10.151  18.038  0.00  0.00    +0.000 A 
ATOM     27  C   UNL     1       0.149  10.181  18.348  0.00  0.00    +0.000 A 
ATOM     28  C   UNL     1       0.642  11.235  19.131  0.00  0.00    +0.000 A 
ATOM     29  C   UNL     1      -0.207  12.259  19.563  0.00  0.00    +0.000 A 
BRANCH  24  30
ATOM     30  N   UNL     1      -2.406  13.331  19.595  0.00  0.00    +0.000 N 
ATOM     31  H   UNL     1      -3.075  13.556  18.857  0.00  0.00    +0.000 HD
BRANCH  30  32
ATOM     32  S   UNL     1      -3.284  13.070  21.029  0.00  0.00    +0.000 S 
ATOM     33  O   UNL     1      -2.501  12.266  21.941  0.00  0.00    +0.000 OA
ATOM     34  O   UNL     1      -4.618  12.694  20.618  0.00  0.00    +0.000 OA
BRANCH  32  36
ATOM     35  C   UNL     1      -2.276  14.970  22.722  0.00  0.00    +0.000 C 
ATOM     36  C   UNL     1      -3.342  14.743  21.668  0.00  0.00    +0.000 C 
ENDBRANCH  32  36
ENDBRANCH  30  32
ENDBRANCH  24  30
ENDBRANCH  23  27
ENDBRANCH  22  23
ENDBRANCH   1  22
TORSDOF 8
ENDMDL
MODEL 7
REMARK VINA RESULT:      -8.1      6.821      9.823
REMARK  Name = 
REMARK  9 active torsions:
REMARK  status: ('A' for Active; 'I' for Inactive)
REMARK    1  A    between atoms: C_1  and  C_2
REMARK    2  A    between atoms: C_2  and  S_3
REMARK    3  A    between atoms: S_3  and  N_6
REMARK    4  A    between atoms: N_6  and  C_7
REMARK    5  A    between atoms: C_10  and  C_11
REMARK    6  A    between atoms: C_11  and  C_12
REMARK    7  A    between atoms: C_12  and  N_13
REMARK    8  A    between atoms: C_14  and  C_16
REMARK    9  A    between atoms: C_22  and  C_23
REMARK                            x       y       z     vdW  Elec       q    Type
REMARK                         _______ _______ _______ _____ _____    ______ ____
ROOT
ATOM      1  N   UNL     1       1.653   7.612  21.390  0.00  0.00    +0.000 N 
ATOM      2  C   UNL     1       2.074   7.210  20.140  0.00  0.00    +0.000 C 
ATOM      3  O   UNL     1       2.402   7.998  19.257  0.00  0.00    +0.000 OA
ATOM      4  H   UNL     1       1.405   6.900  22.076  0.00  0.00    +0.000 HD
ENDROOT
BRANCH   2   5
ATOM      5  C   UNL     1       2.127   5.757  19.873  0.00  0.00    +0.000 A 
ATOM      6  C   UNL     1       1.443   4.869  20.720  0.00  0.00    +0.000 A 
ATOM      7  C   UNL     1       1.508   3.504  20.473  0.00  0.00    +0.000 A 
ATOM      8  N   UNL     1       2.182   2.923  19.454  0.00  0.00    +0.000 NA
ATOM      9  C   UNL     1       2.818   3.821  18.684  0.00  0.00    +0.000 A 
ATOM     10  N   UNL     1       3.591   3.541  17.601  0.00  0.00    +0.000 N 
ATOM     11  C   UNL     1       4.106   4.723  17.116  0.00  0.00    +0.000 A 
ATOM     12  N   UNL     1       3.659   5.747  17.827  0.00  0.00    +0.000 NA
ATOM     13  C   UNL     1       2.855   5.200  18.813  0.00  0.00    +0.000 A 
ATOM     14  H   UNL     1       3.800   2.613  17.272  0.00  0.00    +0.000 HD
BRANCH  11  15
ATOM     15  C   UNL     1       5.081   4.767  16.024  0.00  0.00    +0.000 A 
ATOM     16  C   UNL     1       4.916   3.993  14.863  0.00  0.00    +0.000 A 
ATOM     17  C   UNL     1       5.904   3.976  13.876  0.00  0.00    +0.000 A 
ATOM     18  C   UNL     1       7.054   4.739  14.044  0.00  0.00    +0.000 A 
ATOM     19  F   UNL     1       8.011   4.698  13.110  0.00  0.00    +0.000 F 
ATOM     20  C   UNL     1       7.223   5.536  15.168  0.00  0.00    +0.000 A 
ATOM     21  C   UNL     1       6.233   5.557  16.155  0.00  0.00    +0.000 A 
ENDBRANCH  11  15
ENDBRANCH   2   5
BRANCH   1  22
ATOM     22  C   UNL     1       1.551   9.021  21.719  0.00  0.00    +0.000 C 
BRANCH  22  23
ATOM     23  C   UNL     1       0.120   9.472  22.023  0.00  0.00    +0.000 C 
BRANCH  23  27
ATOM     24  C   UNL     1      -1.769  11.465  18.691  0.00  0.00    +0.000 A 
ATOM     25  C   UNL     1      -1.935  11.963  19.984  0.00  0.00    +0.000 A 
ATOM     26  C   UNL     1      -1.302  11.335  21.061  0.00  0.00    +0.000 A 
ATOM     27  C   UNL     1      -0.483  10.215  20.852  0.00  0.00    +0.000 A 
ATOM     28  C   UNL     1      -0.279   9.763  19.540  0.00  0.00    +0.000 A 
ATOM     29  C   UNL     1      -0.910  10.392  18.463  0.00  0.00    +0.000 A 
BRANCH  24  30
ATOM     30  N   UNL     1      -2.458  12.071  17.588  0.00  0.00    +0.000 N 
ATOM     31  H   UNL     1      -1.805  12.323  16.844  0.00  0.00    +0.000 HD
BRANCH  30  32
ATOM     32  S   UNL     1      -3.690  11.123  16.896  0.00  0.00    +0.000 S 
ATOM     33  O   UNL     1      -4.733  11.981  16.378  0.00  0.00    +0.000 OA
ATOM     34  O   UNL     1      -3.961  10.065  17.842  0.00  0.00    +0.000 OA
BRANCH  32  36
ATOM     35  C   UNL     1      -3.723  10.178  14.327  0.00  0.00    +0.000 C 
ATOM     36  C   UNL     1      -2.802  10.423  15.507  0.00  0.00    +0.000 C 
ENDBRANCH  32  36
ENDBRANCH  30  32
ENDBRANCH  24  30
ENDBRANCH  23  27
ENDBRANCH  22  23
ENDBRANCH   1  22
TORSDOF 8
ENDMDL
MODEL 8
REMARK VINA RESULT:      -8.0      3.277      3.954
REMARK  Name = 
REMARK  9 active torsions:
REMARK  status: ('A' for Active; 'I' for Inactive)
REMARK    1  A    between atoms: C_1  and  C_2
REMARK    2  A    between atoms: C_2  and  S_3
REMARK    3  A    between atoms: S_3  and  N_6
REMARK    4  A    between atoms: N_6  and  C_7
REMARK    5  A    between atoms: C_10  and  C_11
REMARK    6  A    between atoms: C_11  and  C_12
REMARK    7  A    between atoms: C_12  and  N_13
REMARK    8  A    between atoms: C_14  and  C_16
REMARK    9  A    between atoms: C_22  and  C_23
REMARK                            x       y       z     vdW  Elec       q    Type
REMARK                         _______ _______ _______ _____ _____    ______ ____
ROOT
ATOM      1  N   UNL     1       7.797   7.898  17.098  0.00  0.00    +0.000 N 
ATOM      2  C   UNL     1       6.514   7.395  17.095  0.00  0.00    +0.000 C 
ATOM      3  O   UNL     1       5.542   8.032  17.493  0.00  0.00    +0.000 OA
ATOM      4  H   UNL     1       8.554   7.314  16.743  0.00  0.00    +0.000 HD
ENDROOT
BRANCH   2   5
ATOM      5  C   UNL     1       6.322   6.021  16.584  0.00  0.00    +0.000 A 
ATOM      6  C   UNL     1       6.929   5.637  15.377  0.00  0.00    +0.000 A 
ATOM      7  C   UNL     1       6.733   4.349  14.895  0.00  0.00    +0.000 A 
ATOM      8  N   UNL     1       5.995   3.390  15.498  0.00  0.00    +0.000 NA
ATOM      9  C   UNL     1       5.437   3.818  16.642  0.00  0.00    +0.000 A 
ATOM     10  N   UNL     1       4.628   3.091  17.458  0.00  0.00    +0.000 N 
ATOM     11  C   UNL     1       4.220   3.898  18.498  0.00  0.00    +0.000 A 
ATOM     12  N   UNL     1       4.770   5.098  18.394  0.00  0.00    +0.000 NA
ATOM     13  C   UNL     1       5.532   5.066  17.238  0.00  0.00    +0.000 A 
ATOM     14  H   UNL     1       4.329   2.148  17.274  0.00  0.00    +0.000 HD
BRANCH  11  15
ATOM     15  C   UNL     1       3.241   3.461  19.495  0.00  0.00    +0.000 A 
ATOM     16  C   UNL     1       1.918   3.931  19.478  0.00  0.00    +0.000 A 
ATOM     17  C   UNL     1       1.026   3.577  20.494  0.00  0.00    +0.000 A 
ATOM     18  C   UNL     1       1.454   2.746  21.522  0.00  0.00    +0.000 A 
ATOM     19  F   UNL     1       0.606   2.431  22.509  0.00  0.00    +0.000 F 
ATOM     20  C   UNL     1       2.748   2.243  21.541  0.00  0.00    +0.000 A 
ATOM     21  C   UNL     1       3.640   2.594  20.524  0.00  0.00    +0.000 A 
ENDBRANCH  11  15
ENDBRANCH   2   5
BRANCH   1  22
ATOM     22  C   UNL     1       8.070   9.229  17.607  0.00  0.00    +0.000 C 
BRANCH  22  23
ATOM     23  C   UNL     1       8.842   9.227  18.929  0.00  0.00    +0.000 C 
BRANCH  23  27
ATOM     24  C   UNL     1      10.916  12.984  19.409  0.00  0.00    +0.000 A 
ATOM     25  C   UNL     1      10.450  12.299  20.531  0.00  0.00    +0.000 A 
ATOM     26  C   UNL     1       9.802  11.068  20.380  0.00  0.00    +0.000 A 
ATOM     27  C   UNL     1       9.631  10.505  19.107  0.00  0.00    +0.000 A 
ATOM     28  C   UNL     1      10.157  11.178  17.994  0.00  0.00    +0.000 A 
ATOM     29  C   UNL     1      10.806  12.407  18.146  0.00  0.00    +0.000 A 
BRANCH  24  30
ATOM     30  N   UNL     1      11.532  14.272  19.551  0.00  0.00    +0.000 N 
ATOM     31  H   UNL     1      12.131  14.479  18.750  0.00  0.00    +0.000 HD
BRANCH  30  32
ATOM     32  S   UNL     1      10.454  15.574  19.742  0.00  0.00    +0.000 S 
ATOM     33  O   UNL     1      10.971  16.739  19.061  0.00  0.00    +0.000 OA
ATOM     34  O   UNL     1      10.095  15.594  21.142  0.00  0.00    +0.000 OA
BRANCH  32  36
ATOM     35  C   UNL     1       8.523  16.006  17.851  0.00  0.00    +0.000 C 
ATOM     36  C   UNL     1       9.053  14.958  18.811  0.00  0.00    +0.000 C 
ENDBRANCH  32  36
ENDBRANCH  30  32
ENDBRANCH  24  30
ENDBRANCH  23  27
ENDBRANCH  22  23
ENDBRANCH   1  22
TORSDOF 8
ENDMDL
MODEL 9
REMARK VINA RESULT:      -8.0      4.286      9.529
REMARK  Name = 
REMARK  9 active torsions:
REMARK  status: ('A' for Active; 'I' for Inactive)
REMARK    1  A    between atoms: C_1  and  C_2
REMARK    2  A    between atoms: C_2  and  S_3
REMARK    3  A    between atoms: S_3  and  N_6
REMARK    4  A    between atoms: N_6  and  C_7
REMARK    5  A    between atoms: C_10  and  C_11
REMARK    6  A    between atoms: C_11  and  C_12
REMARK    7  A    between atoms: C_12  and  N_13
REMARK    8  A    between atoms: C_14  and  C_16
REMARK    9  A    between atoms: C_22  and  C_23
REMARK                            x       y       z     vdW  Elec       q    Type
REMARK                         _______ _______ _______ _____ _____    ______ ____
ROOT
ATOM      1  N   UNL     1       9.327  11.152  19.180  0.00  0.00    +0.000 N 
ATOM      2  C   UNL     1      10.367  11.807  18.556  0.00  0.00    +0.000 C 
ATOM      3  O   UNL     1      11.173  11.241  17.822  0.00  0.00    +0.000 OA
ATOM      4  H   UNL     1       8.691  11.690  19.768  0.00  0.00    +0.000 HD
ENDROOT
BRANCH   2   5
ATOM      5  C   UNL     1      10.499  13.260  18.795  0.00  0.00    +0.000 A 
ATOM      6  C   UNL     1      11.754  13.800  19.121  0.00  0.00    +0.000 A 
ATOM      7  C   UNL     1      11.869  15.164  19.358  0.00  0.00    +0.000 A 
ATOM      8  N   UNL     1      10.856  16.059  19.295  0.00  0.00    +0.000 NA
ATOM      9  C   UNL     1       9.683  15.482  18.985  0.00  0.00    +0.000 A 
ATOM     10  N   UNL     1       8.487  16.117  18.869  0.00  0.00    +0.000 N 
ATOM     11  C   UNL     1       7.520  15.176  18.592  0.00  0.00    +0.000 A 
ATOM     12  N   UNL     1       8.063  13.972  18.489  0.00  0.00    +0.000 NA
ATOM     13  C   UNL     1       9.415  14.146  18.735  0.00  0.00    +0.000 A 
ATOM     14  H   UNL     1       8.342  17.099  19.037  0.00  0.00    +0.000 HD
BRANCH  11  15
ATOM     15  C   UNL     1       6.095  15.509  18.524  0.00  0.00    +0.000 A 
ATOM     16  C   UNL     1       5.573  16.634  19.184  0.00  0.00    +0.000 A 
ATOM     17  C   UNL     1       4.198  16.880  19.186  0.00  0.00    +0.000 A 
ATOM     18  C   UNL     1       3.345  16.005  18.524  0.00  0.00    +0.000 A 
ATOM     19  F   UNL     1       2.025  16.227  18.552  0.00  0.00    +0.000 F 
ATOM     20  C   UNL     1       3.842  14.905  17.838  0.00  0.00    +0.000 A 
ATOM     21  C   UNL     1       5.218  14.660  17.832  0.00  0.00    +0.000 A 
ENDBRANCH  11  15
ENDBRANCH   2   5
BRANCH   1  22
ATOM     22  C   UNL     1       9.147   9.722  19.015  0.00  0.00    +0.000 C 
BRANCH  22  23
ATOM     23  C   UNL     1       8.292   9.355  17.799  0.00  0.00    +0.000 C 
BRANCH  23  27
ATOM     24  C   UNL     1       6.647   5.389  18.253  0.00  0.00    +0.000 A 
ATOM     25  C   UNL     1       6.136   6.246  17.277  0.00  0.00    +0.000 A 
ATOM     26  C   UNL     1       6.686   7.521  17.110  0.00  0.00    +0.000 A 
ATOM     27  C   UNL     1       7.762   7.943  17.905  0.00  0.00    +0.000 A 
ATOM     28  C   UNL     1       8.302   7.048  18.841  0.00  0.00    +0.000 A 
ATOM     29  C   UNL     1       7.754   5.773  19.006  0.00  0.00    +0.000 A 
BRANCH  24  30
ATOM     30  N   UNL     1       6.053   4.100  18.467  0.00  0.00    +0.000 N 
ATOM     31  H   UNL     1       6.452   3.648  19.292  0.00  0.00    +0.000 HD
BRANCH  30  32
ATOM     32  S   UNL     1       4.361   4.104  18.646  0.00  0.00    +0.000 S 
ATOM     33  O   UNL     1       3.733   4.046  17.345  0.00  0.00    +0.000 OA
ATOM     34  O   UNL     1       4.062   5.147  19.601  0.00  0.00    +0.000 OA
BRANCH  32  36
ATOM     35  C   UNL     1       2.660   2.150  19.528  0.00  0.00    +0.000 C 
ATOM     36  C   UNL     1       4.128   2.520  19.449  0.00  0.00    +0.000 C 
ENDBRANCH  32  36
ENDBRANCH  30  32
ENDBRANCH  24  30
ENDBRANCH  23  27
ENDBRANCH  22  23
ENDBRANCH   1  22
TORSDOF 8
ENDMDL
