MODEL 1
REMARK VINA RESULT:      -6.9      0.000      0.000
REMARK  Name = 
REMARK  6 active torsions:
REMARK  status: ('A' for Active; 'I' for Inactive)
REMARK    1  A    between atoms: C_1  and  O_2
REMARK    2  A    between atoms: O_2  and  C_3
REMARK    3  A    between atoms: C_6  and  C_7
REMARK    4  A    between atoms: C_10  and  N_11
REMARK    5  A    between atoms: C_17  and  O_18
REMARK    6  A    between atoms: O_18  and  C_19
REMARK                            x       y       z     vdW  Elec       q    Type
REMARK                         _______ _______ _______ _____ _____    ______ ____
ROOT
ATOM      1  C   UNL     1       7.266   5.083  14.938  0.00  0.00    +0.000 A 
ATOM      2  C   UNL     1       6.169   4.518  14.290  0.00  0.00    +0.000 A 
ATOM      3  C   UNL     1       5.137   3.929  15.025  0.00  0.00    +0.000 A 
ATOM      4  C   UNL     1       5.194   3.906  16.425  0.00  0.00    +0.000 A 
ATOM      5  C   UNL     1       6.296   4.478  17.089  0.00  0.00    +0.000 A 
ATOM      6  C   UNL     1       7.324   5.063  16.334  0.00  0.00    +0.000 A 
ENDROOT
BRANCH   4   7
ATOM      7  C   UNL     1       4.089   3.258  17.176  0.00  0.00    +0.000 C 
ATOM      8  N   UNL     1       3.866   1.984  17.183  0.00  0.00    +0.000 NA
ATOM      9  O   UNL     1       2.721   1.741  17.974  0.00  0.00    +0.000 OA
ATOM     10  C   UNL     1       2.194   2.990  18.440  0.00  0.00    +0.000 C 
ATOM     11  C   UNL     1       3.137   4.075  17.977  0.00  0.00    +0.000 C 
BRANCH  10  12
ATOM     12  N   UNL     1       2.064   2.942  19.886  0.00  0.00    +0.000 N 
ATOM     13  C   UNL     1       0.916   3.041  20.624  0.00  0.00    +0.000 A 
ATOM     14  C   UNL     1       1.313   2.859  21.928  0.00  0.00    +0.000 A 
ATOM     15  N   UNL     1       2.667   2.648  21.998  0.00  0.00    +0.000 NA
ATOM     16  C   UNL     1       3.093   2.714  20.757  0.00  0.00    +0.000 A 
ENDBRANCH  10  12
ENDBRANCH   4   7
BRANCH   1  18
ATOM     17  C   UNL     1       7.972   5.500  12.706  0.00  0.00    +0.000 C 
ATOM     18  O   UNL     1       8.208   5.619  14.104  0.00  0.00    +0.000 OA
ENDBRANCH   1  18
BRANCH   5  19
ATOM     19  O   UNL     1       6.323   4.384  18.456  0.00  0.00    +0.000 OA
ATOM     20  C   UNL     1       6.879   5.461  19.197  0.00  0.00    +0.000 C 
ENDBRANCH   5  19
TORSDOF 4
ENDMDL
MODEL 2
REMARK VINA RESULT:      -6.9      3.915      6.865
REMARK  Name = 
REMARK  6 active torsions:
REMARK  status: ('A' for Active; 'I' for Inactive)
REMARK    1  A    between atoms: C_1  and  O_2
REMARK    2  A    between atoms: O_2  and  C_3
REMARK    3  A    between atoms: C_6  and  C_7
REMARK    4  A    between atoms: C_10  and  N_11
REMARK    5  A    between atoms: C_17  and  O_18
REMARK    6  A    between atoms: O_18  and  C_19
REMARK                            x       y       z     vdW  Elec       q    Type
REMARK                         _______ _______ _______ _____ _____    ______ ____
ROOT
ATOM      1  C   UNL     1       1.260   8.511  20.206  0.00  0.00    +0.000 A 
ATOM      2  C   UNL     1       1.738   8.752  18.918  0.00  0.00    +0.000 A 
ATOM      3  C   UNL     1       2.439   7.762  18.226  0.00  0.00    +0.000 A 
ATOM      4  C   UNL     1       2.667   6.514  18.819  0.00  0.00    +0.000 A 
ATOM      5  C   UNL     1       2.185   6.259  20.118  0.00  0.00    +0.000 A 
ATOM      6  C   UNL     1       1.484   7.266  20.799  0.00  0.00    +0.000 A 
ENDROOT
BRANCH   4   7
ATOM      7  C   UNL     1       3.430   5.489  18.063  0.00  0.00    +0.000 C 
ATOM      8  N   UNL     1       2.884   4.530  17.387  0.00  0.00    +0.000 NA
ATOM      9  O   UNL     1       3.915   3.739  16.833  0.00  0.00    +0.000 OA
ATOM     10  C   UNL     1       5.185   4.252  17.256  0.00  0.00    +0.000 C 
ATOM     11  C   UNL     1       4.918   5.506  18.055  0.00  0.00    +0.000 C 
BRANCH  10  12
ATOM     12  N   UNL     1       6.011   4.500  16.087  0.00  0.00    +0.000 N 
ATOM     13  C   UNL     1       5.828   4.017  14.819  0.00  0.00    +0.000 A 
ATOM     14  C   UNL     1       6.822   4.601  14.069  0.00  0.00    +0.000 A 
ATOM     15  N   UNL     1       7.596   5.426  14.845  0.00  0.00    +0.000 NA
ATOM     16  C   UNL     1       7.091   5.337  16.055  0.00  0.00    +0.000 A 
ENDBRANCH  10  12
ENDBRANCH   4   7
BRANCH   1  18
ATOM     17  C   UNL     1      -0.344  10.248  19.957  0.00  0.00    +0.000 C 
ATOM     18  O   UNL     1       0.597   9.563  20.775  0.00  0.00    +0.000 OA
ENDBRANCH   1  18
BRANCH   5  19
ATOM     19  O   UNL     1       2.478   5.039  20.668  0.00  0.00    +0.000 OA
ATOM     20  C   UNL     1       1.420   4.111  20.858  0.00  0.00    +0.000 C 
ENDBRANCH   5  19
TORSDOF 4
ENDMDL
MODEL 3
REMARK VINA RESULT:      -6.6      2.889      6.984
REMARK  Name = 
REMARK  6 active torsions:
REMARK  status: ('A' for Active; 'I' for Inactive)
REMARK    1  A    between atoms: C_1  and  O_2
REMARK    2  A    between atoms: O_2  and  C_3
REMARK    3  A    between atoms: C_6  and  C_7
REMARK    4  A    between atoms: C_10  and  N_11
REMARK    5  A    between atoms: C_17  and  O_18
REMARK    6  A    between atoms: O_18  and  C_19
REMARK                            x       y       z     vdW  Elec       q    Type
REMARK                         _______ _______ _______ _____ _____    ______ ____
ROOT
ATOM      1  C   UNL     1       2.817   4.375  20.315  0.00  0.00    +0.000 A 
ATOM      2  C   UNL     1       3.682   3.335  19.981  0.00  0.00    +0.000 A 
ATOM      3  C   UNL     1       4.633   3.500  18.972  0.00  0.00    +0.000 A 
ATOM      4  C   UNL     1       4.729   4.718  18.286  0.00  0.00    +0.000 A 
ATOM      5  C   UNL     1       3.861   5.777  18.618  0.00  0.00    +0.000 A 
ATOM      6  C   UNL     1       2.911   5.592  19.634  0.00  0.00    +0.000 A 
ENDROOT
BRANCH   4   7
ATOM      7  C   UNL     1       5.740   4.856  17.207  0.00  0.00    +0.000 C 
ATOM      8  N   UNL     1       6.985   4.530  17.335  0.00  0.00    +0.000 NA
ATOM      9  O   UNL     1       7.645   4.829  16.122  0.00  0.00    +0.000 OA
ATOM     10  C   UNL     1       6.714   5.425  15.210  0.00  0.00    +0.000 C 
ATOM     11  C   UNL     1       5.359   5.409  15.879  0.00  0.00    +0.000 C 
BRANCH  10  12
ATOM     12  N   UNL     1       6.728   4.683  13.962  0.00  0.00    +0.000 N 
ATOM     13  C   UNL     1       5.910   3.648  13.597  0.00  0.00    +0.000 A 
ATOM     14  C   UNL     1       6.270   3.347  12.305  0.00  0.00    +0.000 A 
ATOM     15  N   UNL     1       7.279   4.172  11.877  0.00  0.00    +0.000 NA
ATOM     16  C   UNL     1       7.541   4.957  12.898  0.00  0.00    +0.000 A 
ENDBRANCH  10  12
ENDBRANCH   4   7
BRANCH   1  18
ATOM     17  C   UNL     1       1.237   2.843  21.217  0.00  0.00    +0.000 C 
ATOM     18  O   UNL     1       1.930   4.082  21.314  0.00  0.00    +0.000 OA
ENDBRANCH   1  18
BRANCH   5  19
ATOM     19  O   UNL     1       3.966   6.928  17.883  0.00  0.00    +0.000 OA
ATOM     20  C   UNL     1       2.909   7.874  17.953  0.00  0.00    +0.000 C 
ENDBRANCH   5  19
TORSDOF 4
ENDMDL
MODEL 4
REMARK VINA RESULT:      -6.5      2.536      7.017
REMARK  Name = 
REMARK  6 active torsions:
REMARK  status: ('A' for Active; 'I' for Inactive)
REMARK    1  A    between atoms: C_1  and  O_2
REMARK    2  A    between atoms: O_2  and  C_3
REMARK    3  A    between atoms: C_6  and  C_7
REMARK    4  A    between atoms: C_10  and  N_11
REMARK    5  A    between atoms: C_17  and  O_18
REMARK    6  A    between atoms: O_18  and  C_19
REMARK                            x       y       z     vdW  Elec       q    Type
REMARK                         _______ _______ _______ _____ _____    ______ ____
ROOT
ATOM      1  C   UNL     1       2.330   2.949  19.611  0.00  0.00    +0.000 A 
ATOM      2  C   UNL     1       3.000   2.054  18.780  0.00  0.00    +0.000 A 
ATOM      3  C   UNL     1       4.000   2.502  17.914  0.00  0.00    +0.000 A 
ATOM      4  C   UNL     1       4.343   3.859  17.877  0.00  0.00    +0.000 A 
ATOM      5  C   UNL     1       3.675   4.772  18.716  0.00  0.00    +0.000 A 
ATOM      6  C   UNL     1       2.671   4.304  19.578  0.00  0.00    +0.000 A 
ENDROOT
BRANCH   4   7
ATOM      7  C   UNL     1       5.399   4.306  16.934  0.00  0.00    +0.000 C 
ATOM      8  N   UNL     1       6.668   4.174  17.151  0.00  0.00    +0.000 NA
ATOM      9  O   UNL     1       7.363   4.739  16.058  0.00  0.00    +0.000 OA
ATOM     10  C   UNL     1       6.420   5.295  15.134  0.00  0.00    +0.000 C 
ATOM     11  C   UNL     1       5.039   4.967  15.651  0.00  0.00    +0.000 C 
BRANCH  10  12
ATOM     12  N   UNL     1       6.667   4.743  13.813  0.00  0.00    +0.000 N 
ATOM     13  C   UNL     1       7.624   5.130  12.913  0.00  0.00    +0.000 A 
ATOM     14  C   UNL     1       7.498   4.255  11.860  0.00  0.00    +0.000 A 
ATOM     15  N   UNL     1       6.496   3.349  12.099  0.00  0.00    +0.000 NA
ATOM     16  C   UNL     1       6.008   3.673  13.275  0.00  0.00    +0.000 A 
ENDBRANCH  10  12
ENDBRANCH   4   7
BRANCH   1  18
ATOM     17  C   UNL     1       1.416   2.693  21.792  0.00  0.00    +0.000 C 
ATOM     18  O   UNL     1       1.369   2.383  20.404  0.00  0.00    +0.000 OA
ENDBRANCH   1  18
BRANCH   5  19
ATOM     19  O   UNL     1       4.016   6.094  18.604  0.00  0.00    +0.000 OA
ATOM     20  C   UNL     1       2.996   7.033  18.295  0.00  0.00    +0.000 C 
ENDBRANCH   5  19
TORSDOF 4
ENDMDL
MODEL 5
REMARK VINA RESULT:      -6.4      1.912      2.176
REMARK  Name = 
REMARK  6 active torsions:
REMARK  status: ('A' for Active; 'I' for Inactive)
REMARK    1  A    between atoms: C_1  and  O_2
REMARK    2  A    between atoms: O_2  and  C_3
REMARK    3  A    between atoms: C_6  and  C_7
REMARK    4  A    between atoms: C_10  and  N_11
REMARK    5  A    between atoms: C_17  and  O_18
REMARK    6  A    between atoms: O_18  and  C_19
REMARK                            x       y       z     vdW  Elec       q    Type
REMARK                         _______ _______ _______ _____ _____    ______ ____
ROOT
ATOM      1  C   UNL     1       6.818   4.622  13.929  0.00  0.00    +0.000 A 
ATOM      2  C   UNL     1       5.494   4.218  14.090  0.00  0.00    +0.000 A 
ATOM      3  C   UNL     1       4.853   4.361  15.323  0.00  0.00    +0.000 A 
ATOM      4  C   UNL     1       5.537   4.918  16.412  0.00  0.00    +0.000 A 
ATOM      5  C   UNL     1       6.874   5.334  16.259  0.00  0.00    +0.000 A 
ATOM      6  C   UNL     1       7.502   5.180  15.012  0.00  0.00    +0.000 A 
ENDROOT
BRANCH   4   7
ATOM      7  C   UNL     1       4.833   5.042  17.713  0.00  0.00    +0.000 C 
ATOM      8  N   UNL     1       4.195   6.101  18.094  0.00  0.00    +0.000 NA
ATOM      9  O   UNL     1       3.685   5.865  19.391  0.00  0.00    +0.000 OA
ATOM     10  C   UNL     1       4.097   4.565  19.832  0.00  0.00    +0.000 C 
ATOM     11  C   UNL     1       4.838   3.917  18.687  0.00  0.00    +0.000 C 
BRANCH  10  12
ATOM     12  N   UNL     1       2.926   3.808  20.239  0.00  0.00    +0.000 N 
ATOM     13  C   UNL     1       2.314   2.789  19.559  0.00  0.00    +0.000 A 
ATOM     14  C   UNL     1       1.309   2.357  20.392  0.00  0.00    +0.000 A 
ATOM     15  N   UNL     1       1.299   3.081  21.557  0.00  0.00    +0.000 NA
ATOM     16  C   UNL     1       2.275   3.953  21.432  0.00  0.00    +0.000 A 
ENDBRANCH  10  12
ENDBRANCH   4   7
BRANCH   1  18
ATOM     17  C   UNL     1       6.785   3.341  11.926  0.00  0.00    +0.000 C 
ATOM     18  O   UNL     1       7.328   4.421  12.676  0.00  0.00    +0.000 OA
ENDBRANCH   1  18
BRANCH   5  19
ATOM     19  O   UNL     1       7.509   5.827  17.368  0.00  0.00    +0.000 OA
ATOM     20  C   UNL     1       7.599   7.235  17.526  0.00  0.00    +0.000 C 
ENDBRANCH   5  19
TORSDOF 4
ENDMDL
MODEL 6
REMARK VINA RESULT:      -6.4      3.503      6.870
REMARK  Name = 
REMARK  6 active torsions:
REMARK  status: ('A' for Active; 'I' for Inactive)
REMARK    1  A    between atoms: C_1  and  O_2
REMARK    2  A    between atoms: O_2  and  C_3
REMARK    3  A    between atoms: C_6  and  C_7
REMARK    4  A    between atoms: C_10  and  N_11
REMARK    5  A    between atoms: C_17  and  O_18
REMARK    6  A    between atoms: O_18  and  C_19
REMARK                            x       y       z     vdW  Elec       q    Type
REMARK                         _______ _______ _______ _____ _____    ______ ____
ROOT
ATOM      1  C   UNL     1       1.258   7.547  20.724  0.00  0.00    +0.000 A 
ATOM      2  C   UNL     1       1.891   8.055  19.592  0.00  0.00    +0.000 A 
ATOM      3  C   UNL     1       2.597   7.208  18.734  0.00  0.00    +0.000 A 
ATOM      4  C   UNL     1       2.671   5.836  19.003  0.00  0.00    +0.000 A 
ATOM      5  C   UNL     1       2.032   5.311  20.143  0.00  0.00    +0.000 A 
ATOM      6  C   UNL     1       1.328   6.177  20.994  0.00  0.00    +0.000 A 
ENDROOT
BRANCH   4   7
ATOM      7  C   UNL     1       3.443   4.965  18.080  0.00  0.00    +0.000 C 
ATOM      8  N   UNL     1       2.905   4.168  17.215  0.00  0.00    +0.000 NA
ATOM      9  O   UNL     1       3.942   3.482  16.543  0.00  0.00    +0.000 OA
ATOM     10  C   UNL     1       5.205   3.879  17.091  0.00  0.00    +0.000 C 
ATOM     11  C   UNL     1       4.931   4.956  18.114  0.00  0.00    +0.000 C 
BRANCH  10  12
ATOM     12  N   UNL     1       6.067   4.336  16.016  0.00  0.00    +0.000 N 
ATOM     13  C   UNL     1       5.990   4.009  14.689  0.00  0.00    +0.000 A 
ATOM     14  C   UNL     1       6.971   4.756  14.080  0.00  0.00    +0.000 A 
ATOM     15  N   UNL     1       7.635   5.528  14.999  0.00  0.00    +0.000 NA
ATOM     16  C   UNL     1       7.077   5.246  16.156  0.00  0.00    +0.000 A 
ENDBRANCH  10  12
ENDBRANCH   4   7
BRANCH   1  18
ATOM     17  C   UNL     1       1.401   9.238  22.389  0.00  0.00    +0.000 C 
ATOM     18  O   UNL     1       0.608   8.481  21.483  0.00  0.00    +0.000 OA
ENDBRANCH   1  18
BRANCH   5  19
ATOM     19  O   UNL     1       2.178   3.970  20.383  0.00  0.00    +0.000 OA
ATOM     20  C   UNL     1       2.152   3.518  21.729  0.00  0.00    +0.000 C 
ENDBRANCH   5  19
TORSDOF 4
ENDMDL
MODEL 7
REMARK VINA RESULT:      -6.3      3.175      6.893
REMARK  Name = 
REMARK  6 active torsions:
REMARK  status: ('A' for Active; 'I' for Inactive)
REMARK    1  A    between atoms: C_1  and  O_2
REMARK    2  A    between atoms: O_2  and  C_3
REMARK    3  A    between atoms: C_6  and  C_7
REMARK    4  A    between atoms: C_10  and  N_11
REMARK    5  A    between atoms: C_17  and  O_18
REMARK    6  A    between atoms: O_18  and  C_19
REMARK                            x       y       z     vdW  Elec       q    Type
REMARK                         _______ _______ _______ _____ _____    ______ ____
ROOT
ATOM      1  C   UNL     1       2.310   6.139  19.828  0.00  0.00    +0.000 A 
ATOM      2  C   UNL     1       2.807   7.133  18.987  0.00  0.00    +0.000 A 
ATOM      3  C   UNL     1       3.843   6.853  18.093  0.00  0.00    +0.000 A 
ATOM      4  C   UNL     1       4.392   5.566  18.032  0.00  0.00    +0.000 A 
ATOM      5  C   UNL     1       3.895   4.553  18.876  0.00  0.00    +0.000 A 
ATOM      6  C   UNL     1       2.854   4.853  19.768  0.00  0.00    +0.000 A 
ENDROOT
BRANCH   4   7
ATOM      7  C   UNL     1       5.505   5.305  17.083  0.00  0.00    +0.000 C 
ATOM      8  N   UNL     1       6.544   4.588  17.364  0.00  0.00    +0.000 NA
ATOM      9  O   UNL     1       7.398   4.590  16.238  0.00  0.00    +0.000 OA
ATOM     10  C   UNL     1       6.831   5.420  15.216  0.00  0.00    +0.000 C 
ATOM     11  C   UNL     1       5.485   5.890  15.715  0.00  0.00    +0.000 C 
BRANCH  10  12
ATOM     12  N   UNL     1       6.734   4.657  13.984  0.00  0.00    +0.000 N 
ATOM     13  C   UNL     1       5.807   3.701  13.666  0.00  0.00    +0.000 A 
ATOM     14  C   UNL     1       6.096   3.342  12.370  0.00  0.00    +0.000 A 
ATOM     15  N   UNL     1       7.166   4.056  11.895  0.00  0.00    +0.000 NA
ATOM     16  C   UNL     1       7.535   4.831  12.890  0.00  0.00    +0.000 A 
ENDBRANCH  10  12
ENDBRANCH   4   7
BRANCH   1  18
ATOM     17  C   UNL     1       1.292   7.916  21.037  0.00  0.00    +0.000 C 
ATOM     18  O   UNL     1       1.302   6.544  20.658  0.00  0.00    +0.000 OA
ENDBRANCH   1  18
BRANCH   5  19
ATOM     19  O   UNL     1       4.501   3.326  18.808  0.00  0.00    +0.000 OA
ATOM     20  C   UNL     1       4.373   2.447  19.915  0.00  0.00    +0.000 C 
ENDBRANCH   5  19
TORSDOF 4
ENDMDL
MODEL 8
REMARK VINA RESULT:      -6.3      3.701      6.890
REMARK  Name = 
REMARK  6 active torsions:
REMARK  status: ('A' for Active; 'I' for Inactive)
REMARK    1  A    between atoms: C_1  and  O_2
REMARK    2  A    between atoms: O_2  and  C_3
REMARK    3  A    between atoms: C_6  and  C_7
REMARK    4  A    between atoms: C_10  and  N_11
REMARK    5  A    between atoms: C_17  and  O_18
REMARK    6  A    between atoms: O_18  and  C_19
REMARK                            x       y       z     vdW  Elec       q    Type
REMARK                         _______ _______ _______ _____ _____    ______ ____
ROOT
ATOM      1  C   UNL     1       1.489   8.480  20.089  0.00  0.00    +0.000 A 
ATOM      2  C   UNL     1       1.877   8.684  18.766  0.00  0.00    +0.000 A 
ATOM      3  C   UNL     1       2.520   7.671  18.051  0.00  0.00    +0.000 A 
ATOM      4  C   UNL     1       2.779   6.435  18.658  0.00  0.00    +0.000 A 
ATOM      5  C   UNL     1       2.388   6.217  19.993  0.00  0.00    +0.000 A 
ATOM      6  C   UNL     1       1.744   7.247  20.696  0.00  0.00    +0.000 A 
ENDROOT
BRANCH   4   7
ATOM      7  C   UNL     1       3.478   5.385  17.875  0.00  0.00    +0.000 C 
ATOM      8  N   UNL     1       2.883   4.386  17.308  0.00  0.00    +0.000 NA
ATOM      9  O   UNL     1       3.866   3.583  16.687  0.00  0.00    +0.000 OA
ATOM     10  C   UNL     1       5.163   4.134  16.948  0.00  0.00    +0.000 C 
ATOM     11  C   UNL     1       4.957   5.423  17.710  0.00  0.00    +0.000 C 
BRANCH  10  12
ATOM     12  N   UNL     1       5.857   4.336  15.688  0.00  0.00    +0.000 N 
ATOM     13  C   UNL     1       7.013   5.037  15.476  0.00  0.00    +0.000 A 
ATOM     14  C   UNL     1       7.296   4.863  14.141  0.00  0.00    +0.000 A 
ATOM     15  N   UNL     1       6.347   4.075  13.542  0.00  0.00    +0.000 NA
ATOM     16  C   UNL     1       5.489   3.781  14.494  0.00  0.00    +0.000 A 
ENDBRANCH  10  12
ENDBRANCH   4   7
BRANCH   1  18
ATOM     17  C   UNL     1      -0.141   9.269  21.630  0.00  0.00    +0.000 C 
ATOM     18  O   UNL     1       0.877   9.552  20.677  0.00  0.00    +0.000 OA
ENDBRANCH   1  18
BRANCH   5  19
ATOM     19  O   UNL     1       2.708   5.008  20.552  0.00  0.00    +0.000 OA
ATOM     20  C   UNL     1       1.654   4.170  21.001  0.00  0.00    +0.000 C 
ENDBRANCH   5  19
TORSDOF 4
ENDMDL
MODEL 9
REMARK VINA RESULT:      -6.2      5.188      6.212
REMARK  Name = 
REMARK  6 active torsions:
REMARK  status: ('A' for Active; 'I' for Inactive)
REMARK    1  A    between atoms: C_1  and  O_2
REMARK    2  A    between atoms: O_2  and  C_3
REMARK    3  A    between atoms: C_6  and  C_7
REMARK    4  A    between atoms: C_10  and  N_11
REMARK    5  A    between atoms: C_17  and  O_18
REMARK    6  A    between atoms: O_18  and  C_19
REMARK                            x       y       z     vdW  Elec       q    Type
REMARK                         _______ _______ _______ _____ _____    ______ ____
ROOT
ATOM      1  C   UNL     1       4.915   4.636  16.566  0.00  0.00    +0.000 A 
ATOM      2  C   UNL     1       5.287   5.979  16.579  0.00  0.00    +0.000 A 
ATOM      3  C   UNL     1       4.492   6.930  17.221  0.00  0.00    +0.000 A 
ATOM      4  C   UNL     1       3.310   6.541  17.864  0.00  0.00    +0.000 A 
ATOM      5  C   UNL     1       2.926   5.186  17.861  0.00  0.00    +0.000 A 
ATOM      6  C   UNL     1       3.738   4.245  17.209  0.00  0.00    +0.000 A 
ENDROOT
BRANCH   4   7
ATOM      7  C   UNL     1       2.477   7.579  18.524  0.00  0.00    +0.000 C 
ATOM      8  N   UNL     1       2.182   7.578  19.784  0.00  0.00    +0.000 NA
ATOM      9  O   UNL     1       1.353   8.693  20.043  0.00  0.00    +0.000 OA
ATOM     10  C   UNL     1       1.101   9.390  18.817  0.00  0.00    +0.000 C 
ATOM     11  C   UNL     1       1.909   8.707  17.738  0.00  0.00    +0.000 C 
BRANCH  10  12
ATOM     12  N   UNL     1       1.461  10.788  18.982  0.00  0.00    +0.000 N 
ATOM     13  C   UNL     1       2.240  11.552  18.154  0.00  0.00    +0.000 A 
ATOM     14  C   UNL     1       2.212  12.813  18.703  0.00  0.00    +0.000 A 
ATOM     15  N   UNL     1       1.437  12.833  19.834  0.00  0.00    +0.000 NA
ATOM     16  C   UNL     1       1.008  11.600  19.983  0.00  0.00    +0.000 A 
ENDBRANCH  10  12
ENDBRANCH   4   7
BRANCH   1  18
ATOM     17  C   UNL     1       6.732   4.432  15.046  0.00  0.00    +0.000 C 
ATOM     18  O   UNL     1       5.776   3.811  15.898  0.00  0.00    +0.000 OA
ENDBRANCH   1  18
BRANCH   5  19
ATOM     19  O   UNL     1       1.737   4.868  18.463  0.00  0.00    +0.000 OA
ATOM     20  C   UNL     1       1.744   3.908  19.510  0.00  0.00    +0.000 C 
ENDBRANCH   5  19
TORSDOF 4
ENDMDL
