MODEL 1
REMARK VINA RESULT:      -7.1      0.000      0.000
REMARK  Name = 
REMARK  7 active torsions:
REMARK  status: ('A' for Active; 'I' for Inactive)
REMARK    1  A    between atoms: C_1  and  S_2
REMARK    2  A    between atoms: S_2  and  N_5
REMARK    3  A    between atoms: N_5  and  C_6
REMARK    4  A    between atoms: C_6  and  C_7
REMARK    5  A    between atoms: C_7  and  N_8
REMARK    6  A    between atoms: N_8  and  S_9
REMARK    7  A    between atoms: S_9  and  C_12
REMARK                            x       y       z     vdW  Elec       q    Type
REMARK                         _______ _______ _______ _____ _____    ______ ____
ROOT
ATOM      1  S   UNL     1       6.253   5.191  18.072  0.00  0.00    +0.000 S 
ATOM      2  O   UNL     1       7.075   5.052  19.251  0.00  0.00    +0.000 OA
ATOM      3  O   UNL     1       6.023   6.487  17.475  0.00  0.00    +0.000 OA
ENDROOT
BRANCH   1   4
ATOM      4  C   UNL     1       4.696   4.395  18.372  0.00  0.00    +0.000 A 
ATOM      5  C   UNL     1       4.268   3.386  17.492  0.00  0.00    +0.000 A 
ATOM      6  C   UNL     1       3.020   2.786  17.674  0.00  0.00    +0.000 A 
ATOM      7  C   UNL     1       2.240   3.197  18.742  0.00  0.00    +0.000 A 
ATOM      8  C   UNL     1       2.671   4.202  19.617  0.00  0.00    +0.000 A 
ATOM      9  C   UNL     1       3.899   4.818  19.444  0.00  0.00    +0.000 A 
ATOM     10  C   UNL     1       1.625   4.492  20.649  0.00  0.00    +0.000 C 
ATOM     11  C   UNL     1       0.775   3.216  20.571  0.00  0.00    +0.000 C 
ATOM     12  C   UNL     1       0.873   2.714  19.123  0.00  0.00    +0.000 C 
ENDBRANCH   1   4
BRANCH   1  13
ATOM     13  N   UNL     1       6.947   4.232  16.886  0.00  0.00    +0.000 NA
ATOM     14  H   UNL     1       7.647   3.582  17.243  0.00  0.00    +0.000 HD
BRANCH  13  15
ATOM     15  C   UNL     1       7.076   4.691  15.489  0.00  0.00    +0.000 C 
BRANCH  15  16
ATOM     16  C   UNL     1       5.887   4.333  14.597  0.00  0.00    +0.000 C 
BRANCH  16  17
ATOM     17  N   UNL     1       6.209   3.144  13.781  0.00  0.00    +0.000 NA
ATOM     18  H   UNL     1       7.118   2.728  13.995  0.00  0.00    +0.000 HD
BRANCH  17  20
ATOM     19  C   UNL     1       6.230   1.642  11.545  0.00  0.00    +0.000 C 
ATOM     20  S   UNL     1       6.004   3.316  12.113  0.00  0.00    +0.000 S 
ATOM     21  O   UNL     1       7.083   4.130  11.606  0.00  0.00    +0.000 OA
ATOM     22  O   UNL     1       4.616   3.663  11.906  0.00  0.00    +0.000 OA
ENDBRANCH  17  20
ENDBRANCH  16  17
ENDBRANCH  15  16
ENDBRANCH  13  15
ENDBRANCH   1  13
TORSDOF 6
ENDMDL
MODEL 2
REMARK VINA RESULT:      -7.0      3.239      7.272
REMARK  Name = 
REMARK  7 active torsions:
REMARK  status: ('A' for Active; 'I' for Inactive)
REMARK    1  A    between atoms: C_1  and  S_2
REMARK    2  A    between atoms: S_2  and  N_5
REMARK    3  A    between atoms: N_5  and  C_6
REMARK    4  A    between atoms: C_6  and  C_7
REMARK    5  A    between atoms: C_7  and  N_8
REMARK    6  A    between atoms: N_8  and  S_9
REMARK    7  A    between atoms: S_9  and  C_12
REMARK                            x       y       z     vdW  Elec       q    Type
REMARK                         _______ _______ _______ _____ _____    ______ ____
ROOT
ATOM      1  S   UNL     1       4.712   4.003  17.878  0.00  0.00    +0.000 S 
ATOM      2  O   UNL     1       5.646   3.874  18.973  0.00  0.00    +0.000 OA
ATOM      3  O   UNL     1       3.713   2.989  17.629  0.00  0.00    +0.000 OA
ENDROOT
BRANCH   1   4
ATOM      4  C   UNL     1       5.628   4.308  16.389  0.00  0.00    +0.000 A 
ATOM      5  C   UNL     1       6.696   5.221  16.423  0.00  0.00    +0.000 A 
ATOM      6  C   UNL     1       7.393   5.523  15.251  0.00  0.00    +0.000 A 
ATOM      7  C   UNL     1       7.017   4.888  14.078  0.00  0.00    +0.000 A 
ATOM      8  C   UNL     1       5.953   3.979  14.050  0.00  0.00    +0.000 A 
ATOM      9  C   UNL     1       5.241   3.679  15.199  0.00  0.00    +0.000 A 
ATOM     10  C   UNL     1       5.720   3.478  12.657  0.00  0.00    +0.000 C 
ATOM     11  C   UNL     1       7.066   3.813  11.997  0.00  0.00    +0.000 C 
ATOM     12  C   UNL     1       7.602   5.063  12.710  0.00  0.00    +0.000 C 
ENDBRANCH   1   4
BRANCH   1  13
ATOM     13  N   UNL     1       3.888   5.442  18.117  0.00  0.00    +0.000 NA
ATOM     14  H   UNL     1       4.058   6.136  17.390  0.00  0.00    +0.000 HD
BRANCH  13  15
ATOM     15  C   UNL     1       3.538   5.925  19.468  0.00  0.00    +0.000 C 
BRANCH  15  16
ATOM     16  C   UNL     1       2.169   5.461  19.966  0.00  0.00    +0.000 C 
BRANCH  16  17
ATOM     17  N   UNL     1       2.315   4.746  21.251  0.00  0.00    +0.000 NA
ATOM     18  H   UNL     1       3.167   4.983  21.762  0.00  0.00    +0.000 HD
BRANCH  17  20
ATOM     19  C   UNL     1       1.023   2.898  19.777  0.00  0.00    +0.000 C 
ATOM     20  S   UNL     1       2.091   3.073  21.194  0.00  0.00    +0.000 S 
ATOM     21  O   UNL     1       1.366   2.673  22.375  0.00  0.00    +0.000 OA
ATOM     22  O   UNL     1       3.373   2.500  20.847  0.00  0.00    +0.000 OA
ENDBRANCH  17  20
ENDBRANCH  16  17
ENDBRANCH  15  16
ENDBRANCH  13  15
ENDBRANCH   1  13
TORSDOF 6
ENDMDL
MODEL 3
REMARK VINA RESULT:      -6.8      4.044      6.056
REMARK  Name = 
REMARK  7 active torsions:
REMARK  status: ('A' for Active; 'I' for Inactive)
REMARK    1  A    between atoms: C_1  and  S_2
REMARK    2  A    between atoms: S_2  and  N_5
REMARK    3  A    between atoms: N_5  and  C_6
REMARK    4  A    between atoms: C_6  and  C_7
REMARK    5  A    between atoms: C_7  and  N_8
REMARK    6  A    between atoms: N_8  and  S_9
REMARK    7  A    between atoms: S_9  and  C_12
REMARK                            x       y       z     vdW  Elec       q    Type
REMARK                         _______ _______ _______ _____ _____    ______ ____
ROOT
ATOM      1  S   UNL     1       7.190   5.372  17.140  0.00  0.00    +0.000 S 
ATOM      2  O   UNL     1       7.203   5.811  15.764  0.00  0.00    +0.000 OA
ATOM      3  O   UNL     1       8.122   4.373  17.611  0.00  0.00    +0.000 OA
ENDROOT
BRANCH   1   4
ATOM      4  C   UNL     1       5.537   4.881  17.560  0.00  0.00    +0.000 A 
ATOM      5  C   UNL     1       4.874   3.953  16.739  0.00  0.00    +0.000 A 
ATOM      6  C   UNL     1       3.552   3.596  17.015  0.00  0.00    +0.000 A 
ATOM      7  C   UNL     1       2.933   4.164  18.117  0.00  0.00    +0.000 A 
ATOM      8  C   UNL     1       3.598   5.088  18.932  0.00  0.00    +0.000 A 
ATOM      9  C   UNL     1       4.903   5.464  18.665  0.00  0.00    +0.000 A 
ATOM     10  C   UNL     1       2.692   5.585  20.017  0.00  0.00    +0.000 C 
ATOM     11  C   UNL     1       1.620   4.486  20.030  0.00  0.00    +0.000 C 
ATOM     12  C   UNL     1       1.530   3.948  18.595  0.00  0.00    +0.000 C 
ENDBRANCH   1   4
BRANCH   1  13
ATOM     13  N   UNL     1       7.431   6.737  18.083  0.00  0.00    +0.000 NA
ATOM     14  H   UNL     1       6.942   6.707  18.977  0.00  0.00    +0.000 HD
BRANCH  13  15
ATOM     15  C   UNL     1       7.701   8.058  17.484  0.00  0.00    +0.000 C 
BRANCH  15  16
ATOM     16  C   UNL     1       8.473   9.014  18.396  0.00  0.00    +0.000 C 
BRANCH  16  17
ATOM     17  N   UNL     1       8.430  10.384  17.842  0.00  0.00    +0.000 NA
ATOM     18  H   UNL     1       8.502  10.421  16.823  0.00  0.00    +0.000 HD
BRANCH  17  20
ATOM     19  C   UNL     1       9.603  10.862  20.219  0.00  0.00    +0.000 C 
ATOM     20  S   UNL     1       9.472  11.503  18.560  0.00  0.00    +0.000 S 
ATOM     21  O   UNL     1       8.801  12.779  18.607  0.00  0.00    +0.000 OA
ATOM     22  O   UNL     1      10.758  11.332  17.923  0.00  0.00    +0.000 OA
ENDBRANCH  17  20
ENDBRANCH  16  17
ENDBRANCH  15  16
ENDBRANCH  13  15
ENDBRANCH   1  13
TORSDOF 6
ENDMDL
MODEL 4
REMARK VINA RESULT:      -6.8      3.567      4.567
REMARK  Name = 
REMARK  7 active torsions:
REMARK  status: ('A' for Active; 'I' for Inactive)
REMARK    1  A    between atoms: C_1  and  S_2
REMARK    2  A    between atoms: S_2  and  N_5
REMARK    3  A    between atoms: N_5  and  C_6
REMARK    4  A    between atoms: C_6  and  C_7
REMARK    5  A    between atoms: C_7  and  N_8
REMARK    6  A    between atoms: N_8  and  S_9
REMARK    7  A    between atoms: S_9  and  C_12
REMARK                            x       y       z     vdW  Elec       q    Type
REMARK                         _______ _______ _______ _____ _____    ______ ____
ROOT
ATOM      1  S   UNL     1       3.502   4.916  19.092  0.00  0.00    +0.000 S 
ATOM      2  O   UNL     1       3.440   4.397  17.745  0.00  0.00    +0.000 OA
ATOM      3  O   UNL     1       3.060   4.121  20.215  0.00  0.00    +0.000 OA
ENDROOT
BRANCH   1   4
ATOM      4  C   UNL     1       2.688   6.492  19.127  0.00  0.00    +0.000 A 
ATOM      5  C   UNL     1       2.769   7.324  17.997  0.00  0.00    +0.000 A 
ATOM      6  C   UNL     1       2.188   8.594  18.023  0.00  0.00    +0.000 A 
ATOM      7  C   UNL     1       1.523   8.992  19.172  0.00  0.00    +0.000 A 
ATOM      8  C   UNL     1       1.445   8.159  20.294  0.00  0.00    +0.000 A 
ATOM      9  C   UNL     1       2.028   6.903  20.292  0.00  0.00    +0.000 A 
ATOM     10  C   UNL     1       0.721   8.844  21.413  0.00  0.00    +0.000 C 
ATOM     11  C   UNL     1      -0.028   9.944  20.647  0.00  0.00    +0.000 C 
ATOM     12  C   UNL     1       0.843  10.301  19.434  0.00  0.00    +0.000 C 
ENDBRANCH   1   4
BRANCH   1  13
ATOM     13  N   UNL     1       5.104   5.310  19.382  0.00  0.00    +0.000 NA
ATOM     14  H   UNL     1       5.240   6.276  19.678  0.00  0.00    +0.000 HD
BRANCH  13  15
ATOM     15  C   UNL     1       6.212   4.640  18.674  0.00  0.00    +0.000 C 
BRANCH  15  16
ATOM     16  C   UNL     1       7.002   5.554  17.736  0.00  0.00    +0.000 C 
BRANCH  16  17
ATOM     17  N   UNL     1       7.592   4.761  16.637  0.00  0.00    +0.000 NA
ATOM     18  H   UNL     1       8.592   4.919  16.503  0.00  0.00    +0.000 HD
BRANCH  17  20
ATOM     19  C   UNL     1       5.527   6.055  15.489  0.00  0.00    +0.000 C 
ATOM     20  S   UNL     1       6.769   4.818  15.163  0.00  0.00    +0.000 S 
ATOM     21  O   UNL     1       6.118   3.547  14.959  0.00  0.00    +0.000 OA
ATOM     22  O   UNL     1       7.694   5.372  14.200  0.00  0.00    +0.000 OA
ENDBRANCH  17  20
ENDBRANCH  16  17
ENDBRANCH  15  16
ENDBRANCH  13  15
ENDBRANCH   1  13
TORSDOF 6
ENDMDL
MODEL 5
REMARK VINA RESULT:      -6.8      1.328      1.615
REMARK  Name = 
REMARK  7 active torsions:
REMARK  status: ('A' for Active; 'I' for Inactive)
REMARK    1  A    between atoms: C_1  and  S_2
REMARK    2  A    between atoms: S_2  and  N_5
REMARK    3  A    between atoms: N_5  and  C_6
REMARK    4  A    between atoms: C_6  and  C_7
REMARK    5  A    between atoms: C_7  and  N_8
REMARK    6  A    between atoms: N_8  and  S_9
REMARK    7  A    between atoms: S_9  and  C_12
REMARK                            x       y       z     vdW  Elec       q    Type
REMARK                         _______ _______ _______ _____ _____    ______ ____
ROOT
ATOM      1  S   UNL     1       6.637   5.457  18.246  0.00  0.00    +0.000 S 
ATOM      2  O   UNL     1       7.508   5.152  19.357  0.00  0.00    +0.000 OA
ATOM      3  O   UNL     1       6.694   6.742  17.588  0.00  0.00    +0.000 OA
ENDROOT
BRANCH   1   4
ATOM      4  C   UNL     1       4.964   5.115  18.730  0.00  0.00    +0.000 A 
ATOM      5  C   UNL     1       3.946   5.993  18.322  0.00  0.00    +0.000 A 
ATOM      6  C   UNL     1       2.631   5.778  18.740  0.00  0.00    +0.000 A 
ATOM      7  C   UNL     1       2.365   4.678  19.541  0.00  0.00    +0.000 A 
ATOM      8  C   UNL     1       3.384   3.806  19.944  0.00  0.00    +0.000 A 
ATOM      9  C   UNL     1       4.695   4.012  19.551  0.00  0.00    +0.000 A 
ATOM     10  C   UNL     1       2.841   2.736  20.841  0.00  0.00    +0.000 C 
ATOM     11  C   UNL     1       1.344   2.802  20.503  0.00  0.00    +0.000 C 
ATOM     12  C   UNL     1       1.048   4.258  20.118  0.00  0.00    +0.000 C 
ENDBRANCH   1   4
BRANCH   1  13
ATOM     13  N   UNL     1       6.935   4.301  17.069  0.00  0.00    +0.000 NA
ATOM     14  H   UNL     1       7.924   4.183  16.855  0.00  0.00    +0.000 HD
BRANCH  13  15
ATOM     15  C   UNL     1       5.954   3.998  16.009  0.00  0.00    +0.000 C 
BRANCH  15  16
ATOM     16  C   UNL     1       6.468   4.243  14.589  0.00  0.00    +0.000 C 
BRANCH  16  17
ATOM     17  N   UNL     1       6.173   3.072  13.738  0.00  0.00    +0.000 NA
ATOM     18  H   UNL     1       6.636   2.213  14.040  0.00  0.00    +0.000 HD
BRANCH  17  20
ATOM     19  C   UNL     1       4.668   3.496  11.544  0.00  0.00    +0.000 C 
ATOM     20  S   UNL     1       6.359   3.304  12.075  0.00  0.00    +0.000 S 
ATOM     21  O   UNL     1       6.891   2.090  11.506  0.00  0.00    +0.000 OA
ATOM     22  O   UNL     1       7.015   4.582  11.911  0.00  0.00    +0.000 OA
ENDBRANCH  17  20
ENDBRANCH  16  17
ENDBRANCH  15  16
ENDBRANCH  13  15
ENDBRANCH   1  13
TORSDOF 6
ENDMDL
MODEL 6
REMARK VINA RESULT:      -6.7      3.178      4.990
REMARK  Name = 
REMARK  7 active torsions:
REMARK  status: ('A' for Active; 'I' for Inactive)
REMARK    1  A    between atoms: C_1  and  S_2
REMARK    2  A    between atoms: S_2  and  N_5
REMARK    3  A    between atoms: N_5  and  C_6
REMARK    4  A    between atoms: C_6  and  C_7
REMARK    5  A    between atoms: C_7  and  N_8
REMARK    6  A    between atoms: N_8  and  S_9
REMARK    7  A    between atoms: S_9  and  C_12
REMARK                            x       y       z     vdW  Elec       q    Type
REMARK                         _______ _______ _______ _____ _____    ______ ____
ROOT
ATOM      1  S   UNL     1       3.210   2.906  17.941  0.00  0.00    +0.000 S 
ATOM      2  O   UNL     1       2.543   2.822  16.662  0.00  0.00    +0.000 OA
ATOM      3  O   UNL     1       3.110   1.833  18.903  0.00  0.00    +0.000 OA
ENDROOT
BRANCH   1   4
ATOM      4  C   UNL     1       2.756   4.438  18.713  0.00  0.00    +0.000 A 
ATOM      5  C   UNL     1       2.467   4.445  20.089  0.00  0.00    +0.000 A 
ATOM      6  C   UNL     1       2.050   5.626  20.707  0.00  0.00    +0.000 A 
ATOM      7  C   UNL     1       1.950   6.774  19.937  0.00  0.00    +0.000 A 
ATOM      8  C   UNL     1       2.240   6.761  18.567  0.00  0.00    +0.000 A 
ATOM      9  C   UNL     1       2.641   5.597  17.935  0.00  0.00    +0.000 A 
ATOM     10  C   UNL     1       2.004   8.112  17.963  0.00  0.00    +0.000 C 
ATOM     11  C   UNL     1       2.032   9.001  19.215  0.00  0.00    +0.000 C 
ATOM     12  C   UNL     1       1.513   8.139  20.374  0.00  0.00    +0.000 C 
ENDBRANCH   1   4
BRANCH   1  13
ATOM     13  N   UNL     1       4.842   3.113  17.619  0.00  0.00    +0.000 NA
ATOM     14  H   UNL     1       5.395   3.341  18.444  0.00  0.00    +0.000 HD
BRANCH  13  15
ATOM     15  C   UNL     1       5.322   3.592  16.308  0.00  0.00    +0.000 C 
BRANCH  15  16
ATOM     16  C   UNL     1       6.640   4.367  16.367  0.00  0.00    +0.000 C 
BRANCH  16  17
ATOM     17  N   UNL     1       7.191   4.323  17.737  0.00  0.00    +0.000 NA
ATOM     18  H   UNL     1       6.941   3.479  18.257  0.00  0.00    +0.000 HD
BRANCH  17  20
ATOM     19  C   UNL     1       6.271   6.841  17.479  0.00  0.00    +0.000 C 
ATOM     20  S   UNL     1       6.942   5.704  18.677  0.00  0.00    +0.000 S 
ATOM     21  O   UNL     1       8.228   6.192  19.112  0.00  0.00    +0.000 OA
ATOM     22  O   UNL     1       5.886   5.380  19.610  0.00  0.00    +0.000 OA
ENDBRANCH  17  20
ENDBRANCH  16  17
ENDBRANCH  15  16
ENDBRANCH  13  15
ENDBRANCH   1  13
TORSDOF 6
ENDMDL
MODEL 7
REMARK VINA RESULT:      -6.7      3.670      4.923
REMARK  Name = 
REMARK  7 active torsions:
REMARK  status: ('A' for Active; 'I' for Inactive)
REMARK    1  A    between atoms: C_1  and  S_2
REMARK    2  A    between atoms: S_2  and  N_5
REMARK    3  A    between atoms: N_5  and  C_6
REMARK    4  A    between atoms: C_6  and  C_7
REMARK    5  A    between atoms: C_7  and  N_8
REMARK    6  A    between atoms: N_8  and  S_9
REMARK    7  A    between atoms: S_9  and  C_12
REMARK                            x       y       z     vdW  Elec       q    Type
REMARK                         _______ _______ _______ _____ _____    ______ ____
ROOT
ATOM      1  S   UNL     1       2.528   4.266  19.804  0.00  0.00    +0.000 S 
ATOM      2  O   UNL     1       1.729   3.454  18.916  0.00  0.00    +0.000 OA
ATOM      3  O   UNL     1       2.515   4.039  21.231  0.00  0.00    +0.000 OA
ENDROOT
BRANCH   1   4
ATOM      4  C   UNL     1       2.181   5.974  19.474  0.00  0.00    +0.000 A 
ATOM      5  C   UNL     1       2.452   6.487  18.194  0.00  0.00    +0.000 A 
ATOM      6  C   UNL     1       2.243   7.842  17.927  0.00  0.00    +0.000 A 
ATOM      7  C   UNL     1       1.750   8.646  18.943  0.00  0.00    +0.000 A 
ATOM      8  C   UNL     1       1.480   8.129  20.216  0.00  0.00    +0.000 A 
ATOM      9  C   UNL     1       1.695   6.792  20.503  0.00  0.00    +0.000 A 
ATOM     10  C   UNL     1       1.008   9.211  21.138  0.00  0.00    +0.000 C 
ATOM     11  C   UNL     1       0.567  10.283  20.130  0.00  0.00    +0.000 C 
ATOM     12  C   UNL     1       1.464  10.116  18.896  0.00  0.00    +0.000 C 
ENDBRANCH   1   4
BRANCH   1  13
ATOM     13  N   UNL     1       4.120   4.100  19.306  0.00  0.00    +0.000 NA
ATOM     14  H   UNL     1       4.687   4.931  19.468  0.00  0.00    +0.000 HD
BRANCH  13  15
ATOM     15  C   UNL     1       4.498   3.208  18.192  0.00  0.00    +0.000 C 
BRANCH  15  16
ATOM     16  C   UNL     1       4.591   3.906  16.834  0.00  0.00    +0.000 C 
BRANCH  16  17
ATOM     17  N   UNL     1       5.891   3.602  16.199  0.00  0.00    +0.000 NA
ATOM     18  H   UNL     1       6.278   2.694  16.461  0.00  0.00    +0.000 HD
BRANCH  17  20
ATOM     19  C   UNL     1       6.148   6.139  17.068  0.00  0.00    +0.000 C 
ATOM     20  S   UNL     1       7.066   4.812  16.310  0.00  0.00    +0.000 S 
ATOM     21  O   UNL     1       7.436   5.206  14.972  0.00  0.00    +0.000 OA
ATOM     22  O   UNL     1       8.040   4.349  17.273  0.00  0.00    +0.000 OA
ENDBRANCH  17  20
ENDBRANCH  16  17
ENDBRANCH  15  16
ENDBRANCH  13  15
ENDBRANCH   1  13
TORSDOF 6
ENDMDL
MODEL 8
REMARK VINA RESULT:      -6.7      3.429      7.229
REMARK  Name = 
REMARK  7 active torsions:
REMARK  status: ('A' for Active; 'I' for Inactive)
REMARK    1  A    between atoms: C_1  and  S_2
REMARK    2  A    between atoms: S_2  and  N_5
REMARK    3  A    between atoms: N_5  and  C_6
REMARK    4  A    between atoms: C_6  and  C_7
REMARK    5  A    between atoms: C_7  and  N_8
REMARK    6  A    between atoms: N_8  and  S_9
REMARK    7  A    between atoms: S_9  and  C_12
REMARK                            x       y       z     vdW  Elec       q    Type
REMARK                         _______ _______ _______ _____ _____    ______ ____
ROOT
ATOM      1  S   UNL     1       4.795   4.089  17.971  0.00  0.00    +0.000 S 
ATOM      2  O   UNL     1       5.739   3.982  19.059  0.00  0.00    +0.000 OA
ATOM      3  O   UNL     1       3.786   3.076  17.760  0.00  0.00    +0.000 OA
ENDROOT
BRANCH   1   4
ATOM      4  C   UNL     1       5.696   4.348  16.465  0.00  0.00    +0.000 A 
ATOM      5  C   UNL     1       6.833   5.175  16.487  0.00  0.00    +0.000 A 
ATOM      6  C   UNL     1       7.524   5.442  15.303  0.00  0.00    +0.000 A 
ATOM      7  C   UNL     1       7.071   4.860  14.130  0.00  0.00    +0.000 A 
ATOM      8  C   UNL     1       5.938   4.037  14.113  0.00  0.00    +0.000 A 
ATOM      9  C   UNL     1       5.232   3.773  15.275  0.00  0.00    +0.000 A 
ATOM     10  C   UNL     1       5.634   3.581  12.719  0.00  0.00    +0.000 C 
ATOM     11  C   UNL     1       6.986   3.822  12.031  0.00  0.00    +0.000 C 
ATOM     12  C   UNL     1       7.635   5.012  12.750  0.00  0.00    +0.000 C 
ENDBRANCH   1   4
BRANCH   1  13
ATOM     13  N   UNL     1       3.982   5.540  18.181  0.00  0.00    +0.000 NA
ATOM     14  H   UNL     1       4.302   6.281  17.557  0.00  0.00    +0.000 HD
BRANCH  13  15
ATOM     15  C   UNL     1       3.409   5.930  19.484  0.00  0.00    +0.000 C 
BRANCH  15  16
ATOM     16  C   UNL     1       2.072   5.260  19.807  0.00  0.00    +0.000 C 
BRANCH  16  17
ATOM     17  N   UNL     1       2.153   4.578  21.116  0.00  0.00    +0.000 NA
ATOM     18  H   UNL     1       3.003   4.790  21.641  0.00  0.00    +0.000 HD
BRANCH  17  20
ATOM     19  C   UNL     1       3.505   2.249  21.050  0.00  0.00    +0.000 C 
ATOM     20  S   UNL     1       1.852   2.916  21.101  0.00  0.00    +0.000 S 
ATOM     21  O   UNL     1       1.181   2.589  19.866  0.00  0.00    +0.000 OA
ATOM     22  O   UNL     1       1.290   2.590  22.392  0.00  0.00    +0.000 OA
ENDBRANCH  17  20
ENDBRANCH  16  17
ENDBRANCH  15  16
ENDBRANCH  13  15
ENDBRANCH   1  13
TORSDOF 6
ENDMDL
MODEL 9
REMARK VINA RESULT:      -6.7      2.029      2.239
REMARK  Name = 
REMARK  7 active torsions:
REMARK  status: ('A' for Active; 'I' for Inactive)
REMARK    1  A    between atoms: C_1  and  S_2
REMARK    2  A    between atoms: S_2  and  N_5
REMARK    3  A    between atoms: N_5  and  C_6
REMARK    4  A    between atoms: C_6  and  C_7
REMARK    5  A    between atoms: C_7  and  N_8
REMARK    6  A    between atoms: N_8  and  S_9
REMARK    7  A    between atoms: S_9  and  C_12
REMARK                            x       y       z     vdW  Elec       q    Type
REMARK                         _______ _______ _______ _____ _____    ______ ____
ROOT
ATOM      1  S   UNL     1       6.913   5.202  18.935  0.00  0.00    +0.000 S 
ATOM      2  O   UNL     1       7.661   4.396  17.999  0.00  0.00    +0.000 OA
ATOM      3  O   UNL     1       7.436   5.491  20.251  0.00  0.00    +0.000 OA
ENDROOT
BRANCH   1   4
ATOM      4  C   UNL     1       5.280   4.525  19.084  0.00  0.00    +0.000 A 
ATOM      5  C   UNL     1       5.014   3.263  18.526  0.00  0.00    +0.000 A 
ATOM      6  C   UNL     1       3.722   2.735  18.578  0.00  0.00    +0.000 A 
ATOM      7  C   UNL     1       2.732   3.476  19.203  0.00  0.00    +0.000 A 
ATOM      8  C   UNL     1       3.002   4.733  19.758  0.00  0.00    +0.000 A 
ATOM      9  C   UNL     1       4.274   5.278  19.703  0.00  0.00    +0.000 A 
ATOM     10  C   UNL     1       1.756   5.341  20.324  0.00  0.00    +0.000 C 
ATOM     11  C   UNL     1       0.866   4.099  20.476  0.00  0.00    +0.000 C 
ATOM     12  C   UNL     1       1.285   3.125  19.365  0.00  0.00    +0.000 C 
ENDBRANCH   1   4
BRANCH   1  13
ATOM     13  N   UNL     1       6.645   6.679  18.189  0.00  0.00    +0.000 NA
ATOM     14  H   UNL     1       6.113   7.335  18.761  0.00  0.00    +0.000 HD
BRANCH  13  15
ATOM     15  C   UNL     1       6.551   6.804  16.722  0.00  0.00    +0.000 C 
BRANCH  15  16
ATOM     16  C   UNL     1       5.255   6.252  16.126  0.00  0.00    +0.000 C 
BRANCH  16  17
ATOM     17  N   UNL     1       5.482   5.835  14.726  0.00  0.00    +0.000 NA
ATOM     18  H   UNL     1       4.622   5.682  14.196  0.00  0.00    +0.000 HD
BRANCH  17  20
ATOM     19  C   UNL     1       6.086   3.954  12.895  0.00  0.00    +0.000 C 
ATOM     20  S   UNL     1       6.563   4.556  14.503  0.00  0.00    +0.000 S 
ATOM     21  O   UNL     1       6.271   3.541  15.486  0.00  0.00    +0.000 OA
ATOM     22  O   UNL     1       7.876   5.149  14.375  0.00  0.00    +0.000 OA
ENDBRANCH  17  20
ENDBRANCH  16  17
ENDBRANCH  15  16
ENDBRANCH  13  15
ENDBRANCH   1  13
TORSDOF 6
ENDMDL
