MODEL 1
REMARK VINA RESULT:      -6.9      0.000      0.000
REMARK  Name = 
REMARK  5 active torsions:
REMARK  status: ('A' for Active; 'I' for Inactive)
REMARK    1  A    between atoms: C_1  and  O_2
REMARK    2  A    between atoms: O_2  and  C_3
REMARK    3  A    between atoms: C_6  and  N_7
REMARK    4  A    between atoms: C_8  and  C_9
REMARK    5  A    between atoms: C_14  and  O_15
REMARK                            x       y       z     vdW  Elec       q    Type
REMARK                         _______ _______ _______ _____ _____    ______ ____
ROOT
ATOM      1  N   UNL     1       5.021   3.992  17.958  0.00  0.00    +0.000 NA
ATOM      2  C   UNL     1       3.776   3.630  17.939  0.00  0.00    +0.000 C 
ENDROOT
BRANCH   1   6
ATOM      3  C   UNL     1       6.915   4.781  14.264  0.00  0.00    +0.000 A 
ATOM      4  C   UNL     1       5.632   4.246  14.329  0.00  0.00    +0.000 A 
ATOM      5  C   UNL     1       5.030   4.002  15.568  0.00  0.00    +0.000 A 
ATOM      6  C   UNL     1       5.707   4.265  16.764  0.00  0.00    +0.000 A 
ATOM      7  C   UNL     1       6.990   4.815  16.688  0.00  0.00    +0.000 A 
ATOM      8  C   UNL     1       7.598   5.062  15.447  0.00  0.00    +0.000 A 
BRANCH   3  10
ATOM      9  C   UNL     1       7.008   3.986  12.039  0.00  0.00    +0.000 C 
ATOM     10  O   UNL     1       7.411   4.952  13.001  0.00  0.00    +0.000 OA
ENDBRANCH   3  10
ENDBRANCH   1   6
BRANCH   2  11
ATOM     11  C   UNL     1       3.032   3.393  19.197  0.00  0.00    +0.000 A 
ATOM     12  C   UNL     1       1.735   3.903  19.340  0.00  0.00    +0.000 A 
ATOM     13  C   UNL     1       1.018   3.679  20.518  0.00  0.00    +0.000 A 
ATOM     14  C   UNL     1       1.595   2.948  21.555  0.00  0.00    +0.000 A 
ATOM     15  C   UNL     1       2.884   2.429  21.416  0.00  0.00    +0.000 A 
ATOM     16  C   UNL     1       3.598   2.647  20.236  0.00  0.00    +0.000 A 
BRANCH  16  17
ATOM     17  O   UNL     1       4.857   2.126  20.103  0.00  0.00    +0.000 OA
ATOM     18  H   UNL     1       4.842   1.195  20.379  0.00  0.00    +0.000 HD
ENDBRANCH  16  17
ENDBRANCH   2  11
TORSDOF 4
ENDMDL
MODEL 2
REMARK VINA RESULT:      -6.8      1.738      7.152
REMARK  Name = 
REMARK  5 active torsions:
REMARK  status: ('A' for Active; 'I' for Inactive)
REMARK    1  A    between atoms: C_1  and  O_2
REMARK    2  A    between atoms: O_2  and  C_3
REMARK    3  A    between atoms: C_6  and  N_7
REMARK    4  A    between atoms: C_8  and  C_9
REMARK    5  A    between atoms: C_14  and  O_15
REMARK                            x       y       z     vdW  Elec       q    Type
REMARK                         _______ _______ _______ _____ _____    ______ ____
ROOT
ATOM      1  N   UNL     1       4.898   5.292  16.377  0.00  0.00    +0.000 NA
ATOM      2  C   UNL     1       5.154   4.209  15.711  0.00  0.00    +0.000 C 
ENDROOT
BRANCH   1   6
ATOM      3  C   UNL     1       2.919   4.945  20.094  0.00  0.00    +0.000 A 
ATOM      4  C   UNL     1       3.603   3.874  19.526  0.00  0.00    +0.000 A 
ATOM      5  C   UNL     1       4.253   4.023  18.296  0.00  0.00    +0.000 A 
ATOM      6  C   UNL     1       4.213   5.236  17.601  0.00  0.00    +0.000 A 
ATOM      7  C   UNL     1       3.535   6.309  18.186  0.00  0.00    +0.000 A 
ATOM      8  C   UNL     1       2.881   6.165  19.419  0.00  0.00    +0.000 A 
BRANCH   3  10
ATOM      9  C   UNL     1       2.116   3.299  21.590  0.00  0.00    +0.000 C 
ATOM     10  O   UNL     1       2.300   4.675  21.284  0.00  0.00    +0.000 OA
ENDBRANCH   3  10
ENDBRANCH   1   6
BRANCH   2  11
ATOM     11  C   UNL     1       5.924   4.255  14.447  0.00  0.00    +0.000 A 
ATOM     12  C   UNL     1       5.476   3.529  13.336  0.00  0.00    +0.000 A 
ATOM     13  C   UNL     1       6.188   3.571  12.135  0.00  0.00    +0.000 A 
ATOM     14  C   UNL     1       7.349   4.337  12.041  0.00  0.00    +0.000 A 
ATOM     15  C   UNL     1       7.797   5.071  13.141  0.00  0.00    +0.000 A 
ATOM     16  C   UNL     1       7.081   5.034  14.340  0.00  0.00    +0.000 A 
BRANCH  16  17
ATOM     17  O   UNL     1       7.520   5.765  15.411  0.00  0.00    +0.000 OA
ATOM     18  H   UNL     1       6.871   5.691  16.130  0.00  0.00    +0.000 HD
ENDBRANCH  16  17
ENDBRANCH   2  11
TORSDOF 4
ENDMDL
MODEL 3
REMARK VINA RESULT:      -6.8      0.698      1.317
REMARK  Name = 
REMARK  5 active torsions:
REMARK  status: ('A' for Active; 'I' for Inactive)
REMARK    1  A    between atoms: C_1  and  O_2
REMARK    2  A    between atoms: O_2  and  C_3
REMARK    3  A    between atoms: C_6  and  N_7
REMARK    4  A    between atoms: C_8  and  C_9
REMARK    5  A    between atoms: C_14  and  O_15
REMARK                            x       y       z     vdW  Elec       q    Type
REMARK                         _______ _______ _______ _____ _____    ______ ____
ROOT
ATOM      1  N   UNL     1       4.462   3.519  17.434  0.00  0.00    +0.000 NA
ATOM      2  C   UNL     1       3.997   4.315  18.345  0.00  0.00    +0.000 C 
ENDROOT
BRANCH   1   6
ATOM      3  C   UNL     1       7.167   5.020  14.555  0.00  0.00    +0.000 A 
ATOM      4  C   UNL     1       7.348   5.245  15.917  0.00  0.00    +0.000 A 
ATOM      5  C   UNL     1       6.437   4.730  16.845  0.00  0.00    +0.000 A 
ATOM      6  C   UNL     1       5.318   4.000  16.430  0.00  0.00    +0.000 A 
ATOM      7  C   UNL     1       5.153   3.767  15.062  0.00  0.00    +0.000 A 
ATOM      8  C   UNL     1       6.064   4.283  14.126  0.00  0.00    +0.000 A 
BRANCH   3  10
ATOM      9  C   UNL     1       7.907   5.418  12.345  0.00  0.00    +0.000 C 
ATOM     10  O   UNL     1       8.105   5.594  13.741  0.00  0.00    +0.000 OA
ENDBRANCH   3  10
ENDBRANCH   1   6
BRANCH   2  11
ATOM     11  C   UNL     1       3.138   3.805  19.438  0.00  0.00    +0.000 A 
ATOM     12  C   UNL     1       1.847   4.321  19.603  0.00  0.00    +0.000 A 
ATOM     13  C   UNL     1       1.023   3.842  20.624  0.00  0.00    +0.000 A 
ATOM     14  C   UNL     1       1.487   2.847  21.483  0.00  0.00    +0.000 A 
ATOM     15  C   UNL     1       2.770   2.321  21.319  0.00  0.00    +0.000 A 
ATOM     16  C   UNL     1       3.591   2.796  20.294  0.00  0.00    +0.000 A 
BRANCH  16  17
ATOM     17  O   UNL     1       4.843   2.267  20.133  0.00  0.00    +0.000 OA
ATOM     18  H   UNL     1       4.773   1.298  20.097  0.00  0.00    +0.000 HD
ENDBRANCH  16  17
ENDBRANCH   2  11
TORSDOF 4
ENDMDL
MODEL 4
REMARK VINA RESULT:      -6.6      1.554      7.257
REMARK  Name = 
REMARK  5 active torsions:
REMARK  status: ('A' for Active; 'I' for Inactive)
REMARK    1  A    between atoms: C_1  and  O_2
REMARK    2  A    between atoms: O_2  and  C_3
REMARK    3  A    between atoms: C_6  and  N_7
REMARK    4  A    between atoms: C_8  and  C_9
REMARK    5  A    between atoms: C_14  and  O_15
REMARK                            x       y       z     vdW  Elec       q    Type
REMARK                         _______ _______ _______ _____ _____    ______ ____
ROOT
ATOM      1  N   UNL     1       4.640   4.799  16.239  0.00  0.00    +0.000 NA
ATOM      2  C   UNL     1       5.383   3.880  15.705  0.00  0.00    +0.000 C 
ENDROOT
BRANCH   1   6
ATOM      3  C   UNL     1       2.741   4.294  19.979  0.00  0.00    +0.000 A 
ATOM      4  C   UNL     1       3.644   5.329  19.751  0.00  0.00    +0.000 A 
ATOM      5  C   UNL     1       4.251   5.472  18.499  0.00  0.00    +0.000 A 
ATOM      6  C   UNL     1       3.987   4.573  17.461  0.00  0.00    +0.000 A 
ATOM      7  C   UNL     1       3.068   3.546  17.696  0.00  0.00    +0.000 A 
ATOM      8  C   UNL     1       2.456   3.397  18.950  0.00  0.00    +0.000 A 
BRANCH   3  10
ATOM      9  C   UNL     1       1.769   2.962  21.675  0.00  0.00    +0.000 C 
ATOM     10  O   UNL     1       2.230   4.237  21.247  0.00  0.00    +0.000 OA
ENDBRANCH   3  10
ENDBRANCH   1   6
BRANCH   2  11
ATOM     11  C   UNL     1       6.118   4.131  14.444  0.00  0.00    +0.000 A 
ATOM     12  C   UNL     1       5.744   3.453  13.277  0.00  0.00    +0.000 A 
ATOM     13  C   UNL     1       6.424   3.686  12.080  0.00  0.00    +0.000 A 
ATOM     14  C   UNL     1       7.479   4.597  12.045  0.00  0.00    +0.000 A 
ATOM     15  C   UNL     1       7.852   5.283  13.203  0.00  0.00    +0.000 A 
ATOM     16  C   UNL     1       7.168   5.054  14.399  0.00  0.00    +0.000 A 
BRANCH  16  17
ATOM     17  O   UNL     1       7.533   5.739  15.526  0.00  0.00    +0.000 OA
ATOM     18  H   UNL     1       6.973   6.529  15.609  0.00  0.00    +0.000 HD
ENDBRANCH  16  17
ENDBRANCH   2  11
TORSDOF 4
ENDMDL
MODEL 5
REMARK VINA RESULT:      -6.5      1.627      7.174
REMARK  Name = 
REMARK  5 active torsions:
REMARK  status: ('A' for Active; 'I' for Inactive)
REMARK    1  A    between atoms: C_1  and  O_2
REMARK    2  A    between atoms: O_2  and  C_3
REMARK    3  A    between atoms: C_6  and  N_7
REMARK    4  A    between atoms: C_8  and  C_9
REMARK    5  A    between atoms: C_14  and  O_15
REMARK                            x       y       z     vdW  Elec       q    Type
REMARK                         _______ _______ _______ _____ _____    ______ ____
ROOT
ATOM      1  N   UNL     1       4.383   4.719  16.217  0.00  0.00    +0.000 NA
ATOM      2  C   UNL     1       5.227   3.845  15.764  0.00  0.00    +0.000 C 
ENDROOT
BRANCH   1   6
ATOM      3  C   UNL     1       2.113   3.918  19.690  0.00  0.00    +0.000 A 
ATOM      4  C   UNL     1       1.597   3.710  18.413  0.00  0.00    +0.000 A 
ATOM      5  C   UNL     1       2.376   3.980  17.284  0.00  0.00    +0.000 A 
ATOM      6  C   UNL     1       3.676   4.483  17.406  0.00  0.00    +0.000 A 
ATOM      7  C   UNL     1       4.190   4.674  18.692  0.00  0.00    +0.000 A 
ATOM      8  C   UNL     1       3.412   4.406  19.829  0.00  0.00    +0.000 A 
BRANCH   3  10
ATOM      9  C   UNL     1       1.758   2.804  21.745  0.00  0.00    +0.000 C 
ATOM     10  O   UNL     1       1.252   3.645  20.717  0.00  0.00    +0.000 OA
ENDBRANCH   3  10
ENDBRANCH   1   6
BRANCH   2  11
ATOM     11  C   UNL     1       6.017   4.111  14.540  0.00  0.00    +0.000 A 
ATOM     12  C   UNL     1       5.690   3.453  13.348  0.00  0.00    +0.000 A 
ATOM     13  C   UNL     1       6.421   3.701  12.184  0.00  0.00    +0.000 A 
ATOM     14  C   UNL     1       7.481   4.606  12.208  0.00  0.00    +0.000 A 
ATOM     15  C   UNL     1       7.808   5.272  13.391  0.00  0.00    +0.000 A 
ATOM     16  C   UNL     1       7.072   5.028  14.553  0.00  0.00    +0.000 A 
BRANCH  16  17
ATOM     17  O   UNL     1       7.392   5.694  15.706  0.00  0.00    +0.000 OA
ATOM     18  H   UNL     1       7.405   5.060  16.442  0.00  0.00    +0.000 HD
ENDBRANCH  16  17
ENDBRANCH   2  11
TORSDOF 4
ENDMDL
MODEL 6
REMARK VINA RESULT:      -6.5      1.369      2.065
REMARK  Name = 
REMARK  5 active torsions:
REMARK  status: ('A' for Active; 'I' for Inactive)
REMARK    1  A    between atoms: C_1  and  O_2
REMARK    2  A    between atoms: O_2  and  C_3
REMARK    3  A    between atoms: C_6  and  N_7
REMARK    4  A    between atoms: C_8  and  C_9
REMARK    5  A    between atoms: C_14  and  O_15
REMARK                            x       y       z     vdW  Elec       q    Type
REMARK                         _______ _______ _______ _____ _____    ______ ____
ROOT
ATOM      1  N   UNL     1       4.095   4.458  17.542  0.00  0.00    +0.000 NA
ATOM      2  C   UNL     1       4.106   3.408  18.303  0.00  0.00    +0.000 C 
ENDROOT
BRANCH   1   6
ATOM      3  C   UNL     1       7.129   5.086  14.668  0.00  0.00    +0.000 A 
ATOM      4  C   UNL     1       7.106   5.784  15.873  0.00  0.00    +0.000 A 
ATOM      5  C   UNL     1       6.090   5.548  16.806  0.00  0.00    +0.000 A 
ATOM      6  C   UNL     1       5.068   4.631  16.544  0.00  0.00    +0.000 A 
ATOM      7  C   UNL     1       5.108   3.925  15.338  0.00  0.00    +0.000 A 
ATOM      8  C   UNL     1       6.124   4.158  14.398  0.00  0.00    +0.000 A 
BRANCH   3  10
ATOM      9  C   UNL     1       7.859   5.350  12.435  0.00  0.00    +0.000 C 
ATOM     10  O   UNL     1       8.153   5.418  13.824  0.00  0.00    +0.000 OA
ENDBRANCH   3  10
ENDBRANCH   1   6
BRANCH   2  11
ATOM     11  C   UNL     1       3.051   3.193  19.320  0.00  0.00    +0.000 A 
ATOM     12  C   UNL     1       3.412   2.862  20.632  0.00  0.00    +0.000 A 
ATOM     13  C   UNL     1       2.428   2.664  21.603  0.00  0.00    +0.000 A 
ATOM     14  C   UNL     1       1.082   2.796  21.266  0.00  0.00    +0.000 A 
ATOM     15  C   UNL     1       0.715   3.134  19.962  0.00  0.00    +0.000 A 
ATOM     16  C   UNL     1       1.700   3.338  18.992  0.00  0.00    +0.000 A 
BRANCH  16  17
ATOM     17  O   UNL     1       1.332   3.681  17.719  0.00  0.00    +0.000 OA
ATOM     18  H   UNL     1       1.327   2.881  17.167  0.00  0.00    +0.000 HD
ENDBRANCH  16  17
ENDBRANCH   2  11
TORSDOF 4
ENDMDL
MODEL 7
REMARK VINA RESULT:      -6.4      1.199      1.656
REMARK  Name = 
REMARK  5 active torsions:
REMARK  status: ('A' for Active; 'I' for Inactive)
REMARK    1  A    between atoms: C_1  and  O_2
REMARK    2  A    between atoms: O_2  and  C_3
REMARK    3  A    between atoms: C_6  and  N_7
REMARK    4  A    between atoms: C_8  and  C_9
REMARK    5  A    between atoms: C_14  and  O_15
REMARK                            x       y       z     vdW  Elec       q    Type
REMARK                         _______ _______ _______ _____ _____    ______ ____
ROOT
ATOM      1  N   UNL     1       4.536   4.420  17.775  0.00  0.00    +0.000 NA
ATOM      2  C   UNL     1       3.935   3.294  18.005  0.00  0.00    +0.000 C 
ENDROOT
BRANCH   1   6
ATOM      3  C   UNL     1       6.926   4.825  14.314  0.00  0.00    +0.000 A 
ATOM      4  C   UNL     1       5.629   4.322  14.254  0.00  0.00    +0.000 A 
ATOM      5  C   UNL     1       4.862   4.206  15.418  0.00  0.00    +0.000 A 
ATOM      6  C   UNL     1       5.382   4.567  16.664  0.00  0.00    +0.000 A 
ATOM      7  C   UNL     1       6.680   5.084  16.713  0.00  0.00    +0.000 A 
ATOM      8  C   UNL     1       7.455   5.202  15.548  0.00  0.00    +0.000 A 
BRANCH   3  10
ATOM      9  C   UNL     1       7.056   4.055  12.082  0.00  0.00    +0.000 C 
ATOM     10  O   UNL     1       7.590   4.868  13.119  0.00  0.00    +0.000 OA
ENDBRANCH   3  10
ENDBRANCH   1   6
BRANCH   2  11
ATOM     11  C   UNL     1       2.999   3.148  19.143  0.00  0.00    +0.000 A 
ATOM     12  C   UNL     1       3.487   2.751  20.394  0.00  0.00    +0.000 A 
ATOM     13  C   UNL     1       2.617   2.617  21.478  0.00  0.00    +0.000 A 
ATOM     14  C   UNL     1       1.257   2.879  21.316  0.00  0.00    +0.000 A 
ATOM     15  C   UNL     1       0.765   3.284  20.073  0.00  0.00    +0.000 A 
ATOM     16  C   UNL     1       1.637   3.423  18.991  0.00  0.00    +0.000 A 
BRANCH  16  17
ATOM     17  O   UNL     1       1.148   3.832  17.779  0.00  0.00    +0.000 OA
ATOM     18  H   UNL     1       0.336   4.346  17.925  0.00  0.00    +0.000 HD
ENDBRANCH  16  17
ENDBRANCH   2  11
TORSDOF 4
ENDMDL
MODEL 8
REMARK VINA RESULT:      -6.4      1.393      1.782
REMARK  Name = 
REMARK  5 active torsions:
REMARK  status: ('A' for Active; 'I' for Inactive)
REMARK    1  A    between atoms: C_1  and  O_2
REMARK    2  A    between atoms: O_2  and  C_3
REMARK    3  A    between atoms: C_6  and  N_7
REMARK    4  A    between atoms: C_8  and  C_9
REMARK    5  A    between atoms: C_14  and  O_15
REMARK                            x       y       z     vdW  Elec       q    Type
REMARK                         _______ _______ _______ _____ _____    ______ ____
ROOT
ATOM      1  N   UNL     1       4.570   3.706  17.340  0.00  0.00    +0.000 NA
ATOM      2  C   UNL     1       3.430   4.295  17.531  0.00  0.00    +0.000 C 
ENDROOT
BRANCH   1   6
ATOM      3  C   UNL     1       7.294   5.082  14.417  0.00  0.00    +0.000 A 
ATOM      4  C   UNL     1       7.378   5.490  15.746  0.00  0.00    +0.000 A 
ATOM      5  C   UNL     1       6.464   5.011  16.690  0.00  0.00    +0.000 A 
ATOM      6  C   UNL     1       5.437   4.136  16.322  0.00  0.00    +0.000 A 
ATOM      7  C   UNL     1       5.370   3.722  14.989  0.00  0.00    +0.000 A 
ATOM      8  C   UNL     1       6.284   4.199  14.037  0.00  0.00    +0.000 A 
BRANCH   3  10
ATOM      9  C   UNL     1       7.947   5.530  12.189  0.00  0.00    +0.000 C 
ATOM     10  O   UNL     1       8.224   5.634  13.580  0.00  0.00    +0.000 OA
ENDBRANCH   3  10
ENDBRANCH   1   6
BRANCH   2  11
ATOM     11  C   UNL     1       2.535   3.883  18.637  0.00  0.00    +0.000 A 
ATOM     12  C   UNL     1       2.123   4.829  19.584  0.00  0.00    +0.000 A 
ATOM     13  C   UNL     1       1.272   4.456  20.626  0.00  0.00    +0.000 A 
ATOM     14  C   UNL     1       0.831   3.137  20.726  0.00  0.00    +0.000 A 
ATOM     15  C   UNL     1       1.230   2.190  19.780  0.00  0.00    +0.000 A 
ATOM     16  C   UNL     1       2.077   2.566  18.734  0.00  0.00    +0.000 A 
BRANCH  16  17
ATOM     17  O   UNL     1       2.454   1.634  17.805  0.00  0.00    +0.000 OA
ATOM     18  H   UNL     1       2.816   0.859  18.266  0.00  0.00    +0.000 HD
ENDBRANCH  16  17
ENDBRANCH   2  11
TORSDOF 4
ENDMDL
MODEL 9
REMARK VINA RESULT:      -6.3      5.950      8.457
REMARK  Name = 
REMARK  5 active torsions:
REMARK  status: ('A' for Active; 'I' for Inactive)
REMARK    1  A    between atoms: C_1  and  O_2
REMARK    2  A    between atoms: O_2  and  C_3
REMARK    3  A    between atoms: C_6  and  N_7
REMARK    4  A    between atoms: C_8  and  C_9
REMARK    5  A    between atoms: C_14  and  O_15
REMARK                            x       y       z     vdW  Elec       q    Type
REMARK                         _______ _______ _______ _____ _____    ______ ____
ROOT
ATOM      1  N   UNL     1       8.831   8.411  18.697  0.00  0.00    +0.000 NA
ATOM      2  C   UNL     1       8.634   9.664  18.427  0.00  0.00    +0.000 C 
ENDROOT
BRANCH   1   6
ATOM      3  C   UNL     1       6.121   5.365  17.586  0.00  0.00    +0.000 A 
ATOM      4  C   UNL     1       7.038   5.188  18.619  0.00  0.00    +0.000 A 
ATOM      5  C   UNL     1       7.918   6.219  18.966  0.00  0.00    +0.000 A 
ATOM      6  C   UNL     1       7.915   7.435  18.275  0.00  0.00    +0.000 A 
ATOM      7  C   UNL     1       6.980   7.607  17.249  0.00  0.00    +0.000 A 
ATOM      8  C   UNL     1       6.096   6.576  16.896  0.00  0.00    +0.000 A 
BRANCH   3  10
ATOM      9  C   UNL     1       4.445   3.886  18.358  0.00  0.00    +0.000 C 
ATOM     10  O   UNL     1       5.331   4.281  17.319  0.00  0.00    +0.000 OA
ENDBRANCH   3  10
ENDBRANCH   1   6
BRANCH   2  11
ATOM     11  C   UNL     1       9.623  10.694  18.821  0.00  0.00    +0.000 A 
ATOM     12  C   UNL     1      10.332  11.387  17.832  0.00  0.00    +0.000 A 
ATOM     13  C   UNL     1      11.261  12.367  18.189  0.00  0.00    +0.000 A 
ATOM     14  C   UNL     1      11.484  12.656  19.535  0.00  0.00    +0.000 A 
ATOM     15  C   UNL     1      10.775  11.974  20.526  0.00  0.00    +0.000 A 
ATOM     16  C   UNL     1       9.841  10.999  20.168  0.00  0.00    +0.000 A 
BRANCH  16  17
ATOM     17  O   UNL     1       9.142  10.344  21.145  0.00  0.00    +0.000 OA
ATOM     18  H   UNL     1       8.225  10.221  20.847  0.00  0.00    +0.000 HD
ENDBRANCH  16  17
ENDBRANCH   2  11
TORSDOF 4
ENDMDL
