MODEL 1
REMARK VINA RESULT:      -7.1      0.000      0.000
REMARK  Name = 
REMARK  14 active torsions:
REMARK  status: ('A' for Active; 'I' for Inactive)
REMARK    1  A    between atoms: C_1  and  C_2
REMARK    2  A    between atoms: C_2  and  N_3
REMARK    3  A    between atoms: C_5  and  C_6
REMARK    4  A    between atoms: C_6  and  C_7
REMARK    5  A    between atoms: C_16  and  S_17
REMARK    6  A    between atoms: S_17  and  C_18
REMARK    7  A    between atoms: C_18  and  C_19
REMARK    8  A    between atoms: C_19  and  C_20
REMARK    9  A    between atoms: C_20  and  C_21
REMARK   10  A    between atoms: C_21  and  C_22
REMARK   11  A    between atoms: C_22  and  C_23
REMARK   12  A    between atoms: C_23  and  C_24
REMARK   13  A    between atoms: C_24  and  C_25
REMARK   14  A    between atoms: C_25  and  C_27
REMARK                            x       y       z     vdW  Elec       q    Type
REMARK                         _______ _______ _______ _____ _____    ______ ____
ROOT
ATOM      1  S   UNL     1       0.935   8.921  17.811  0.00  0.00    +0.000 S 
ENDROOT
BRANCH   1   8
ATOM      2  N   UNL     1      -1.078  10.630  18.716  0.00  0.00    +0.000 N 
ATOM      3  C   UNL     1      -1.424  11.714  19.520  0.00  0.00    +0.000 A 
ATOM      4  C   UNL     1      -0.600  12.306  20.392  0.00  0.00    +0.000 A 
ATOM      5  C   UNL     1       0.760  11.725  20.497  0.00  0.00    +0.000 A 
ATOM      6  O   UNL     1       1.520  12.149  21.360  0.00  0.00    +0.000 OA
ATOM      7  N   UNL     1       1.124  10.742  19.616  0.00  0.00    +0.000 NA
ATOM      8  C   UNL     1       0.262  10.214  18.804  0.00  0.00    +0.000 A 
BRANCH   2  10
ATOM      9  C   UNL     1      -2.430  10.320  16.504  0.00  0.00    +0.000 C 
ATOM     10  C   UNL     1      -2.231  10.073  17.974  0.00  0.00    +0.000 C 
ENDBRANCH   2  10
BRANCH   4  11
ATOM     11  C   UNL     1      -1.026  13.394  21.320  0.00  0.00    +0.000 C 
BRANCH  11  12
ATOM     12  C   UNL     1      -2.322  13.135  22.027  0.00  0.00    +0.000 A 
ATOM     13  C   UNL     1      -2.429  12.233  23.070  0.00  0.00    +0.000 A 
ATOM     14  N   UNL     1      -3.555  12.034  23.780  0.00  0.00    +0.000 NA
ATOM     15  C   UNL     1      -4.609  12.780  23.417  0.00  0.00    +0.000 A 
ATOM     16  N   UNL     1      -4.639  13.661  22.407  0.00  0.00    +0.000 NA
ATOM     17  C   UNL     1      -3.484  13.820  21.730  0.00  0.00    +0.000 A 
ENDBRANCH  11  12
ENDBRANCH   4  11
ENDBRANCH   1   8
BRANCH   1  18
ATOM     18  C   UNL     1       2.272   8.206  18.851  0.00  0.00    +0.000 C 
BRANCH  18  19
ATOM     19  C   UNL     1       2.203   6.706  19.175  0.00  0.00    +0.000 C 
BRANCH  19  20
ATOM     20  C   UNL     1       1.816   6.386  20.621  0.00  0.00    +0.000 C 
BRANCH  20  21
ATOM     21  C   UNL     1       1.796   4.875  20.854  0.00  0.00    +0.000 C 
BRANCH  21  22
ATOM     22  C   UNL     1       1.256   4.114  19.645  0.00  0.00    +0.000 C 
BRANCH  22  23
ATOM     23  C   UNL     1       1.580   2.630  19.791  0.00  0.00    +0.000 C 
BRANCH  23  24
ATOM     24  C   UNL     1       2.864   2.246  19.069  0.00  0.00    +0.000 C 
BRANCH  24  25
ATOM     25  C   UNL     1       3.078   3.109  17.840  0.00  0.00    +0.000 C 
ATOM     26  O   UNL     1       2.377   3.019  16.832  0.00  0.00    +0.000 OA
BRANCH  25  27
ATOM     27  C   UNL     1       4.187   4.112  17.867  0.00  0.00    +0.000 A 
ATOM     28  C   UNL     1       4.470   4.936  16.769  0.00  0.00    +0.000 A 
ATOM     29  C   UNL     1       5.541   5.830  16.820  0.00  0.00    +0.000 A 
ATOM     30  C   UNL     1       6.327   5.909  17.969  0.00  0.00    +0.000 A 
ATOM     31 CL   UNL     1       7.662   6.990  18.016  0.00  0.00    +0.000 Cl
ATOM     32  C   UNL     1       6.041   5.111  19.075  0.00  0.00    +0.000 A 
ATOM     33  C   UNL     1       4.972   4.213  19.024  0.00  0.00    +0.000 A 
ENDBRANCH  25  27
ENDBRANCH  24  25
ENDBRANCH  23  24
ENDBRANCH  22  23
ENDBRANCH  21  22
ENDBRANCH  20  21
ENDBRANCH  19  20
ENDBRANCH  18  19
ENDBRANCH   1  18
TORSDOF 13
ENDMDL
MODEL 2
REMARK VINA RESULT:      -7.0      0.979      1.335
REMARK  Name = 
REMARK  14 active torsions:
REMARK  status: ('A' for Active; 'I' for Inactive)
REMARK    1  A    between atoms: C_1  and  C_2
REMARK    2  A    between atoms: C_2  and  N_3
REMARK    3  A    between atoms: C_5  and  C_6
REMARK    4  A    between atoms: C_6  and  C_7
REMARK    5  A    between atoms: C_16  and  S_17
REMARK    6  A    between atoms: S_17  and  C_18
REMARK    7  A    between atoms: C_18  and  C_19
REMARK    8  A    between atoms: C_19  and  C_20
REMARK    9  A    between atoms: C_20  and  C_21
REMARK   10  A    between atoms: C_21  and  C_22
REMARK   11  A    between atoms: C_22  and  C_23
REMARK   12  A    between atoms: C_23  and  C_24
REMARK   13  A    between atoms: C_24  and  C_25
REMARK   14  A    between atoms: C_25  and  C_27
REMARK                            x       y       z     vdW  Elec       q    Type
REMARK                         _______ _______ _______ _____ _____    ______ ____
ROOT
ATOM      1  S   UNL     1       0.605   9.796  18.159  0.00  0.00    +0.000 S 
ENDROOT
BRANCH   1   8
ATOM      2  N   UNL     1      -1.604  11.269  19.021  0.00  0.00    +0.000 N 
ATOM      3  C   UNL     1      -2.090  12.284  19.843  0.00  0.00    +0.000 A 
ATOM      4  C   UNL     1      -1.367  12.921  20.771  0.00  0.00    +0.000 A 
ATOM      5  C   UNL     1       0.039  12.471  20.921  0.00  0.00    +0.000 A 
ATOM      6  O   UNL     1       0.714  12.934  21.832  0.00  0.00    +0.000 OA
ATOM      7  N   UNL     1       0.535  11.560  20.028  0.00  0.00    +0.000 NA
ATOM      8  C   UNL     1      -0.234  10.981  19.160  0.00  0.00    +0.000 A 
BRANCH   2  10
ATOM      9  C   UNL     1      -3.487  11.406  17.219  0.00  0.00    +0.000 C 
ATOM     10  C   UNL     1      -2.662  10.630  18.209  0.00  0.00    +0.000 C 
ENDBRANCH   2  10
BRANCH   4  11
ATOM     11  C   UNL     1      -1.937  13.928  21.711  0.00  0.00    +0.000 C 
BRANCH  11  12
ATOM     12  C   UNL     1      -3.154  13.465  22.454  0.00  0.00    +0.000 A 
ATOM     13  C   UNL     1      -3.107  12.452  23.394  0.00  0.00    +0.000 A 
ATOM     14  N   UNL     1      -4.160  12.065  24.138  0.00  0.00    +0.000 NA
ATOM     15  C   UNL     1      -5.301  12.733  23.917  0.00  0.00    +0.000 A 
ATOM     16  N   UNL     1      -5.481  13.708  23.015  0.00  0.00    +0.000 NA
ATOM     17  C   UNL     1      -4.394  14.054  22.298  0.00  0.00    +0.000 A 
ENDBRANCH  11  12
ENDBRANCH   4  11
ENDBRANCH   1   8
BRANCH   1  18
ATOM     18  C   UNL     1       1.490   8.732  19.370  0.00  0.00    +0.000 C 
BRANCH  18  19
ATOM     19  C   UNL     1       2.382   7.609  18.820  0.00  0.00    +0.000 C 
BRANCH  19  20
ATOM     20  C   UNL     1       2.573   6.426  19.772  0.00  0.00    +0.000 C 
BRANCH  20  21
ATOM     21  C   UNL     1       1.549   5.328  19.484  0.00  0.00    +0.000 C 
BRANCH  21  22
ATOM     22  C   UNL     1       1.454   4.318  20.626  0.00  0.00    +0.000 C 
BRANCH  22  23
ATOM     23  C   UNL     1       1.485   2.902  20.058  0.00  0.00    +0.000 C 
BRANCH  23  24
ATOM     24  C   UNL     1       1.765   2.887  18.562  0.00  0.00    +0.000 C 
BRANCH  24  25
ATOM     25  C   UNL     1       3.208   2.513  18.279  0.00  0.00    +0.000 C 
ATOM     26  O   UNL     1       3.590   1.346  18.194  0.00  0.00    +0.000 OA
BRANCH  25  27
ATOM     27  C   UNL     1       4.198   3.618  18.090  0.00  0.00    +0.000 A 
ATOM     28  C   UNL     1       5.104   3.983  19.096  0.00  0.00    +0.000 A 
ATOM     29  C   UNL     1       5.984   5.048  18.894  0.00  0.00    +0.000 A 
ATOM     30  C   UNL     1       5.967   5.745  17.687  0.00  0.00    +0.000 A 
ATOM     31 CL   UNL     1       7.033   7.074  17.456  0.00  0.00    +0.000 Cl
ATOM     32  C   UNL     1       5.087   5.376  16.672  0.00  0.00    +0.000 A 
ATOM     33  C   UNL     1       4.203   4.313  16.872  0.00  0.00    +0.000 A 
ENDBRANCH  25  27
ENDBRANCH  24  25
ENDBRANCH  23  24
ENDBRANCH  22  23
ENDBRANCH  21  22
ENDBRANCH  20  21
ENDBRANCH  19  20
ENDBRANCH  18  19
ENDBRANCH   1  18
TORSDOF 13
ENDMDL
MODEL 3
REMARK VINA RESULT:      -7.0      1.729      2.154
REMARK  Name = 
REMARK  14 active torsions:
REMARK  status: ('A' for Active; 'I' for Inactive)
REMARK    1  A    between atoms: C_1  and  C_2
REMARK    2  A    between atoms: C_2  and  N_3
REMARK    3  A    between atoms: C_5  and  C_6
REMARK    4  A    between atoms: C_6  and  C_7
REMARK    5  A    between atoms: C_16  and  S_17
REMARK    6  A    between atoms: S_17  and  C_18
REMARK    7  A    between atoms: C_18  and  C_19
REMARK    8  A    between atoms: C_19  and  C_20
REMARK    9  A    between atoms: C_20  and  C_21
REMARK   10  A    between atoms: C_21  and  C_22
REMARK   11  A    between atoms: C_22  and  C_23
REMARK   12  A    between atoms: C_23  and  C_24
REMARK   13  A    between atoms: C_24  and  C_25
REMARK   14  A    between atoms: C_25  and  C_27
REMARK                            x       y       z     vdW  Elec       q    Type
REMARK                         _______ _______ _______ _____ _____    ______ ____
ROOT
ATOM      1  S   UNL     1       1.624   8.738  19.245  0.00  0.00    +0.000 S 
ENDROOT
BRANCH   1   8
ATOM      2  N   UNL     1      -0.445  10.547  19.732  0.00  0.00    +0.000 N 
ATOM      3  C   UNL     1      -1.159  11.289  20.671  0.00  0.00    +0.000 A 
ATOM      4  C   UNL     1      -1.009  11.183  21.996  0.00  0.00    +0.000 A 
ATOM      5  C   UNL     1      -0.019  10.180  22.459  0.00  0.00    +0.000 A 
ATOM      6  O   UNL     1       0.078   9.955  23.660  0.00  0.00    +0.000 OA
ATOM      7  N   UNL     1       0.759   9.548  21.527  0.00  0.00    +0.000 NA
ATOM      8  C   UNL     1       0.545   9.699  20.258  0.00  0.00    +0.000 A 
BRANCH   2  10
ATOM      9  C   UNL     1      -1.741  11.951  17.953  0.00  0.00    +0.000 C 
ATOM     10  C   UNL     1      -0.934  10.745  18.350  0.00  0.00    +0.000 C 
ENDBRANCH   2  10
BRANCH   4  11
ATOM     11  C   UNL     1      -1.860  11.909  22.983  0.00  0.00    +0.000 C 
BRANCH  11  12
ATOM     12  C   UNL     1      -1.873  13.398  22.814  0.00  0.00    +0.000 A 
ATOM     13  C   UNL     1      -0.765  14.183  23.072  0.00  0.00    +0.000 A 
ATOM     14  N   UNL     1      -0.714  15.511  22.856  0.00  0.00    +0.000 NA
ATOM     15  C   UNL     1      -1.833  16.059  22.358  0.00  0.00    +0.000 A 
ATOM     16  N   UNL     1      -2.978  15.412  22.097  0.00  0.00    +0.000 NA
ATOM     17  C   UNL     1      -2.971  14.085  22.333  0.00  0.00    +0.000 A 
ENDBRANCH  11  12
ENDBRANCH   4  11
ENDBRANCH   1   8
BRANCH   1  18
ATOM     18  C   UNL     1       2.146   7.352  20.336  0.00  0.00    +0.000 C 
BRANCH  18  19
ATOM     19  C   UNL     1       2.148   5.935  19.742  0.00  0.00    +0.000 C 
BRANCH  19  20
ATOM     20  C   UNL     1       1.268   4.932  20.492  0.00  0.00    +0.000 C 
BRANCH  20  21
ATOM     21  C   UNL     1       2.125   3.965  21.309  0.00  0.00    +0.000 C 
BRANCH  21  22
ATOM     22  C   UNL     1       2.199   2.581  20.667  0.00  0.00    +0.000 C 
BRANCH  22  23
ATOM     23  C   UNL     1       1.157   2.479  19.555  0.00  0.00    +0.000 C 
BRANCH  23  24
ATOM     24  C   UNL     1       1.782   2.551  18.170  0.00  0.00    +0.000 C 
BRANCH  24  25
ATOM     25  C   UNL     1       3.275   2.285  18.229  0.00  0.00    +0.000 C 
ATOM     26  O   UNL     1       3.745   1.163  18.421  0.00  0.00    +0.000 OA
BRANCH  25  27
ATOM     27  C   UNL     1       4.206   3.439  18.038  0.00  0.00    +0.000 A 
ATOM     28  C   UNL     1       5.068   3.875  19.054  0.00  0.00    +0.000 A 
ATOM     29  C   UNL     1       5.891   4.984  18.848  0.00  0.00    +0.000 A 
ATOM     30  C   UNL     1       5.861   5.655  17.627  0.00  0.00    +0.000 A 
ATOM     31 CL   UNL     1       6.855   7.037  17.390  0.00  0.00    +0.000 Cl
ATOM     32  C   UNL     1       5.025   5.217  16.601  0.00  0.00    +0.000 A 
ATOM     33  C   UNL     1       4.198   4.110  16.806  0.00  0.00    +0.000 A 
ENDBRANCH  25  27
ENDBRANCH  24  25
ENDBRANCH  23  24
ENDBRANCH  22  23
ENDBRANCH  21  22
ENDBRANCH  20  21
ENDBRANCH  19  20
ENDBRANCH  18  19
ENDBRANCH   1  18
TORSDOF 13
ENDMDL
MODEL 4
REMARK VINA RESULT:      -6.9      2.556      3.996
REMARK  Name = 
REMARK  14 active torsions:
REMARK  status: ('A' for Active; 'I' for Inactive)
REMARK    1  A    between atoms: C_1  and  C_2
REMARK    2  A    between atoms: C_2  and  N_3
REMARK    3  A    between atoms: C_5  and  C_6
REMARK    4  A    between atoms: C_6  and  C_7
REMARK    5  A    between atoms: C_16  and  S_17
REMARK    6  A    between atoms: S_17  and  C_18
REMARK    7  A    between atoms: C_18  and  C_19
REMARK    8  A    between atoms: C_19  and  C_20
REMARK    9  A    between atoms: C_20  and  C_21
REMARK   10  A    between atoms: C_21  and  C_22
REMARK   11  A    between atoms: C_22  and  C_23
REMARK   12  A    between atoms: C_23  and  C_24
REMARK   13  A    between atoms: C_24  and  C_25
REMARK   14  A    between atoms: C_25  and  C_27
REMARK                            x       y       z     vdW  Elec       q    Type
REMARK                         _______ _______ _______ _____ _____    ______ ____
ROOT
ATOM      1  S   UNL     1       0.040   8.908  21.261  0.00  0.00    +0.000 S 
ENDROOT
BRANCH   1   8
ATOM      2  N   UNL     1      -0.063  10.800  19.212  0.00  0.00    +0.000 N 
ATOM      3  C   UNL     1       0.183  12.112  18.812  0.00  0.00    +0.000 A 
ATOM      4  C   UNL     1       0.566  13.097  19.632  0.00  0.00    +0.000 A 
ATOM      5  C   UNL     1       0.707  12.732  21.063  0.00  0.00    +0.000 A 
ATOM      6  O   UNL     1       0.941  13.616  21.879  0.00  0.00    +0.000 OA
ATOM      7  N   UNL     1       0.581  11.417  21.420  0.00  0.00    +0.000 NA
ATOM      8  C   UNL     1       0.198  10.521  20.565  0.00  0.00    +0.000 A 
BRANCH   2  10
ATOM      9  C   UNL     1      -2.049  10.144  17.650  0.00  0.00    +0.000 C 
ATOM     10  C   UNL     1      -0.635   9.968  18.131  0.00  0.00    +0.000 C 
ENDBRANCH   2  10
BRANCH   4  11
ATOM     11  C   UNL     1       0.719  14.517  19.201  0.00  0.00    +0.000 C 
BRANCH  11  12
ATOM     12  C   UNL     1       2.095  14.878  18.729  0.00  0.00    +0.000 A 
ATOM     13  C   UNL     1       3.123  13.955  18.669  0.00  0.00    +0.000 A 
ATOM     14  N   UNL     1       4.347  14.222  18.176  0.00  0.00    +0.000 NA
ATOM     15  C   UNL     1       4.531  15.473  17.728  0.00  0.00    +0.000 A 
ATOM     16  N   UNL     1       3.626  16.462  17.762  0.00  0.00    +0.000 NA
ATOM     17  C   UNL     1       2.419  16.138  18.265  0.00  0.00    +0.000 A 
ENDBRANCH  11  12
ENDBRANCH   4  11
ENDBRANCH   1   8
BRANCH   1  18
ATOM     18  C   UNL     1       1.556   8.029  20.705  0.00  0.00    +0.000 C 
BRANCH  18  19
ATOM     19  C   UNL     1       1.435   6.535  20.366  0.00  0.00    +0.000 C 
BRANCH  19  20
ATOM     20  C   UNL     1       2.509   5.651  21.002  0.00  0.00    +0.000 C 
BRANCH  20  21
ATOM     21  C   UNL     1       2.147   4.172  20.861  0.00  0.00    +0.000 C 
BRANCH  21  22
ATOM     22  C   UNL     1       0.840   3.972  20.095  0.00  0.00    +0.000 C 
BRANCH  22  23
ATOM     23  C   UNL     1       1.091   3.073  18.887  0.00  0.00    +0.000 C 
BRANCH  23  24
ATOM     24  C   UNL     1       1.839   3.796  17.775  0.00  0.00    +0.000 C 
BRANCH  24  25
ATOM     25  C   UNL     1       3.306   3.409  17.762  0.00  0.00    +0.000 C 
ATOM     26  O   UNL     1       3.686   2.238  17.766  0.00  0.00    +0.000 OA
BRANCH  25  27
ATOM     27  C   UNL     1       4.324   4.503  17.734  0.00  0.00    +0.000 A 
ATOM     28  C   UNL     1       4.006   5.803  17.313  0.00  0.00    +0.000 A 
ATOM     29  C   UNL     1       4.997   6.786  17.262  0.00  0.00    +0.000 A 
ATOM     30  C   UNL     1       6.303   6.477  17.639  0.00  0.00    +0.000 A 
ATOM     31 CL   UNL     1       7.524   7.683  17.547  0.00  0.00    +0.000 Cl
ATOM     32  C   UNL     1       6.625   5.195  18.082  0.00  0.00    +0.000 A 
ATOM     33  C   UNL     1       5.637   4.209  18.130  0.00  0.00    +0.000 A 
ENDBRANCH  25  27
ENDBRANCH  24  25
ENDBRANCH  23  24
ENDBRANCH  22  23
ENDBRANCH  21  22
ENDBRANCH  20  21
ENDBRANCH  19  20
ENDBRANCH  18  19
ENDBRANCH   1  18
TORSDOF 13
ENDMDL
MODEL 5
REMARK VINA RESULT:      -6.9      1.648      2.262
REMARK  Name = 
REMARK  14 active torsions:
REMARK  status: ('A' for Active; 'I' for Inactive)
REMARK    1  A    between atoms: C_1  and  C_2
REMARK    2  A    between atoms: C_2  and  N_3
REMARK    3  A    between atoms: C_5  and  C_6
REMARK    4  A    between atoms: C_6  and  C_7
REMARK    5  A    between atoms: C_16  and  S_17
REMARK    6  A    between atoms: S_17  and  C_18
REMARK    7  A    between atoms: C_18  and  C_19
REMARK    8  A    between atoms: C_19  and  C_20
REMARK    9  A    between atoms: C_20  and  C_21
REMARK   10  A    between atoms: C_21  and  C_22
REMARK   11  A    between atoms: C_22  and  C_23
REMARK   12  A    between atoms: C_23  and  C_24
REMARK   13  A    between atoms: C_24  and  C_25
REMARK   14  A    between atoms: C_25  and  C_27
REMARK                            x       y       z     vdW  Elec       q    Type
REMARK                         _______ _______ _______ _____ _____    ______ ____
ROOT
ATOM      1  S   UNL     1       1.876   7.501  19.758  0.00  0.00    +0.000 S 
ENDROOT
BRANCH   1   8
ATOM      2  N   UNL     1       0.500   9.929  19.776  0.00  0.00    +0.000 N 
ATOM      3  C   UNL     1      -0.040  10.967  20.532  0.00  0.00    +0.000 A 
ATOM      4  C   UNL     1      -0.117  10.973  21.868  0.00  0.00    +0.000 A 
ATOM      5  C   UNL     1       0.400   9.763  22.553  0.00  0.00    +0.000 A 
ATOM      6  O   UNL     1       0.250   9.659  23.765  0.00  0.00    +0.000 OA
ATOM      7  N   UNL     1       1.036   8.808  21.807  0.00  0.00    +0.000 NA
ATOM      8  C   UNL     1       1.061   8.872  20.512  0.00  0.00    +0.000 A 
BRANCH   2  10
ATOM      9  C   UNL     1      -1.056  10.008  17.682  0.00  0.00    +0.000 C 
ATOM     10  C   UNL     1       0.301  10.114  18.322  0.00  0.00    +0.000 C 
ENDBRANCH   2  10
BRANCH   4  11
ATOM     11  C   UNL     1      -0.796  12.045  22.650  0.00  0.00    +0.000 C 
BRANCH  11  12
ATOM     12  C   UNL     1      -2.199  12.339  22.212  0.00  0.00    +0.000 A 
ATOM     13  C   UNL     1      -2.514  12.670  20.906  0.00  0.00    +0.000 A 
ATOM     14  N   UNL     1      -3.769  12.861  20.459  0.00  0.00    +0.000 NA
ATOM     15  C   UNL     1      -4.739  12.710  21.373  0.00  0.00    +0.000 A 
ATOM     16  N   UNL     1      -4.560  12.424  22.670  0.00  0.00    +0.000 NA
ATOM     17  C   UNL     1      -3.283  12.244  23.063  0.00  0.00    +0.000 A 
ENDBRANCH  11  12
ENDBRANCH   4  11
ENDBRANCH   1   8
BRANCH   1  18
ATOM     18  C   UNL     1       1.697   6.142  20.984  0.00  0.00    +0.000 C 
BRANCH  18  19
ATOM     19  C   UNL     1       1.235   4.770  20.471  0.00  0.00    +0.000 C 
BRANCH  19  20
ATOM     20  C   UNL     1       1.958   3.579  21.105  0.00  0.00    +0.000 C 
BRANCH  20  21
ATOM     21  C   UNL     1       2.657   2.739  20.036  0.00  0.00    +0.000 C 
BRANCH  21  22
ATOM     22  C   UNL     1       1.711   2.351  18.901  0.00  0.00    +0.000 C 
BRANCH  22  23
ATOM     23  C   UNL     1       2.398   2.596  17.560  0.00  0.00    +0.000 C 
BRANCH  23  24
ATOM     24  C   UNL     1       3.046   3.971  17.486  0.00  0.00    +0.000 C 
BRANCH  24  25
ATOM     25  C   UNL     1       4.485   3.873  17.015  0.00  0.00    +0.000 C 
ATOM     26  O   UNL     1       4.917   2.904  16.392  0.00  0.00    +0.000 OA
BRANCH  25  27
ATOM     27  C   UNL     1       5.406   5.011  17.319  0.00  0.00    +0.000 A 
ATOM     28  C   UNL     1       5.130   6.321  16.902  0.00  0.00    +0.000 A 
ATOM     29  C   UNL     1       6.037   7.348  17.171  0.00  0.00    +0.000 A 
ATOM     30  C   UNL     1       7.217   7.071  17.861  0.00  0.00    +0.000 A 
ATOM     31 CL   UNL     1       8.343   8.334  18.163  0.00  0.00    +0.000 Cl
ATOM     32  C   UNL     1       7.490   5.777  18.300  0.00  0.00    +0.000 A 
ATOM     33  C   UNL     1       6.585   4.748  18.030  0.00  0.00    +0.000 A 
ENDBRANCH  25  27
ENDBRANCH  24  25
ENDBRANCH  23  24
ENDBRANCH  22  23
ENDBRANCH  21  22
ENDBRANCH  20  21
ENDBRANCH  19  20
ENDBRANCH  18  19
ENDBRANCH   1  18
TORSDOF 13
ENDMDL
MODEL 6
REMARK VINA RESULT:      -6.9      2.958      3.781
REMARK  Name = 
REMARK  14 active torsions:
REMARK  status: ('A' for Active; 'I' for Inactive)
REMARK    1  A    between atoms: C_1  and  C_2
REMARK    2  A    between atoms: C_2  and  N_3
REMARK    3  A    between atoms: C_5  and  C_6
REMARK    4  A    between atoms: C_6  and  C_7
REMARK    5  A    between atoms: C_16  and  S_17
REMARK    6  A    between atoms: S_17  and  C_18
REMARK    7  A    between atoms: C_18  and  C_19
REMARK    8  A    between atoms: C_19  and  C_20
REMARK    9  A    between atoms: C_20  and  C_21
REMARK   10  A    between atoms: C_21  and  C_22
REMARK   11  A    between atoms: C_22  and  C_23
REMARK   12  A    between atoms: C_23  and  C_24
REMARK   13  A    between atoms: C_24  and  C_25
REMARK   14  A    between atoms: C_25  and  C_27
REMARK                            x       y       z     vdW  Elec       q    Type
REMARK                         _______ _______ _______ _____ _____    ______ ____
ROOT
ATOM      1  S   UNL     1       1.533   9.860  18.113  0.00  0.00    +0.000 S 
ENDROOT
BRANCH   1   8
ATOM      2  N   UNL     1      -0.186  11.976  18.712  0.00  0.00    +0.000 N 
ATOM      3  C   UNL     1      -0.317  13.308  19.102  0.00  0.00    +0.000 A 
ATOM      4  C   UNL     1       0.698  14.089  19.488  0.00  0.00    +0.000 A 
ATOM      5  C   UNL     1       2.037  13.451  19.511  0.00  0.00    +0.000 A 
ATOM      6  O   UNL     1       2.984  14.080  19.967  0.00  0.00    +0.000 OA
ATOM      7  N   UNL     1       2.168  12.184  19.012  0.00  0.00    +0.000 NA
ATOM      8  C   UNL     1       1.132  11.487  18.663  0.00  0.00    +0.000 A 
BRANCH   2  10
ATOM      9  C   UNL     1      -2.150  11.258  17.151  0.00  0.00    +0.000 C 
ATOM     10  C   UNL     1      -1.488  11.308  18.500  0.00  0.00    +0.000 C 
ENDBRANCH   2  10
BRANCH   4  11
ATOM     11  C   UNL     1       0.519  15.477  20.003  0.00  0.00    +0.000 C 
BRANCH  11  12
ATOM     12  C   UNL     1       0.536  16.539  18.945  0.00  0.00    +0.000 A 
ATOM     13  C   UNL     1       1.712  17.057  18.434  0.00  0.00    +0.000 A 
ATOM     14  N   UNL     1       1.768  17.951  17.429  0.00  0.00    +0.000 NA
ATOM     15  C   UNL     1       0.585  18.331  16.926  0.00  0.00    +0.000 A 
ATOM     16  N   UNL     1      -0.619  17.927  17.356  0.00  0.00    +0.000 NA
ATOM     17  C   UNL     1      -0.616  17.033  18.364  0.00  0.00    +0.000 A 
ENDBRANCH  11  12
ENDBRANCH   4  11
ENDBRANCH   1   8
BRANCH   1  18
ATOM     18  C   UNL     1       1.015   8.775  19.506  0.00  0.00    +0.000 C 
BRANCH  18  19
ATOM     19  C   UNL     1       2.080   7.870  20.143  0.00  0.00    +0.000 C 
BRANCH  19  20
ATOM     20  C   UNL     1       2.103   6.439  19.601  0.00  0.00    +0.000 C 
BRANCH  20  21
ATOM     21  C   UNL     1       1.928   5.428  20.734  0.00  0.00    +0.000 C 
BRANCH  21  22
ATOM     22  C   UNL     1       0.908   4.346  20.385  0.00  0.00    +0.000 C 
BRANCH  22  23
ATOM     23  C   UNL     1       1.629   3.018  20.164  0.00  0.00    +0.000 C 
BRANCH  23  24
ATOM     24  C   UNL     1       1.781   2.684  18.687  0.00  0.00    +0.000 C 
BRANCH  24  25
ATOM     25  C   UNL     1       3.231   2.403  18.336  0.00  0.00    +0.000 C 
ATOM     26  O   UNL     1       3.680   1.262  18.225  0.00  0.00    +0.000 OA
BRANCH  25  27
ATOM     27  C   UNL     1       4.141   3.568  18.111  0.00  0.00    +0.000 A 
ATOM     28  C   UNL     1       4.953   4.084  19.131  0.00  0.00    +0.000 A 
ATOM     29  C   UNL     1       5.757   5.199  18.891  0.00  0.00    +0.000 A 
ATOM     30  C   UNL     1       5.759   5.797  17.632  0.00  0.00    +0.000 A 
ATOM     31 CL   UNL     1       6.729   7.188  17.351  0.00  0.00    +0.000 Cl
ATOM     32  C   UNL     1       4.974   5.279  16.604  0.00  0.00    +0.000 A 
ATOM     33  C   UNL     1       4.166   4.165  16.843  0.00  0.00    +0.000 A 
ENDBRANCH  25  27
ENDBRANCH  24  25
ENDBRANCH  23  24
ENDBRANCH  22  23
ENDBRANCH  21  22
ENDBRANCH  20  21
ENDBRANCH  19  20
ENDBRANCH  18  19
ENDBRANCH   1  18
TORSDOF 13
ENDMDL
MODEL 7
REMARK VINA RESULT:      -6.8      1.181      1.280
REMARK  Name = 
REMARK  14 active torsions:
REMARK  status: ('A' for Active; 'I' for Inactive)
REMARK    1  A    between atoms: C_1  and  C_2
REMARK    2  A    between atoms: C_2  and  N_3
REMARK    3  A    between atoms: C_5  and  C_6
REMARK    4  A    between atoms: C_6  and  C_7
REMARK    5  A    between atoms: C_16  and  S_17
REMARK    6  A    between atoms: S_17  and  C_18
REMARK    7  A    between atoms: C_18  and  C_19
REMARK    8  A    between atoms: C_19  and  C_20
REMARK    9  A    between atoms: C_20  and  C_21
REMARK   10  A    between atoms: C_21  and  C_22
REMARK   11  A    between atoms: C_22  and  C_23
REMARK   12  A    between atoms: C_23  and  C_24
REMARK   13  A    between atoms: C_24  and  C_25
REMARK   14  A    between atoms: C_25  and  C_27
REMARK                            x       y       z     vdW  Elec       q    Type
REMARK                         _______ _______ _______ _____ _____    ______ ____
ROOT
ATOM      1  S   UNL     1       2.023   9.910  18.029  0.00  0.00    +0.000 S 
ENDROOT
BRANCH   1   8
ATOM      2  N   UNL     1      -0.572  10.833  18.484  0.00  0.00    +0.000 N 
ATOM      3  C   UNL     1      -1.403  11.694  19.196  0.00  0.00    +0.000 A 
ATOM      4  C   UNL     1      -1.008  12.455  20.223  0.00  0.00    +0.000 A 
ATOM      5  C   UNL     1       0.417  12.326  20.615  0.00  0.00    +0.000 A 
ATOM      6  O   UNL     1       0.809  12.908  21.620  0.00  0.00    +0.000 OA
ATOM      7  N   UNL     1       1.247  11.571  19.833  0.00  0.00    +0.000 NA
ATOM      8  C   UNL     1       0.784  10.855  18.856  0.00  0.00    +0.000 A 
BRANCH   2  10
ATOM      9  C   UNL     1      -2.481  10.518  16.733  0.00  0.00    +0.000 C 
ATOM     10  C   UNL     1      -1.308   9.993  17.514  0.00  0.00    +0.000 C 
ENDBRANCH   2  10
BRANCH   4  11
ATOM     11  C   UNL     1      -1.939  13.288  21.038  0.00  0.00    +0.000 C 
BRANCH  11  12
ATOM     12  C   UNL     1      -3.372  12.852  20.982  0.00  0.00    +0.000 A 
ATOM     13  C   UNL     1      -4.122  12.624  22.122  0.00  0.00    +0.000 A 
ATOM     14  N   UNL     1      -5.431  12.311  22.112  0.00  0.00    +0.000 NA
ATOM     15  C   UNL     1      -5.997  12.227  20.899  0.00  0.00    +0.000 A 
ATOM     16  N   UNL     1      -5.371  12.392  19.725  0.00  0.00    +0.000 NA
ATOM     17  C   UNL     1      -4.062  12.704  19.795  0.00  0.00    +0.000 A 
ENDBRANCH  11  12
ENDBRANCH   4  11
ENDBRANCH   1   8
BRANCH   1  18
ATOM     18  C   UNL     1       1.556   8.164  18.368  0.00  0.00    +0.000 C 
BRANCH  18  19
ATOM     19  C   UNL     1       2.457   7.351  19.310  0.00  0.00    +0.000 C 
BRANCH  19  20
ATOM     20  C   UNL     1       1.724   6.705  20.487  0.00  0.00    +0.000 C 
BRANCH  20  21
ATOM     21  C   UNL     1       2.171   5.255  20.673  0.00  0.00    +0.000 C 
BRANCH  21  22
ATOM     22  C   UNL     1       1.008   4.273  20.534  0.00  0.00    +0.000 C 
BRANCH  22  23
ATOM     23  C   UNL     1       1.438   3.095  19.663  0.00  0.00    +0.000 C 
BRANCH  23  24
ATOM     24  C   UNL     1       1.821   3.528  18.255  0.00  0.00    +0.000 C 
BRANCH  24  25
ATOM     25  C   UNL     1       3.252   3.136  17.933  0.00  0.00    +0.000 C 
ATOM     26  O   UNL     1       3.590   1.974  17.710  0.00  0.00    +0.000 OA
BRANCH  25  27
ATOM     27  C   UNL     1       4.284   4.216  17.879  0.00  0.00    +0.000 A 
ATOM     28  C   UNL     1       4.359   5.120  16.810  0.00  0.00    +0.000 A 
ATOM     29  C   UNL     1       5.365   6.088  16.778  0.00  0.00    +0.000 A 
ATOM     30  C   UNL     1       6.293   6.161  17.816  0.00  0.00    +0.000 A 
ATOM     31 CL   UNL     1       7.546   7.335  17.756  0.00  0.00    +0.000 Cl
ATOM     32  C   UNL     1       6.214   5.283  18.895  0.00  0.00    +0.000 A 
ATOM     33  C   UNL     1       5.210   4.311  18.927  0.00  0.00    +0.000 A 
ENDBRANCH  25  27
ENDBRANCH  24  25
ENDBRANCH  23  24
ENDBRANCH  22  23
ENDBRANCH  21  22
ENDBRANCH  20  21
ENDBRANCH  19  20
ENDBRANCH  18  19
ENDBRANCH   1  18
TORSDOF 13
ENDMDL
MODEL 8
REMARK VINA RESULT:      -6.7      2.712      3.690
REMARK  Name = 
REMARK  14 active torsions:
REMARK  status: ('A' for Active; 'I' for Inactive)
REMARK    1  A    between atoms: C_1  and  C_2
REMARK    2  A    between atoms: C_2  and  N_3
REMARK    3  A    between atoms: C_5  and  C_6
REMARK    4  A    between atoms: C_6  and  C_7
REMARK    5  A    between atoms: C_16  and  S_17
REMARK    6  A    between atoms: S_17  and  C_18
REMARK    7  A    between atoms: C_18  and  C_19
REMARK    8  A    between atoms: C_19  and  C_20
REMARK    9  A    between atoms: C_20  and  C_21
REMARK   10  A    between atoms: C_21  and  C_22
REMARK   11  A    between atoms: C_22  and  C_23
REMARK   12  A    between atoms: C_23  and  C_24
REMARK   13  A    between atoms: C_24  and  C_25
REMARK   14  A    between atoms: C_25  and  C_27
REMARK                            x       y       z     vdW  Elec       q    Type
REMARK                         _______ _______ _______ _____ _____    ______ ____
ROOT
ATOM      1  S   UNL     1       1.122   9.235  17.954  0.00  0.00    +0.000 S 
ENDROOT
BRANCH   1   8
ATOM      2  N   UNL     1       0.532  11.175  19.872  0.00  0.00    +0.000 N 
ATOM      3  C   UNL     1       0.720  12.482  20.316  0.00  0.00    +0.000 A 
ATOM      4  C   UNL     1       1.591  13.347  19.783  0.00  0.00    +0.000 A 
ATOM      5  C   UNL     1       2.409  12.834  18.658  0.00  0.00    +0.000 A 
ATOM      6  O   UNL     1       3.303  13.540  18.206  0.00  0.00    +0.000 OA
ATOM      7  N   UNL     1       2.129  11.592  18.155  0.00  0.00    +0.000 NA
ATOM      8  C   UNL     1       1.273  10.809  18.735  0.00  0.00    +0.000 A 
BRANCH   2  10
ATOM      9  C   UNL     1      -0.174  10.331  22.239  0.00  0.00    +0.000 C 
ATOM     10  C   UNL     1      -0.367  10.394  20.749  0.00  0.00    +0.000 C 
ENDBRANCH   2  10
BRANCH   4  11
ATOM     11  C   UNL     1       1.851  14.704  20.343  0.00  0.00    +0.000 C 
BRANCH  11  12
ATOM     12  C   UNL     1       1.391  15.835  19.473  0.00  0.00    +0.000 A 
ATOM     13  C   UNL     1       2.236  16.853  19.072  0.00  0.00    +0.000 A 
ATOM     14  N   UNL     1       1.881  17.839  18.227  0.00  0.00    +0.000 NA
ATOM     15  C   UNL     1       0.620  17.785  17.773  0.00  0.00    +0.000 A 
ATOM     16  N   UNL     1      -0.301  16.872  18.111  0.00  0.00    +0.000 NA
ATOM     17  C   UNL     1       0.110  15.909  18.960  0.00  0.00    +0.000 A 
ENDBRANCH  11  12
ENDBRANCH   4  11
ENDBRANCH   1   8
BRANCH   1  18
ATOM     18  C   UNL     1       2.352   8.182  18.827  0.00  0.00    +0.000 C 
BRANCH  18  19
ATOM     19  C   UNL     1       1.892   7.442  20.092  0.00  0.00    +0.000 C 
BRANCH  19  20
ATOM     20  C   UNL     1       2.435   6.018  20.228  0.00  0.00    +0.000 C 
BRANCH  20  21
ATOM     21  C   UNL     1       1.324   5.051  20.638  0.00  0.00    +0.000 C 
BRANCH  21  22
ATOM     22  C   UNL     1       1.148   3.917  19.630  0.00  0.00    +0.000 C 
BRANCH  22  23
ATOM     23  C   UNL     1       1.668   2.614  20.234  0.00  0.00    +0.000 C 
BRANCH  23  24
ATOM     24  C   UNL     1       3.131   2.366  19.898  0.00  0.00    +0.000 C 
BRANCH  24  25
ATOM     25  C   UNL     1       3.426   2.709  18.449  0.00  0.00    +0.000 C 
ATOM     26  O   UNL     1       2.955   2.075  17.505  0.00  0.00    +0.000 OA
BRANCH  25  27
ATOM     27  C   UNL     1       4.321   3.874  18.168  0.00  0.00    +0.000 A 
ATOM     28  C   UNL     1       4.229   4.612  16.979  0.00  0.00    +0.000 A 
ATOM     29  C   UNL     1       5.112   5.666  16.738  0.00  0.00    +0.000 A 
ATOM     30  C   UNL     1       6.083   5.990  17.684  0.00  0.00    +0.000 A 
ATOM     31 CL   UNL     1       7.186   7.270  17.368  0.00  0.00    +0.000 Cl
ATOM     32  C   UNL     1       6.169   5.279  18.879  0.00  0.00    +0.000 A 
ATOM     33  C   UNL     1       5.288   4.221  19.121  0.00  0.00    +0.000 A 
ENDBRANCH  25  27
ENDBRANCH  24  25
ENDBRANCH  23  24
ENDBRANCH  22  23
ENDBRANCH  21  22
ENDBRANCH  20  21
ENDBRANCH  19  20
ENDBRANCH  18  19
ENDBRANCH   1  18
TORSDOF 13
ENDMDL
MODEL 9
REMARK VINA RESULT:      -6.7      4.649     10.602
REMARK  Name = 
REMARK  14 active torsions:
REMARK  status: ('A' for Active; 'I' for Inactive)
REMARK    1  A    between atoms: C_1  and  C_2
REMARK    2  A    between atoms: C_2  and  N_3
REMARK    3  A    between atoms: C_5  and  C_6
REMARK    4  A    between atoms: C_6  and  C_7
REMARK    5  A    between atoms: C_16  and  S_17
REMARK    6  A    between atoms: S_17  and  C_18
REMARK    7  A    between atoms: C_18  and  C_19
REMARK    8  A    between atoms: C_19  and  C_20
REMARK    9  A    between atoms: C_20  and  C_21
REMARK   10  A    between atoms: C_21  and  C_22
REMARK   11  A    between atoms: C_22  and  C_23
REMARK   12  A    between atoms: C_23  and  C_24
REMARK   13  A    between atoms: C_24  and  C_25
REMARK   14  A    between atoms: C_25  and  C_27
REMARK                            x       y       z     vdW  Elec       q    Type
REMARK                         _______ _______ _______ _____ _____    ______ ____
ROOT
ATOM      1  S   UNL     1      -0.878  11.351  19.902  0.00  0.00    +0.000 S 
ENDROOT
BRANCH   1   8
ATOM      2  N   UNL     1       0.351   9.039  20.870  0.00  0.00    +0.000 N 
ATOM      3  C   UNL     1       1.310   8.048  20.671  0.00  0.00    +0.000 A 
ATOM      4  C   UNL     1       2.023   7.896  19.550  0.00  0.00    +0.000 A 
ATOM      5  C   UNL     1       1.728   8.855  18.457  0.00  0.00    +0.000 A 
ATOM      6  O   UNL     1       2.264   8.693  17.367  0.00  0.00    +0.000 OA
ATOM      7  N   UNL     1       0.874   9.894  18.709  0.00  0.00    +0.000 NA
ATOM      8  C   UNL     1       0.213   9.967  19.822  0.00  0.00    +0.000 A 
BRANCH   2  10
ATOM      9  C   UNL     1       0.006   9.560  23.404  0.00  0.00    +0.000 C 
ATOM     10  C   UNL     1      -0.400   8.868  22.133  0.00  0.00    +0.000 C 
ENDBRANCH   2  10
BRANCH   4  11
ATOM     11  C   UNL     1       2.966   6.763  19.321  0.00  0.00    +0.000 C 
BRANCH  11  12
ATOM     12  C   UNL     1       2.302   5.440  19.090  0.00  0.00    +0.000 A 
ATOM     13  C   UNL     1       1.876   4.633  20.129  0.00  0.00    +0.000 A 
ATOM     14  N   UNL     1       1.205   3.478  19.962  0.00  0.00    +0.000 NA
ATOM     15  C   UNL     1       0.958   3.132  18.689  0.00  0.00    +0.000 A 
ATOM     16  N   UNL     1       1.346   3.810  17.600  0.00  0.00    +0.000 NA
ATOM     17  C   UNL     1       2.014   4.958  17.827  0.00  0.00    +0.000 A 
ENDBRANCH  11  12
ENDBRANCH   4  11
ENDBRANCH   1   8
BRANCH   1  18
ATOM     18  C   UNL     1      -0.949  11.966  18.170  0.00  0.00    +0.000 C 
BRANCH  18  19
ATOM     19  C   UNL     1      -2.161  11.565  17.316  0.00  0.00    +0.000 C 
BRANCH  19  20
ATOM     20  C   UNL     1      -3.222  10.752  18.062  0.00  0.00    +0.000 C 
BRANCH  20  21
ATOM     21  C   UNL     1      -4.364  11.653  18.531  0.00  0.00    +0.000 C 
BRANCH  21  22
ATOM     22  C   UNL     1      -5.570  11.585  17.595  0.00  0.00    +0.000 C 
BRANCH  22  23
ATOM     23  C   UNL     1      -6.732  10.900  18.310  0.00  0.00    +0.000 C 
BRANCH  23  24
ATOM     24  C   UNL     1      -7.504  11.859  19.205  0.00  0.00    +0.000 C 
BRANCH  24  25
ATOM     25  C   UNL     1      -7.290  11.531  20.671  0.00  0.00    +0.000 C 
ATOM     26  O   UNL     1      -7.391  10.389  21.120  0.00  0.00    +0.000 OA
BRANCH  25  27
ATOM     27  C   UNL     1      -6.936  12.648  21.599  0.00  0.00    +0.000 A 
ATOM     28  C   UNL     1      -7.915  13.411  22.251  0.00  0.00    +0.000 A 
ATOM     29  C   UNL     1      -7.542  14.473  23.077  0.00  0.00    +0.000 A 
ATOM     30  C   UNL     1      -6.192  14.771  23.260  0.00  0.00    +0.000 A 
ATOM     31 CL   UNL     1      -5.740  16.098  24.255  0.00  0.00    +0.000 Cl
ATOM     32  C   UNL     1      -5.210  14.005  22.636  0.00  0.00    +0.000 A 
ATOM     33  C   UNL     1      -5.581  12.944  21.806  0.00  0.00    +0.000 A 
ENDBRANCH  25  27
ENDBRANCH  24  25
ENDBRANCH  23  24
ENDBRANCH  22  23
ENDBRANCH  21  22
ENDBRANCH  20  21
ENDBRANCH  19  20
ENDBRANCH  18  19
ENDBRANCH   1  18
TORSDOF 13
ENDMDL
