MODEL 1
REMARK VINA RESULT:     -10.4      0.000      0.000
REMARK  Name = 
REMARK  8 active torsions:
REMARK  status: ('A' for Active; 'I' for Inactive)
REMARK    1  A    between atoms: C_1  and  O_2
REMARK    2  A    between atoms: O_2  and  C_3
REMARK    3  A    between atoms: N_11  and  C_12
REMARK    4  A    between atoms: C_12  and  C_13
REMARK    5  A    between atoms: C_13  and  C_14
REMARK    6  A    between atoms: C_15  and  C_16
REMARK    7  A    between atoms: C_19  and  C_20
REMARK    8  A    between atoms: C_23  and  C_24
REMARK                            x       y       z     vdW  Elec       q    Type
REMARK                         _______ _______ _______ _____ _____    ______ ____
ROOT
ATOM      1  C   UNL     1       2.698   4.053  19.737  0.00  0.00    +0.000 C 
ATOM      2  N   UNL     1       1.924   3.359  18.735  0.00  0.00    +0.000 N 
ATOM      3  C   UNL     1       0.802   2.769  19.262  0.00  0.00    +0.000 C 
ATOM      4  O   UNL     1      -0.004   2.099  18.647  0.00  0.00    +0.000 OA
ATOM      5  N   UNL     1       0.796   2.980  20.601  0.00  0.00    +0.000 N 
ATOM      6  C   UNL     1       1.983   3.527  20.992  0.00  0.00    +0.000 C 
ATOM      7  O   UNL     1       2.366   3.619  22.150  0.00  0.00    +0.000 OA
ATOM      8  H   UNL     1       2.299   3.031  17.847  0.00  0.00    +0.000 HD
ATOM      9  H   UNL     1       0.159   2.513  21.219  0.00  0.00    +0.000 HD
ENDROOT
BRANCH   1  10
ATOM     10  C   UNL     1       2.349   5.525  19.585  0.00  0.00    +0.000 C 
ATOM     11  C   UNL     1       2.050   6.787  19.455  0.00  0.00    +0.000 C 
BRANCH  11  12
ATOM     12  C   UNL     1       1.742   8.161  19.221  0.00  0.00    +0.000 A 
ATOM     13  C   UNL     1       2.157   8.794  18.057  0.00  0.00    +0.000 A 
ATOM     14  C   UNL     1       1.916  10.159  17.892  0.00  0.00    +0.000 A 
ATOM     15  C   UNL     1       1.260  10.868  18.895  0.00  0.00    +0.000 A 
ATOM     16  N   UNL     1       0.832  10.252  20.032  0.00  0.00    +0.000 NA
ATOM     17  C   UNL     1       1.075   8.923  20.165  0.00  0.00    +0.000 A 
BRANCH  15  18
ATOM     18  C   UNL     1       1.009  12.324  18.811  0.00  0.00    +0.000 A 
ATOM     19  C   UNL     1       2.025  13.202  18.940  0.00  0.00    +0.000 A 
ATOM     20  C   UNL     1       1.816  14.632  18.942  0.00  0.00    +0.000 A 
ATOM     21  C   UNL     1       0.580  15.134  18.813  0.00  0.00    +0.000 A 
ATOM     22  C   UNL     1       0.258  16.594  18.889  0.00  0.00    +0.000 C 
ATOM     23  N   UNL     1      -0.473  14.269  18.633  0.00  0.00    +0.000 N 
ATOM     24  C   UNL     1      -0.368  12.897  18.614  0.00  0.00    +0.000 A 
ATOM     25  O   UNL     1      -1.371  12.205  18.455  0.00  0.00    +0.000 OA
ATOM     26  H   UNL     1      -1.412  14.629  18.520  0.00  0.00    +0.000 HD
ENDBRANCH  15  18
ENDBRANCH  11  12
ENDBRANCH   1  10
BRANCH   1  27
ATOM     27  C   UNL     1       4.213   3.821  19.747  0.00  0.00    +0.000 C 
BRANCH  27  36
ATOM     28  C   UNL     1       7.347   5.114  14.759  0.00  0.00    +0.000 A 
ATOM     29  C   UNL     1       6.346   4.357  14.112  0.00  0.00    +0.000 A 
ATOM     30  C   UNL     1       5.297   3.759  14.828  0.00  0.00    +0.000 A 
ATOM     31  C   UNL     1       5.274   3.927  16.198  0.00  0.00    +0.000 A 
ATOM     32  C   UNL     1       6.290   4.648  16.824  0.00  0.00    +0.000 A 
ATOM     33  C   UNL     1       7.320   5.262  16.143  0.00  0.00    +0.000 A 
ATOM     34  C   UNL     1       6.045   4.642  18.261  0.00  0.00    +0.000 C 
ATOM     35  O   UNL     1       6.762   5.152  19.101  0.00  0.00    +0.000 OA
ATOM     36  N   UNL     1       4.854   3.971  18.454  0.00  0.00    +0.000 N 
ATOM     37  C   UNL     1       4.289   3.452  17.217  0.00  0.00    +0.000 C 
BRANCH  28  39
ATOM     38  C   UNL     1       8.036   5.527  12.533  0.00  0.00    +0.000 C 
ATOM     39  O   UNL     1       8.291   5.657  13.930  0.00  0.00    +0.000 OA
ENDBRANCH  28  39
ENDBRANCH  27  36
ENDBRANCH   1  27
TORSDOF 6
ENDMDL
MODEL 2
REMARK VINA RESULT:     -10.2      0.953      1.368
REMARK  Name = 
REMARK  8 active torsions:
REMARK  status: ('A' for Active; 'I' for Inactive)
REMARK    1  A    between atoms: C_1  and  O_2
REMARK    2  A    between atoms: O_2  and  C_3
REMARK    3  A    between atoms: N_11  and  C_12
REMARK    4  A    between atoms: C_12  and  C_13
REMARK    5  A    between atoms: C_13  and  C_14
REMARK    6  A    between atoms: C_15  and  C_16
REMARK    7  A    between atoms: C_19  and  C_20
REMARK    8  A    between atoms: C_23  and  C_24
REMARK                            x       y       z     vdW  Elec       q    Type
REMARK                         _______ _______ _______ _____ _____    ______ ____
ROOT
ATOM      1  C   UNL     1       2.725   4.002  19.912  0.00  0.00    +0.000 C 
ATOM      2  N   UNL     1       1.910   3.298  18.950  0.00  0.00    +0.000 N 
ATOM      3  C   UNL     1       0.806   2.722  19.527  0.00  0.00    +0.000 C 
ATOM      4  O   UNL     1      -0.026   2.048  18.952  0.00  0.00    +0.000 OA
ATOM      5  N   UNL     1       0.851   2.952  20.862  0.00  0.00    +0.000 N 
ATOM      6  C   UNL     1       2.055   3.498  21.200  0.00  0.00    +0.000 C 
ATOM      7  O   UNL     1       2.483   3.604  22.341  0.00  0.00    +0.000 OA
ATOM      8  H   UNL     1       2.249   2.956  18.053  0.00  0.00    +0.000 HD
ATOM      9  H   UNL     1       0.237   2.497  21.510  0.00  0.00    +0.000 HD
ENDROOT
BRANCH   1  10
ATOM     10  C   UNL     1       2.378   5.473  19.752  0.00  0.00    +0.000 C 
ATOM     11  C   UNL     1       2.080   6.735  19.615  0.00  0.00    +0.000 C 
BRANCH  11  12
ATOM     12  C   UNL     1       1.749   8.102  19.373  0.00  0.00    +0.000 A 
ATOM     13  C   UNL     1       2.071   8.709  18.167  0.00  0.00    +0.000 A 
ATOM     14  C   UNL     1       1.812  10.069  17.989  0.00  0.00    +0.000 A 
ATOM     15  C   UNL     1       1.231  10.800  19.022  0.00  0.00    +0.000 A 
ATOM     16  N   UNL     1       0.894  10.210  20.203  0.00  0.00    +0.000 NA
ATOM     17  C   UNL     1       1.153   8.886  20.348  0.00  0.00    +0.000 A 
BRANCH  15  18
ATOM     18  C   UNL     1       0.967  12.253  18.923  0.00  0.00    +0.000 A 
ATOM     19  C   UNL     1       1.930  13.145  19.236  0.00  0.00    +0.000 A 
ATOM     20  C   UNL     1       1.694  14.571  19.229  0.00  0.00    +0.000 A 
ATOM     21  C   UNL     1       0.486  15.054  18.904  0.00  0.00    +0.000 A 
ATOM     22  C   UNL     1       0.127  16.507  18.950  0.00  0.00    +0.000 C 
ATOM     23  N   UNL     1      -0.503  14.176  18.533  0.00  0.00    +0.000 N 
ATOM     24  C   UNL     1      -0.368  12.805  18.508  0.00  0.00    +0.000 A 
ATOM     25  O   UNL     1      -1.316  12.101  18.170  0.00  0.00    +0.000 OA
ATOM     26  H   UNL     1      -1.417  14.521  18.271  0.00  0.00    +0.000 HD
ENDBRANCH  15  18
ENDBRANCH  11  12
ENDBRANCH   1  10
BRANCH   1  27
ATOM     27  C   UNL     1       4.238   3.762  19.867  0.00  0.00    +0.000 C 
BRANCH  27  36
ATOM     28  C   UNL     1       6.667   4.554  14.404  0.00  0.00    +0.000 A 
ATOM     29  C   UNL     1       7.310   5.653  15.012  0.00  0.00    +0.000 A 
ATOM     30  C   UNL     1       7.094   5.980  16.360  0.00  0.00    +0.000 A 
ATOM     31  C   UNL     1       6.218   5.194  17.082  0.00  0.00    +0.000 A 
ATOM     32  C   UNL     1       5.564   4.133  16.455  0.00  0.00    +0.000 A 
ATOM     33  C   UNL     1       5.774   3.779  15.139  0.00  0.00    +0.000 A 
ATOM     34  C   UNL     1       4.680   3.497  17.423  0.00  0.00    +0.000 C 
ATOM     35  O   UNL     1       3.938   2.561  17.193  0.00  0.00    +0.000 OA
ATOM     36  N   UNL     1       4.874   4.152  18.623  0.00  0.00    +0.000 N 
ATOM     37  C   UNL     1       5.810   5.262  18.518  0.00  0.00    +0.000 C 
BRANCH  28  39
ATOM     38  C   UNL     1       6.216   3.361  12.411  0.00  0.00    +0.000 C 
ATOM     39  O   UNL     1       6.994   4.343  13.092  0.00  0.00    +0.000 OA
ENDBRANCH  28  39
ENDBRANCH  27  36
ENDBRANCH   1  27
TORSDOF 6
ENDMDL
MODEL 3
REMARK VINA RESULT:     -10.1      1.458      1.870
REMARK  Name = 
REMARK  8 active torsions:
REMARK  status: ('A' for Active; 'I' for Inactive)
REMARK    1  A    between atoms: C_1  and  O_2
REMARK    2  A    between atoms: O_2  and  C_3
REMARK    3  A    between atoms: N_11  and  C_12
REMARK    4  A    between atoms: C_12  and  C_13
REMARK    5  A    between atoms: C_13  and  C_14
REMARK    6  A    between atoms: C_15  and  C_16
REMARK    7  A    between atoms: C_19  and  C_20
REMARK    8  A    between atoms: C_23  and  C_24
REMARK                            x       y       z     vdW  Elec       q    Type
REMARK                         _______ _______ _______ _____ _____    ______ ____
ROOT
ATOM      1  C   UNL     1       2.681   4.043  20.097  0.00  0.00    +0.000 C 
ATOM      2  N   UNL     1       1.941   3.586  18.944  0.00  0.00    +0.000 N 
ATOM      3  C   UNL     1       0.847   2.835  19.293  0.00  0.00    +0.000 C 
ATOM      4  O   UNL     1       0.074   2.304  18.520  0.00  0.00    +0.000 OA
ATOM      5  N   UNL     1       0.828   2.706  20.642  0.00  0.00    +0.000 N 
ATOM      6  C   UNL     1       1.988   3.190  21.173  0.00  0.00    +0.000 C 
ATOM      7  O   UNL     1       2.365   3.009  22.322  0.00  0.00    +0.000 OA
ATOM      8  H   UNL     1       2.333   3.506  18.007  0.00  0.00    +0.000 HD
ATOM      9  H   UNL     1       0.213   2.072  21.116  0.00  0.00    +0.000 HD
ENDROOT
BRANCH   1  10
ATOM     10  C   UNL     1       2.265   5.489  20.310  0.00  0.00    +0.000 C 
ATOM     11  C   UNL     1       1.908   6.729  20.494  0.00  0.00    +0.000 C 
BRANCH  11  12
ATOM     12  C   UNL     1       1.473   8.084  20.612  0.00  0.00    +0.000 A 
ATOM     13  C   UNL     1       1.016   8.580  21.826  0.00  0.00    +0.000 A 
ATOM     14  C   UNL     1       0.518   9.882  21.893  0.00  0.00    +0.000 A 
ATOM     15  C   UNL     1       0.487  10.668  20.745  0.00  0.00    +0.000 A 
ATOM     16  N   UNL     1       0.950  10.197  19.553  0.00  0.00    +0.000 NA
ATOM     17  C   UNL     1       1.434   8.930  19.516  0.00  0.00    +0.000 A 
BRANCH  15  18
ATOM     18  C   UNL     1      -0.067  12.041  20.729  0.00  0.00    +0.000 A 
ATOM     19  C   UNL     1      -1.375  12.247  20.473  0.00  0.00    +0.000 A 
ATOM     20  C   UNL     1      -1.944  13.571  20.371  0.00  0.00    +0.000 A 
ATOM     21  C   UNL     1      -1.169  14.653  20.533  0.00  0.00    +0.000 A 
ATOM     22  C   UNL     1      -1.651  16.060  20.363  0.00  0.00    +0.000 C 
ATOM     23  N   UNL     1       0.159  14.479  20.842  0.00  0.00    +0.000 N 
ATOM     24  C   UNL     1       0.784  13.258  20.961  0.00  0.00    +0.000 A 
ATOM     25  O   UNL     1       1.981  13.205  21.232  0.00  0.00    +0.000 OA
ATOM     26  H   UNL     1       0.758  15.283  20.981  0.00  0.00    +0.000 HD
ENDBRANCH  15  18
ENDBRANCH  11  12
ENDBRANCH   1  10
BRANCH   1  27
ATOM     27  C   UNL     1       4.205   3.883  20.069  0.00  0.00    +0.000 C 
BRANCH  27  36
ATOM     28  C   UNL     1       7.195   5.134  14.983  0.00  0.00    +0.000 A 
ATOM     29  C   UNL     1       6.144   4.424  14.365  0.00  0.00    +0.000 A 
ATOM     30  C   UNL     1       5.101   3.854  15.112  0.00  0.00    +0.000 A 
ATOM     31  C   UNL     1       5.135   4.002  16.484  0.00  0.00    +0.000 A 
ATOM     32  C   UNL     1       6.200   4.677  17.080  0.00  0.00    +0.000 A 
ATOM     33  C   UNL     1       7.225   5.263  16.369  0.00  0.00    +0.000 A 
ATOM     34  C   UNL     1       6.009   4.659  18.525  0.00  0.00    +0.000 C 
ATOM     35  O   UNL     1       6.775   5.130  19.344  0.00  0.00    +0.000 OA
ATOM     36  N   UNL     1       4.802   4.029  18.755  0.00  0.00    +0.000 N 
ATOM     37  C   UNL     1       4.172   3.549  17.533  0.00  0.00    +0.000 C 
BRANCH  28  39
ATOM     38  C   UNL     1       7.980   5.289  12.756  0.00  0.00    +0.000 C 
ATOM     39  O   UNL     1       8.127   5.655  14.126  0.00  0.00    +0.000 OA
ENDBRANCH  28  39
ENDBRANCH  27  36
ENDBRANCH   1  27
TORSDOF 6
ENDMDL
MODEL 4
REMARK VINA RESULT:     -10.1      1.122      1.376
REMARK  Name = 
REMARK  8 active torsions:
REMARK  status: ('A' for Active; 'I' for Inactive)
REMARK    1  A    between atoms: C_1  and  O_2
REMARK    2  A    between atoms: O_2  and  C_3
REMARK    3  A    between atoms: N_11  and  C_12
REMARK    4  A    between atoms: C_12  and  C_13
REMARK    5  A    between atoms: C_13  and  C_14
REMARK    6  A    between atoms: C_15  and  C_16
REMARK    7  A    between atoms: C_19  and  C_20
REMARK    8  A    between atoms: C_23  and  C_24
REMARK                            x       y       z     vdW  Elec       q    Type
REMARK                         _______ _______ _______ _____ _____    ______ ____
ROOT
ATOM      1  C   UNL     1       2.758   3.895  19.931  0.00  0.00    +0.000 C 
ATOM      2  N   UNL     1       1.986   3.377  18.826  0.00  0.00    +0.000 N 
ATOM      3  C   UNL     1       0.870   2.697  19.246  0.00  0.00    +0.000 C 
ATOM      4  O   UNL     1       0.068   2.136  18.525  0.00  0.00    +0.000 OA
ATOM      5  N   UNL     1       0.865   2.675  20.601  0.00  0.00    +0.000 N 
ATOM      6  C   UNL     1       2.049   3.157  21.078  0.00  0.00    +0.000 C 
ATOM      7  O   UNL     1       2.435   3.052  22.234  0.00  0.00    +0.000 OA
ATOM      8  H   UNL     1       2.361   3.208  17.895  0.00  0.00    +0.000 HD
ATOM      9  H   UNL     1       0.234   2.104  21.130  0.00  0.00    +0.000 HD
ENDROOT
BRANCH   1  10
ATOM     10  C   UNL     1       2.398   5.368  20.034  0.00  0.00    +0.000 C 
ATOM     11  C   UNL     1       2.089   6.632  20.122  0.00  0.00    +0.000 C 
BRANCH  11  12
ATOM     12  C   UNL     1       1.661   7.990  20.213  0.00  0.00    +0.000 A 
ATOM     13  C   UNL     1       1.270   8.533  21.430  0.00  0.00    +0.000 A 
ATOM     14  C   UNL     1       0.775   9.837  21.476  0.00  0.00    +0.000 A 
ATOM     15  C   UNL     1       0.683  10.580  20.302  0.00  0.00    +0.000 A 
ATOM     16  N   UNL     1       1.081  10.064  19.106  0.00  0.00    +0.000 NA
ATOM     17  C   UNL     1       1.562   8.795  19.090  0.00  0.00    +0.000 A 
BRANCH  15  18
ATOM     18  C   UNL     1       0.129  11.952  20.266  0.00  0.00    +0.000 A 
ATOM     19  C   UNL     1       0.518  12.871  21.174  0.00  0.00    +0.000 A 
ATOM     20  C   UNL     1      -0.053  14.197  21.225  0.00  0.00    +0.000 A 
ATOM     21  C   UNL     1      -1.004  14.557  20.351  0.00  0.00    +0.000 A 
ATOM     22  C   UNL     1      -1.710  15.877  20.381  0.00  0.00    +0.000 C 
ATOM     23  N   UNL     1      -1.390  13.662  19.383  0.00  0.00    +0.000 N 
ATOM     24  C   UNL     1      -0.901  12.381  19.258  0.00  0.00    +0.000 A 
ATOM     25  O   UNL     1      -1.316  11.649  18.362  0.00  0.00    +0.000 OA
ATOM     26  H   UNL     1      -2.097  13.919  18.706  0.00  0.00    +0.000 HD
ENDBRANCH  15  18
ENDBRANCH  11  12
ENDBRANCH   1  10
BRANCH   1  27
ATOM     27  C   UNL     1       4.274   3.677  19.899  0.00  0.00    +0.000 C 
BRANCH  27  36
ATOM     28  C   UNL     1       7.267   5.102  14.861  0.00  0.00    +0.000 A 
ATOM     29  C   UNL     1       6.265   4.337  14.226  0.00  0.00    +0.000 A 
ATOM     30  C   UNL     1       5.243   3.710  14.956  0.00  0.00    +0.000 A 
ATOM     31  C   UNL     1       5.249   3.855  16.329  0.00  0.00    +0.000 A 
ATOM     32  C   UNL     1       6.267   4.586  16.942  0.00  0.00    +0.000 A 
ATOM     33  C   UNL     1       7.270   5.228  16.247  0.00  0.00    +0.000 A 
ATOM     34  C   UNL     1       6.056   4.553  18.384  0.00  0.00    +0.000 C 
ATOM     35  O   UNL     1       6.783   5.063  19.215  0.00  0.00    +0.000 OA
ATOM     36  N   UNL     1       4.882   3.858  18.594  0.00  0.00    +0.000 N 
ATOM     37  C   UNL     1       4.297   3.348  17.363  0.00  0.00    +0.000 C 
BRANCH  28  39
ATOM     38  C   UNL     1       8.005   5.394  12.631  0.00  0.00    +0.000 C 
ATOM     39  O   UNL     1       8.182   5.674  14.019  0.00  0.00    +0.000 OA
ENDBRANCH  28  39
ENDBRANCH  27  36
ENDBRANCH   1  27
TORSDOF 6
ENDMDL
MODEL 5
REMARK VINA RESULT:     -10.0      1.004      1.150
REMARK  Name = 
REMARK  8 active torsions:
REMARK  status: ('A' for Active; 'I' for Inactive)
REMARK    1  A    between atoms: C_1  and  O_2
REMARK    2  A    between atoms: O_2  and  C_3
REMARK    3  A    between atoms: N_11  and  C_12
REMARK    4  A    between atoms: C_12  and  C_13
REMARK    5  A    between atoms: C_13  and  C_14
REMARK    6  A    between atoms: C_15  and  C_16
REMARK    7  A    between atoms: C_19  and  C_20
REMARK    8  A    between atoms: C_23  and  C_24
REMARK                            x       y       z     vdW  Elec       q    Type
REMARK                         _______ _______ _______ _____ _____    ______ ____
ROOT
ATOM      1  C   UNL     1       2.688   4.061  19.728  0.00  0.00    +0.000 C 
ATOM      2  N   UNL     1       1.936   3.351  18.719  0.00  0.00    +0.000 N 
ATOM      3  C   UNL     1       0.818   2.745  19.236  0.00  0.00    +0.000 C 
ATOM      4  O   UNL     1       0.030   2.060  18.614  0.00  0.00    +0.000 OA
ATOM      5  N   UNL     1       0.794   2.959  20.574  0.00  0.00    +0.000 N 
ATOM      6  C   UNL     1       1.967   3.526  20.977  0.00  0.00    +0.000 C 
ATOM      7  O   UNL     1       2.337   3.628  22.138  0.00  0.00    +0.000 OA
ATOM      8  H   UNL     1       2.326   3.027  17.836  0.00  0.00    +0.000 HD
ATOM      9  H   UNL     1       0.159   2.483  21.186  0.00  0.00    +0.000 HD
ENDROOT
BRANCH   1  10
ATOM     10  C   UNL     1       2.317   5.526  19.568  0.00  0.00    +0.000 C 
ATOM     11  C   UNL     1       1.999   6.783  19.430  0.00  0.00    +0.000 C 
BRANCH  11  12
ATOM     12  C   UNL     1       1.674   8.171  19.369  0.00  0.00    +0.000 A 
ATOM     13  C   UNL     1       1.963   8.920  18.236  0.00  0.00    +0.000 A 
ATOM     14  C   UNL     1       1.712  10.293  18.235  0.00  0.00    +0.000 A 
ATOM     15  C   UNL     1       1.173  10.895  19.369  0.00  0.00    +0.000 A 
ATOM     16  N   UNL     1       0.869  10.167  20.480  0.00  0.00    +0.000 NA
ATOM     17  C   UNL     1       1.119   8.833  20.452  0.00  0.00    +0.000 A 
BRANCH  15  18
ATOM     18  C   UNL     1       0.922  12.351  19.459  0.00  0.00    +0.000 A 
ATOM     19  C   UNL     1       0.006  12.937  18.659  0.00  0.00    +0.000 A 
ATOM     20  C   UNL     1      -0.218  14.364  18.657  0.00  0.00    +0.000 A 
ATOM     21  C   UNL     1       0.493  15.160  19.467  0.00  0.00    +0.000 A 
ATOM     22  C   UNL     1       0.389  16.654  19.473  0.00  0.00    +0.000 C 
ATOM     23  N   UNL     1       1.401  14.592  20.328  0.00  0.00    +0.000 N 
ATOM     24  C   UNL     1       1.678  13.246  20.401  0.00  0.00    +0.000 A 
ATOM     25  O   UNL     1       2.516  12.833  21.199  0.00  0.00    +0.000 OA
ATOM     26  H   UNL     1       1.939  15.175  20.957  0.00  0.00    +0.000 HD
ENDBRANCH  15  18
ENDBRANCH  11  12
ENDBRANCH   1  10
BRANCH   1  27
ATOM     27  C   UNL     1       4.206   3.854  19.754  0.00  0.00    +0.000 C 
BRANCH  27  36
ATOM     28  C   UNL     1       7.378   5.147  14.790  0.00  0.00    +0.000 A 
ATOM     29  C   UNL     1       6.385   4.385  14.137  0.00  0.00    +0.000 A 
ATOM     30  C   UNL     1       5.332   3.786  14.844  0.00  0.00    +0.000 A 
ATOM     31  C   UNL     1       5.296   3.956  16.215  0.00  0.00    +0.000 A 
ATOM     32  C   UNL     1       6.305   4.682  16.847  0.00  0.00    +0.000 A 
ATOM     33  C   UNL     1       7.338   5.297  16.174  0.00  0.00    +0.000 A 
ATOM     34  C   UNL     1       6.048   4.677  18.282  0.00  0.00    +0.000 C 
ATOM     35  O   UNL     1       6.756   5.192  19.127  0.00  0.00    +0.000 OA
ATOM     36  N   UNL     1       4.858   4.004  18.467  0.00  0.00    +0.000 N 
ATOM     37  C   UNL     1       4.304   3.480  17.226  0.00  0.00    +0.000 C 
BRANCH  28  39
ATOM     38  C   UNL     1       8.094   5.540  12.570  0.00  0.00    +0.000 C 
ATOM     39  O   UNL     1       8.327   5.691  13.968  0.00  0.00    +0.000 OA
ENDBRANCH  28  39
ENDBRANCH  27  36
ENDBRANCH   1  27
TORSDOF 6
ENDMDL
MODEL 6
REMARK VINA RESULT:      -9.9      1.649      2.247
REMARK  Name = 
REMARK  8 active torsions:
REMARK  status: ('A' for Active; 'I' for Inactive)
REMARK    1  A    between atoms: C_1  and  O_2
REMARK    2  A    between atoms: O_2  and  C_3
REMARK    3  A    between atoms: N_11  and  C_12
REMARK    4  A    between atoms: C_12  and  C_13
REMARK    5  A    between atoms: C_13  and  C_14
REMARK    6  A    between atoms: C_15  and  C_16
REMARK    7  A    between atoms: C_19  and  C_20
REMARK    8  A    between atoms: C_23  and  C_24
REMARK                            x       y       z     vdW  Elec       q    Type
REMARK                         _______ _______ _______ _____ _____    ______ ____
ROOT
ATOM      1  C   UNL     1       2.664   4.007  20.062  0.00  0.00    +0.000 C 
ATOM      2  N   UNL     1       1.890   3.542  18.935  0.00  0.00    +0.000 N 
ATOM      3  C   UNL     1       0.784   2.828  19.323  0.00  0.00    +0.000 C 
ATOM      4  O   UNL     1      -0.017   2.298  18.578  0.00  0.00    +0.000 OA
ATOM      5  N   UNL     1       0.790   2.731  20.675  0.00  0.00    +0.000 N 
ATOM      6  C   UNL     1       1.972   3.198  21.171  0.00  0.00    +0.000 C 
ATOM      7  O   UNL     1       2.367   3.034  22.317  0.00  0.00    +0.000 OA
ATOM      8  H   UNL     1       2.260   3.429  17.993  0.00  0.00    +0.000 HD
ATOM      9  H   UNL     1       0.168   2.125  21.176  0.00  0.00    +0.000 HD
ENDROOT
BRANCH   1  10
ATOM     10  C   UNL     1       2.289   5.468  20.248  0.00  0.00    +0.000 C 
ATOM     11  C   UNL     1       1.967   6.721  20.408  0.00  0.00    +0.000 C 
BRANCH  11  12
ATOM     12  C   UNL     1       1.549   8.082  20.518  0.00  0.00    +0.000 A 
ATOM     13  C   UNL     1       1.153   8.608  21.740  0.00  0.00    +0.000 A 
ATOM     14  C   UNL     1       0.669   9.915  21.803  0.00  0.00    +0.000 A 
ATOM     15  C   UNL     1       0.593  10.678  20.640  0.00  0.00    +0.000 A 
ATOM     16  N   UNL     1       0.996  10.177  19.439  0.00  0.00    +0.000 NA
ATOM     17  C   UNL     1       1.467   8.904  19.407  0.00  0.00    +0.000 A 
BRANCH  15  18
ATOM     18  C   UNL     1       0.050  12.055  20.621  0.00  0.00    +0.000 A 
ATOM     19  C   UNL     1      -1.282  12.265  20.641  0.00  0.00    +0.000 A 
ATOM     20  C   UNL     1      -1.858  13.586  20.545  0.00  0.00    +0.000 A 
ATOM     21  C   UNL     1      -1.065  14.662  20.432  0.00  0.00    +0.000 A 
ATOM     22  C   UNL     1      -1.572  16.058  20.243  0.00  0.00    +0.000 C 
ATOM     23  N   UNL     1       0.297  14.488  20.456  0.00  0.00    +0.000 N 
ATOM     24  C   UNL     1       0.932  13.270  20.546  0.00  0.00    +0.000 A 
ATOM     25  O   UNL     1       2.160  13.215  20.551  0.00  0.00    +0.000 OA
ATOM     26  H   UNL     1       0.913  15.288  20.385  0.00  0.00    +0.000 HD
ENDBRANCH  15  18
ENDBRANCH  11  12
ENDBRANCH   1  10
BRANCH   1  27
ATOM     27  C   UNL     1       4.183   3.808  20.008  0.00  0.00    +0.000 C 
BRANCH  27  36
ATOM     28  C   UNL     1       6.559   4.491  14.508  0.00  0.00    +0.000 A 
ATOM     29  C   UNL     1       7.141   5.650  15.064  0.00  0.00    +0.000 A 
ATOM     30  C   UNL     1       6.907   6.024  16.397  0.00  0.00    +0.000 A 
ATOM     31  C   UNL     1       6.077   5.223  17.156  0.00  0.00    +0.000 A 
ATOM     32  C   UNL     1       5.483   4.101  16.578  0.00  0.00    +0.000 A 
ATOM     33  C   UNL     1       5.711   3.701  15.279  0.00  0.00    +0.000 A 
ATOM     34  C   UNL     1       4.636   3.460  17.577  0.00  0.00    +0.000 C 
ATOM     35  O   UNL     1       3.948   2.474  17.390  0.00  0.00    +0.000 OA
ATOM     36  N   UNL     1       4.795   4.177  18.746  0.00  0.00    +0.000 N 
ATOM     37  C   UNL     1       5.667   5.332  18.588  0.00  0.00    +0.000 C 
BRANCH  28  39
ATOM     38  C   UNL     1       6.046   3.331  12.510  0.00  0.00    +0.000 C 
ATOM     39  O   UNL     1       6.897   4.240  13.205  0.00  0.00    +0.000 OA
ENDBRANCH  28  39
ENDBRANCH  27  36
ENDBRANCH   1  27
TORSDOF 6
ENDMDL
MODEL 7
REMARK VINA RESULT:      -9.8      2.404      2.934
REMARK  Name = 
REMARK  8 active torsions:
REMARK  status: ('A' for Active; 'I' for Inactive)
REMARK    1  A    between atoms: C_1  and  O_2
REMARK    2  A    between atoms: O_2  and  C_3
REMARK    3  A    between atoms: N_11  and  C_12
REMARK    4  A    between atoms: C_12  and  C_13
REMARK    5  A    between atoms: C_13  and  C_14
REMARK    6  A    between atoms: C_15  and  C_16
REMARK    7  A    between atoms: C_19  and  C_20
REMARK    8  A    between atoms: C_23  and  C_24
REMARK                            x       y       z     vdW  Elec       q    Type
REMARK                         _______ _______ _______ _____ _____    ______ ____
ROOT
ATOM      1  C   UNL     1       2.459   4.487  20.163  0.00  0.00    +0.000 C 
ATOM      2  N   UNL     1       1.710   4.001  19.028  0.00  0.00    +0.000 N 
ATOM      3  C   UNL     1       0.733   3.108  19.395  0.00  0.00    +0.000 C 
ATOM      4  O   UNL     1      -0.017   2.526  18.638  0.00  0.00    +0.000 OA
ATOM      5  N   UNL     1       0.812   2.913  20.734  0.00  0.00    +0.000 N 
ATOM      6  C   UNL     1       1.938   3.507  21.226  0.00  0.00    +0.000 C 
ATOM      7  O   UNL     1       2.402   3.317  22.341  0.00  0.00    +0.000 OA
ATOM      8  H   UNL     1       2.050   4.013  18.069  0.00  0.00    +0.000 HD
ATOM      9  H   UNL     1       0.305   2.188  21.206  0.00  0.00    +0.000 HD
ENDROOT
BRANCH   1  10
ATOM     10  C   UNL     1       1.891   5.861  20.477  0.00  0.00    +0.000 C 
ATOM     11  C   UNL     1       1.405   7.040  20.747  0.00  0.00    +0.000 C 
BRANCH  11  12
ATOM     12  C   UNL     1       0.896   8.317  21.132  0.00  0.00    +0.000 A 
ATOM     13  C   UNL     1       0.538   8.572  22.449  0.00  0.00    +0.000 A 
ATOM     14  C   UNL     1      -0.036   9.800  22.781  0.00  0.00    +0.000 A 
ATOM     15  C   UNL     1      -0.240  10.756  21.789  0.00  0.00    +0.000 A 
ATOM     16  N   UNL     1       0.125  10.522  20.497  0.00  0.00    +0.000 NA
ATOM     17  C   UNL     1       0.685   9.322  20.203  0.00  0.00    +0.000 A 
BRANCH  15  18
ATOM     18  C   UNL     1      -0.882  12.062  22.057  0.00  0.00    +0.000 A 
ATOM     19  C   UNL     1      -2.191  12.127  22.379  0.00  0.00    +0.000 A 
ATOM     20  C   UNL     1      -2.878  13.383  22.572  0.00  0.00    +0.000 A 
ATOM     21  C   UNL     1      -2.218  14.542  22.434  0.00  0.00    +0.000 A 
ATOM     22  C   UNL     1      -2.864  15.889  22.533  0.00  0.00    +0.000 C 
ATOM     23  N   UNL     1      -0.873  14.512  22.154  0.00  0.00    +0.000 N 
ATOM     24  C   UNL     1      -0.138  13.364  21.956  0.00  0.00    +0.000 A 
ATOM     25  O   UNL     1       1.061  13.439  21.700  0.00  0.00    +0.000 OA
ATOM     26  H   UNL     1      -0.354  15.375  22.059  0.00  0.00    +0.000 HD
ENDBRANCH  15  18
ENDBRANCH  11  12
ENDBRANCH   1  10
BRANCH   1  27
ATOM     27  C   UNL     1       3.987   4.513  20.043  0.00  0.00    +0.000 C 
BRANCH  27  36
ATOM     28  C   UNL     1       6.110   4.089  14.414  0.00  0.00    +0.000 A 
ATOM     29  C   UNL     1       6.368   5.469  14.565  0.00  0.00    +0.000 A 
ATOM     30  C   UNL     1       6.043   6.153  15.746  0.00  0.00    +0.000 A 
ATOM     31  C   UNL     1       5.450   5.435  16.766  0.00  0.00    +0.000 A 
ATOM     32  C   UNL     1       5.170   4.081  16.585  0.00  0.00    +0.000 A 
ATOM     33  C   UNL     1       5.497   3.380  15.444  0.00  0.00    +0.000 A 
ATOM     34  C   UNL     1       4.519   3.578  17.788  0.00  0.00    +0.000 C 
ATOM     35  O   UNL     1       4.113   2.443  17.948  0.00  0.00    +0.000 OA
ATOM     36  N   UNL     1       4.483   4.627  18.684  0.00  0.00    +0.000 N 
ATOM     37  C   UNL     1       5.024   5.862  18.133  0.00  0.00    +0.000 C 
BRANCH  28  39
ATOM     38  C   UNL     1       5.457   3.283  12.287  0.00  0.00    +0.000 C 
ATOM     39  O   UNL     1       6.503   3.553  13.217  0.00  0.00    +0.000 OA
ENDBRANCH  28  39
ENDBRANCH  27  36
ENDBRANCH   1  27
TORSDOF 6
ENDMDL
MODEL 8
REMARK VINA RESULT:      -9.8      1.587      1.757
REMARK  Name = 
REMARK  8 active torsions:
REMARK  status: ('A' for Active; 'I' for Inactive)
REMARK    1  A    between atoms: C_1  and  O_2
REMARK    2  A    between atoms: O_2  and  C_3
REMARK    3  A    between atoms: N_11  and  C_12
REMARK    4  A    between atoms: C_12  and  C_13
REMARK    5  A    between atoms: C_13  and  C_14
REMARK    6  A    between atoms: C_15  and  C_16
REMARK    7  A    between atoms: C_19  and  C_20
REMARK    8  A    between atoms: C_23  and  C_24
REMARK                            x       y       z     vdW  Elec       q    Type
REMARK                         _______ _______ _______ _____ _____    ______ ____
ROOT
ATOM      1  C   UNL     1       2.657   4.102  20.113  0.00  0.00    +0.000 C 
ATOM      2  N   UNL     1       1.928   3.645  18.954  0.00  0.00    +0.000 N 
ATOM      3  C   UNL     1       0.839   2.881  19.293  0.00  0.00    +0.000 C 
ATOM      4  O   UNL     1       0.076   2.347  18.512  0.00  0.00    +0.000 OA
ATOM      5  N   UNL     1       0.814   2.744  20.641  0.00  0.00    +0.000 N 
ATOM      6  C   UNL     1       1.967   3.237  21.180  0.00  0.00    +0.000 C 
ATOM      7  O   UNL     1       2.339   3.052  22.330  0.00  0.00    +0.000 OA
ATOM      8  H   UNL     1       2.325   3.573  18.019  0.00  0.00    +0.000 HD
ATOM      9  H   UNL     1       0.203   2.102  21.108  0.00  0.00    +0.000 HD
ENDROOT
BRANCH   1  10
ATOM     10  C   UNL     1       2.226   5.543  20.333  0.00  0.00    +0.000 C 
ATOM     11  C   UNL     1       1.856   6.779  20.521  0.00  0.00    +0.000 C 
BRANCH  11  12
ATOM     12  C   UNL     1       1.443   8.140  20.634  0.00  0.00    +0.000 A 
ATOM     13  C   UNL     1       1.229   8.915  19.502  0.00  0.00    +0.000 A 
ATOM     14  C   UNL     1       0.909  10.266  19.642  0.00  0.00    +0.000 A 
ATOM     15  C   UNL     1       0.803  10.820  20.915  0.00  0.00    +0.000 A 
ATOM     16  N   UNL     1       0.993  10.064  22.033  0.00  0.00    +0.000 NA
ATOM     17  C   UNL     1       1.299   8.752  21.868  0.00  0.00    +0.000 A 
BRANCH  15  18
ATOM     18  C   UNL     1       0.510  12.253  21.142  0.00  0.00    +0.000 A 
ATOM     19  C   UNL     1      -0.608  12.626  21.798  0.00  0.00    +0.000 A 
ATOM     20  C   UNL     1      -0.974  14.012  21.974  0.00  0.00    +0.000 A 
ATOM     21  C   UNL     1      -0.195  14.985  21.480  0.00  0.00    +0.000 A 
ATOM     22  C   UNL     1      -0.536  16.442  21.542  0.00  0.00    +0.000 C 
ATOM     23  N   UNL     1       0.975  14.642  20.848  0.00  0.00    +0.000 N 
ATOM     24  C   UNL     1       1.405  13.351  20.637  0.00  0.00    +0.000 A 
ATOM     25  O   UNL     1       2.465  13.143  20.052  0.00  0.00    +0.000 OA
ATOM     26  H   UNL     1       1.585  15.362  20.480  0.00  0.00    +0.000 HD
ENDBRANCH  15  18
ENDBRANCH  11  12
ENDBRANCH   1  10
BRANCH   1  27
ATOM     27  C   UNL     1       4.183   3.957  20.093  0.00  0.00    +0.000 C 
BRANCH  27  36
ATOM     28  C   UNL     1       7.171   5.109  14.983  0.00  0.00    +0.000 A 
ATOM     29  C   UNL     1       6.130   4.369  14.381  0.00  0.00    +0.000 A 
ATOM     30  C   UNL     1       5.092   3.807  15.140  0.00  0.00    +0.000 A 
ATOM     31  C   UNL     1       5.121   3.992  16.508  0.00  0.00    +0.000 A 
ATOM     32  C   UNL     1       6.176   4.695  17.089  0.00  0.00    +0.000 A 
ATOM     33  C   UNL     1       7.196   5.274  16.365  0.00  0.00    +0.000 A 
ATOM     34  C   UNL     1       5.981   4.713  18.534  0.00  0.00    +0.000 C 
ATOM     35  O   UNL     1       6.740   5.215  19.341  0.00  0.00    +0.000 OA
ATOM     36  N   UNL     1       4.782   4.075  18.777  0.00  0.00    +0.000 N 
ATOM     37  C   UNL     1       4.161   3.555  17.567  0.00  0.00    +0.000 C 
BRANCH  28  39
ATOM     38  C   UNL     1       7.906   5.288  12.741  0.00  0.00    +0.000 C 
ATOM     39  O   UNL     1       8.099   5.617  14.115  0.00  0.00    +0.000 OA
ENDBRANCH  28  39
ENDBRANCH  27  36
ENDBRANCH   1  27
TORSDOF 6
ENDMDL
MODEL 9
REMARK VINA RESULT:      -9.8      1.926      2.384
REMARK  Name = 
REMARK  8 active torsions:
REMARK  status: ('A' for Active; 'I' for Inactive)
REMARK    1  A    between atoms: C_1  and  O_2
REMARK    2  A    between atoms: O_2  and  C_3
REMARK    3  A    between atoms: N_11  and  C_12
REMARK    4  A    between atoms: C_12  and  C_13
REMARK    5  A    between atoms: C_13  and  C_14
REMARK    6  A    between atoms: C_15  and  C_16
REMARK    7  A    between atoms: C_19  and  C_20
REMARK    8  A    between atoms: C_23  and  C_24
REMARK                            x       y       z     vdW  Elec       q    Type
REMARK                         _______ _______ _______ _____ _____    ______ ____
ROOT
ATOM      1  C   UNL     1       2.489   4.306  20.118  0.00  0.00    +0.000 C 
ATOM      2  N   UNL     1       1.737   3.820  18.985  0.00  0.00    +0.000 N 
ATOM      3  C   UNL     1       0.713   2.987  19.361  0.00  0.00    +0.000 C 
ATOM      4  O   UNL     1      -0.051   2.416  18.607  0.00  0.00    +0.000 OA
ATOM      5  N   UNL     1       0.758   2.831  20.706  0.00  0.00    +0.000 N 
ATOM      6  C   UNL     1       1.901   3.387  21.202  0.00  0.00    +0.000 C 
ATOM      7  O   UNL     1       2.336   3.211  22.331  0.00  0.00    +0.000 OA
ATOM      8  H   UNL     1       2.095   3.785  18.033  0.00  0.00    +0.000 HD
ATOM      9  H   UNL     1       0.209   2.147  21.190  0.00  0.00    +0.000 HD
ENDROOT
BRANCH   1  10
ATOM     10  C   UNL     1       1.982   5.715  20.379  0.00  0.00    +0.000 C 
ATOM     11  C   UNL     1       1.546   6.923  20.603  0.00  0.00    +0.000 C 
BRANCH  11  12
ATOM     12  C   UNL     1       1.009   8.234  20.777  0.00  0.00    +0.000 A 
ATOM     13  C   UNL     1       0.245   8.547  21.894  0.00  0.00    +0.000 A 
ATOM     14  C   UNL     1      -0.338   9.811  21.997  0.00  0.00    +0.000 A 
ATOM     15  C   UNL     1      -0.144  10.744  20.982  0.00  0.00    +0.000 A 
ATOM     16  N   UNL     1       0.619  10.453  19.891  0.00  0.00    +0.000 NA
ATOM     17  C   UNL     1       1.178   9.219  19.818  0.00  0.00    +0.000 A 
BRANCH  15  18
ATOM     18  C   UNL     1      -0.766  12.087  21.001  0.00  0.00    +0.000 A 
ATOM     19  C   UNL     1      -0.424  12.985  21.948  0.00  0.00    +0.000 A 
ATOM     20  C   UNL     1      -1.060  14.278  22.052  0.00  0.00    +0.000 A 
ATOM     21  C   UNL     1      -2.027  14.627  21.192  0.00  0.00    +0.000 A 
ATOM     22  C   UNL     1      -2.798  15.907  21.274  0.00  0.00    +0.000 C 
ATOM     23  N   UNL     1      -2.367  13.755  20.186  0.00  0.00    +0.000 N 
ATOM     24  C   UNL     1      -1.814  12.506  20.008  0.00  0.00    +0.000 A 
ATOM     25  O   UNL     1      -2.192  11.793  19.082  0.00  0.00    +0.000 OA
ATOM     26  H   UNL     1      -3.085  14.005  19.518  0.00  0.00    +0.000 HD
ENDBRANCH  15  18
ENDBRANCH  11  12
ENDBRANCH   1  10
BRANCH   1  27
ATOM     27  C   UNL     1       4.018   4.256  20.028  0.00  0.00    +0.000 C 
BRANCH  27  36
ATOM     28  C   UNL     1       6.219   4.125  14.415  0.00  0.00    +0.000 A 
ATOM     29  C   UNL     1       6.575   5.465  14.681  0.00  0.00    +0.000 A 
ATOM     30  C   UNL     1       6.278   6.075  15.910  0.00  0.00    +0.000 A 
ATOM     31  C   UNL     1       5.612   5.325  16.858  0.00  0.00    +0.000 A 
ATOM     32  C   UNL     1       5.237   4.014  16.564  0.00  0.00    +0.000 A 
ATOM     33  C   UNL     1       5.535   3.384  15.375  0.00  0.00    +0.000 A 
ATOM     34  C   UNL     1       4.526   3.467  17.713  0.00  0.00    +0.000 C 
ATOM     35  O   UNL     1       4.034   2.357  17.774  0.00  0.00    +0.000 OA
ATOM     36  N   UNL     1       4.549   4.441  18.691  0.00  0.00    +0.000 N 
ATOM     37  C   UNL     1       5.191   5.672  18.249  0.00  0.00    +0.000 C 
BRANCH  28  39
ATOM     38  C   UNL     1       5.532   3.303  12.305  0.00  0.00    +0.000 C 
ATOM     39  O   UNL     1       6.596   3.658  13.184  0.00  0.00    +0.000 OA
ENDBRANCH  28  39
ENDBRANCH  27  36
ENDBRANCH   1  27
TORSDOF 6
ENDMDL
