MODEL 1
REMARK VINA RESULT:      -6.9      0.000      0.000
REMARK  Name = 
REMARK  5 active torsions:
REMARK  status: ('A' for Active; 'I' for Inactive)
REMARK    1  A    between atoms: C_1  and  S_2
REMARK    2  A    between atoms: S_2  and  C_3
REMARK    3  A    between atoms: N_5  and  C_6
REMARK    4  A    between atoms: N_15  and  C_16
REMARK    5  A    between atoms: N_23  and  N_24
REMARK                            x       y       z     vdW  Elec       q    Type
REMARK                         _______ _______ _______ _____ _____    ______ ____
ROOT
ATOM      1  C   UNL     1      -1.408  14.367  24.080  0.00  0.00    +0.000 A 
ATOM      2  N   UNL     1      -0.636  13.435  23.522  0.00  0.00    +0.000 NA
ATOM      3  N   UNL     1      -1.498  12.567  22.914  0.00  0.00    +0.000 N 
ATOM      4  C   UNL     1      -2.816  13.008  23.065  0.00  0.00    +0.000 A 
ATOM      5  N   UNL     1      -3.924  12.473  22.499  0.00  0.00    +0.000 NA
ATOM      6  C   UNL     1      -5.055  13.083  22.749  0.00  0.00    +0.000 A 
ATOM      7  N   UNL     1      -6.247  12.691  22.174  0.00  0.00    +0.000 N 
ATOM      8  N   UNL     1      -5.122  14.176  23.643  0.00  0.00    +0.000 N 
ATOM      9  C   UNL     1      -3.990  14.762  24.252  0.00  0.00    +0.000 A 
ATOM     10  O   UNL     1      -4.072  15.708  25.034  0.00  0.00    +0.000 OA
ATOM     11  C   UNL     1      -2.764  14.120  23.871  0.00  0.00    +0.000 A 
ATOM     12  H   UNL     1      -7.068  13.194  22.487  0.00  0.00    +0.000 HD
ENDROOT
BRANCH   7  13
ATOM     13  C   UNL     1      -6.425  11.888  21.031  0.00  0.00    +0.000 A 
ATOM     14  C   UNL     1      -5.747  12.117  19.825  0.00  0.00    +0.000 A 
ATOM     15  C   UNL     1      -5.834  11.225  18.752  0.00  0.00    +0.000 A 
ATOM     16  C   UNL     1      -6.615  10.081  18.862  0.00  0.00    +0.000 A 
ATOM     17  C   UNL     1      -7.325   9.843  20.036  0.00  0.00    +0.000 A 
ATOM     18  C   UNL     1      -7.226  10.740  21.102  0.00  0.00    +0.000 A 
ATOM     19  F   UNL     1      -7.909  10.478  22.229  0.00  0.00    +0.000 F 
ENDBRANCH   7  13
BRANCH   3  20
ATOM     20  C   UNL     1      -0.972  11.409  22.257  0.00  0.00    +0.000 A 
ATOM     21  C   UNL     1      -0.794  10.229  23.003  0.00  0.00    +0.000 A 
ATOM     22  C   UNL     1      -0.317   9.064  22.397  0.00  0.00    +0.000 A 
ATOM     23  C   UNL     1      -0.004   9.063  21.042  0.00  0.00    +0.000 A 
ATOM     24  C   UNL     1      -0.167  10.228  20.294  0.00  0.00    +0.000 A 
ATOM     25  C   UNL     1      -0.651  11.397  20.894  0.00  0.00    +0.000 A 
ENDBRANCH   3  20
BRANCH   8  26
ATOM     26  N   UNL     1      -6.417  14.729  23.970  0.00  0.00    +0.000 N 
ATOM     27  H   UNL     1      -6.654  14.361  24.896  0.00  0.00    +0.000 HD
ATOM     28  H   UNL     1      -6.243  15.729  24.155  0.00  0.00    +0.000 HD
ENDBRANCH   8  26
BRANCH   1  30
ATOM     29  C   UNL     1      -1.062  17.085  23.718  0.00  0.00    +0.000 C 
ATOM     30  S   UNL     1      -0.724  15.753  24.889  0.00  0.00    +0.000 S 
ENDBRANCH   1  30
TORSDOF 4
ENDMDL
MODEL 2
REMARK VINA RESULT:      -6.8      1.110      1.462
REMARK  Name = 
REMARK  5 active torsions:
REMARK  status: ('A' for Active; 'I' for Inactive)
REMARK    1  A    between atoms: C_1  and  S_2
REMARK    2  A    between atoms: S_2  and  C_3
REMARK    3  A    between atoms: N_5  and  C_6
REMARK    4  A    between atoms: N_15  and  C_16
REMARK    5  A    between atoms: N_23  and  N_24
REMARK                            x       y       z     vdW  Elec       q    Type
REMARK                         _______ _______ _______ _____ _____    ______ ____
ROOT
ATOM      1  C   UNL     1      -1.533  14.610  23.962  0.00  0.00    +0.000 A 
ATOM      2  N   UNL     1      -0.750  13.636  23.500  0.00  0.00    +0.000 NA
ATOM      3  N   UNL     1      -1.598  12.732  22.924  0.00  0.00    +0.000 N 
ATOM      4  C   UNL     1      -2.916  13.192  22.995  0.00  0.00    +0.000 A 
ATOM      5  N   UNL     1      -4.008  12.626  22.428  0.00  0.00    +0.000 NA
ATOM      6  C   UNL     1      -5.142  13.261  22.591  0.00  0.00    +0.000 A 
ATOM      7  N   UNL     1      -6.315  12.837  22.002  0.00  0.00    +0.000 N 
ATOM      8  N   UNL     1      -5.230  14.415  23.403  0.00  0.00    +0.000 N 
ATOM      9  C   UNL     1      -4.116  15.035  24.009  0.00  0.00    +0.000 A 
ATOM     10  O   UNL     1      -4.216  16.035  24.719  0.00  0.00    +0.000 OA
ATOM     11  C   UNL     1      -2.883  14.359  23.721  0.00  0.00    +0.000 A 
ATOM     12  H   UNL     1      -7.143  13.367  22.249  0.00  0.00    +0.000 HD
ENDROOT
BRANCH   7  13
ATOM     13  C   UNL     1      -6.460  11.955  20.914  0.00  0.00    +0.000 A 
ATOM     14  C   UNL     1      -7.161  10.745  21.002  0.00  0.00    +0.000 A 
ATOM     15  C   UNL     1      -7.410   9.956  19.874  0.00  0.00    +0.000 A 
ATOM     16  C   UNL     1      -6.951  10.362  18.627  0.00  0.00    +0.000 A 
ATOM     17  C   UNL     1      -6.224  11.545  18.514  0.00  0.00    +0.000 A 
ATOM     18  C   UNL     1      -5.985  12.325  19.648  0.00  0.00    +0.000 A 
ATOM     19  F   UNL     1      -5.294  13.469  19.507  0.00  0.00    +0.000 F 
ENDBRANCH   7  13
BRANCH   3  20
ATOM     20  C   UNL     1      -1.059  11.526  22.371  0.00  0.00    +0.000 A 
ATOM     21  C   UNL     1      -0.913  10.404  23.208  0.00  0.00    +0.000 A 
ATOM     22  C   UNL     1      -0.426   9.195  22.705  0.00  0.00    +0.000 A 
ATOM     23  C   UNL     1      -0.071   9.092  21.364  0.00  0.00    +0.000 A 
ATOM     24  C   UNL     1      -0.202  10.200  20.527  0.00  0.00    +0.000 A 
ATOM     25  C   UNL     1      -0.697  11.412  21.024  0.00  0.00    +0.000 A 
ENDBRANCH   3  20
BRANCH   8  26
ATOM     26  N   UNL     1      -6.531  15.000  23.642  0.00  0.00    +0.000 N 
ATOM     27  H   UNL     1      -6.365  15.997  23.801  0.00  0.00    +0.000 HD
ATOM     28  H   UNL     1      -7.004  14.986  22.725  0.00  0.00    +0.000 HD
ENDBRANCH   8  26
BRANCH   1  30
ATOM     29  C   UNL     1      -1.114  15.729  26.454  0.00  0.00    +0.000 C 
ATOM     30  S   UNL     1      -0.865  16.046  24.695  0.00  0.00    +0.000 S 
ENDBRANCH   1  30
TORSDOF 4
ENDMDL
MODEL 3
REMARK VINA RESULT:      -6.8      3.427      6.021
REMARK  Name = 
REMARK  5 active torsions:
REMARK  status: ('A' for Active; 'I' for Inactive)
REMARK    1  A    between atoms: C_1  and  S_2
REMARK    2  A    between atoms: S_2  and  C_3
REMARK    3  A    between atoms: N_5  and  C_6
REMARK    4  A    between atoms: N_15  and  C_16
REMARK    5  A    between atoms: N_23  and  N_24
REMARK                            x       y       z     vdW  Elec       q    Type
REMARK                         _______ _______ _______ _____ _____    ______ ____
ROOT
ATOM      1  C   UNL     1      -6.291  13.265  19.429  0.00  0.00    +0.000 A 
ATOM      2  N   UNL     1      -5.925  12.508  18.396  0.00  0.00    +0.000 NA
ATOM      3  N   UNL     1      -4.636  12.138  18.657  0.00  0.00    +0.000 N 
ATOM      4  C   UNL     1      -4.229  12.640  19.896  0.00  0.00    +0.000 A 
ATOM      5  N   UNL     1      -3.066  12.381  20.538  0.00  0.00    +0.000 NA
ATOM      6  C   UNL     1      -2.919  12.931  21.717  0.00  0.00    +0.000 A 
ATOM      7  N   UNL     1      -1.818  12.688  22.512  0.00  0.00    +0.000 N 
ATOM      8  N   UNL     1      -3.880  13.827  22.237  0.00  0.00    +0.000 N 
ATOM      9  C   UNL     1      -5.105  14.122  21.600  0.00  0.00    +0.000 A 
ATOM     10  O   UNL     1      -5.924  14.912  22.066  0.00  0.00    +0.000 OA
ATOM     11  C   UNL     1      -5.263  13.420  20.357  0.00  0.00    +0.000 A 
ATOM     12  H   UNL     1      -1.778  13.215  23.375  0.00  0.00    +0.000 HD
ENDROOT
BRANCH   7  13
ATOM     13  C   UNL     1      -0.903  11.621  22.409  0.00  0.00    +0.000 A 
ATOM     14  C   UNL     1      -0.996  10.460  23.188  0.00  0.00    +0.000 A 
ATOM     15  C   UNL     1      -0.163   9.359  22.969  0.00  0.00    +0.000 A 
ATOM     16  C   UNL     1       0.795   9.402  21.963  0.00  0.00    +0.000 A 
ATOM     17  C   UNL     1       0.932  10.555  21.193  0.00  0.00    +0.000 A 
ATOM     18  C   UNL     1       0.090  11.646  21.420  0.00  0.00    +0.000 A 
ATOM     19  F   UNL     1       0.233  12.739  20.652  0.00  0.00    +0.000 F 
ENDBRANCH   7  13
BRANCH   3  20
ATOM     20  C   UNL     1      -3.930  11.347  17.694  0.00  0.00    +0.000 A 
ATOM     21  C   UNL     1      -4.383  11.338  16.361  0.00  0.00    +0.000 A 
ATOM     22  C   UNL     1      -3.706  10.611  15.379  0.00  0.00    +0.000 A 
ATOM     23  C   UNL     1      -2.573   9.877  15.715  0.00  0.00    +0.000 A 
ATOM     24  C   UNL     1      -2.120   9.871  17.034  0.00  0.00    +0.000 A 
ATOM     25  C   UNL     1      -2.790  10.604  18.021  0.00  0.00    +0.000 A 
ENDBRANCH   3  20
BRANCH   8  26
ATOM     26  N   UNL     1      -3.603  14.495  23.490  0.00  0.00    +0.000 N 
ATOM     27  H   UNL     1      -2.975  13.872  24.007  0.00  0.00    +0.000 HD
ATOM     28  H   UNL     1      -2.991  15.288  23.242  0.00  0.00    +0.000 HD
ENDBRANCH   8  26
BRANCH   1  30
ATOM     29  C   UNL     1      -7.754  15.549  18.898  0.00  0.00    +0.000 C 
ATOM     30  S   UNL     1      -7.917  13.884  19.575  0.00  0.00    +0.000 S 
ENDBRANCH   1  30
TORSDOF 4
ENDMDL
MODEL 4
REMARK VINA RESULT:      -6.6      1.208      1.762
REMARK  Name = 
REMARK  5 active torsions:
REMARK  status: ('A' for Active; 'I' for Inactive)
REMARK    1  A    between atoms: C_1  and  S_2
REMARK    2  A    between atoms: S_2  and  C_3
REMARK    3  A    between atoms: N_5  and  C_6
REMARK    4  A    between atoms: N_15  and  C_16
REMARK    5  A    between atoms: N_23  and  N_24
REMARK                            x       y       z     vdW  Elec       q    Type
REMARK                         _______ _______ _______ _____ _____    ______ ____
ROOT
ATOM      1  C   UNL     1      -1.630  14.671  24.216  0.00  0.00    +0.000 A 
ATOM      2  N   UNL     1      -0.860  13.696  23.734  0.00  0.00    +0.000 NA
ATOM      3  N   UNL     1      -1.704  12.882  23.032  0.00  0.00    +0.000 N 
ATOM      4  C   UNL     1      -3.001  13.400  23.048  0.00  0.00    +0.000 A 
ATOM      5  N   UNL     1      -4.074  12.934  22.365  0.00  0.00    +0.000 NA
ATOM      6  C   UNL     1      -5.187  13.610  22.500  0.00  0.00    +0.000 A 
ATOM      7  N   UNL     1      -6.333  13.291  21.801  0.00  0.00    +0.000 N 
ATOM      8  N   UNL     1      -5.282  14.703  23.392  0.00  0.00    +0.000 N 
ATOM      9  C   UNL     1      -4.188  15.220  24.120  0.00  0.00    +0.000 A 
ATOM     10  O   UNL     1      -4.295  16.167  24.897  0.00  0.00    +0.000 OA
ATOM     11  C   UNL     1      -2.969  14.506  23.864  0.00  0.00    +0.000 A 
ATOM     12  H   UNL     1      -7.151  13.841  22.031  0.00  0.00    +0.000 HD
ENDROOT
BRANCH   7  13
ATOM     13  C   UNL     1      -6.438  12.502  20.639  0.00  0.00    +0.000 A 
ATOM     14  C   UNL     1      -6.878  11.171  20.659  0.00  0.00    +0.000 A 
ATOM     15  C   UNL     1      -7.107  10.455  19.480  0.00  0.00    +0.000 A 
ATOM     16  C   UNL     1      -6.890  11.059  18.248  0.00  0.00    +0.000 A 
ATOM     17  C   UNL     1      -6.423  12.369  18.197  0.00  0.00    +0.000 A 
ATOM     18  C   UNL     1      -6.202  13.075  19.382  0.00  0.00    +0.000 A 
ATOM     19  F   UNL     1      -5.766  14.343  19.303  0.00  0.00    +0.000 F 
ENDBRANCH   7  13
BRANCH   3  20
ATOM     20  C   UNL     1      -1.181  11.695  22.424  0.00  0.00    +0.000 A 
ATOM     21  C   UNL     1      -0.857  11.721  21.055  0.00  0.00    +0.000 A 
ATOM     22  C   UNL     1      -0.311  10.599  20.427  0.00  0.00    +0.000 A 
ATOM     23  C   UNL     1      -0.088   9.435  21.154  0.00  0.00    +0.000 A 
ATOM     24  C   UNL     1      -0.414   9.393  22.509  0.00  0.00    +0.000 A 
ATOM     25  C   UNL     1      -0.955  10.518  23.146  0.00  0.00    +0.000 A 
ENDBRANCH   3  20
BRANCH   8  26
ATOM     26  N   UNL     1      -6.570  15.333  23.586  0.00  0.00    +0.000 N 
ATOM     27  H   UNL     1      -6.936  14.957  24.465  0.00  0.00    +0.000 HD
ATOM     28  H   UNL     1      -6.356  16.314  23.823  0.00  0.00    +0.000 HD
ENDBRANCH   8  26
BRANCH   1  30
ATOM     29  C   UNL     1      -0.505  17.157  23.781  0.00  0.00    +0.000 C 
ATOM     30  S   UNL     1      -0.953  16.012  25.103  0.00  0.00    +0.000 S 
ENDBRANCH   1  30
TORSDOF 4
ENDMDL
MODEL 5
REMARK VINA RESULT:      -6.5      1.050      1.087
REMARK  Name = 
REMARK  5 active torsions:
REMARK  status: ('A' for Active; 'I' for Inactive)
REMARK    1  A    between atoms: C_1  and  S_2
REMARK    2  A    between atoms: S_2  and  C_3
REMARK    3  A    between atoms: N_5  and  C_6
REMARK    4  A    between atoms: N_15  and  C_16
REMARK    5  A    between atoms: N_23  and  N_24
REMARK                            x       y       z     vdW  Elec       q    Type
REMARK                         _______ _______ _______ _____ _____    ______ ____
ROOT
ATOM      1  C   UNL     1      -1.851  15.199  24.350  0.00  0.00    +0.000 A 
ATOM      2  N   UNL     1      -0.963  14.304  23.918  0.00  0.00    +0.000 NA
ATOM      3  N   UNL     1      -1.687  13.394  23.201  0.00  0.00    +0.000 N 
ATOM      4  C   UNL     1      -3.032  13.770  23.157  0.00  0.00    +0.000 A 
ATOM      5  N   UNL     1      -4.020  13.181  22.444  0.00  0.00    +0.000 NA
ATOM      6  C   UNL     1      -5.204  13.737  22.523  0.00  0.00    +0.000 A 
ATOM      7  N   UNL     1      -6.280  13.286  21.788  0.00  0.00    +0.000 N 
ATOM      8  N   UNL     1      -5.449  14.827  23.388  0.00  0.00    +0.000 N 
ATOM      9  C   UNL     1      -4.446  15.469  24.147  0.00  0.00    +0.000 A 
ATOM     10  O   UNL     1      -4.684  16.412  24.900  0.00  0.00    +0.000 OA
ATOM     11  C   UNL     1      -3.149  14.886  23.952  0.00  0.00    +0.000 A 
ATOM     12  H   UNL     1      -7.161  13.749  21.975  0.00  0.00    +0.000 HD
ENDROOT
BRANCH   7  13
ATOM     13  C   UNL     1      -6.254  12.471  20.639  0.00  0.00    +0.000 A 
ATOM     14  C   UNL     1      -5.420  12.727  19.542  0.00  0.00    +0.000 A 
ATOM     15  C   UNL     1      -5.310  11.829  18.477  0.00  0.00    +0.000 A 
ATOM     16  C   UNL     1      -6.046  10.650  18.484  0.00  0.00    +0.000 A 
ATOM     17  C   UNL     1      -6.907  10.383  19.545  0.00  0.00    +0.000 A 
ATOM     18  C   UNL     1      -7.005  11.288  20.605  0.00  0.00    +0.000 A 
ATOM     19  F   UNL     1      -7.831  10.998  21.623  0.00  0.00    +0.000 F 
ENDBRANCH   7  13
BRANCH   3  20
ATOM     20  C   UNL     1      -1.017  12.261  22.638  0.00  0.00    +0.000 A 
ATOM     21  C   UNL     1      -1.239  10.991  23.204  0.00  0.00    +0.000 A 
ATOM     22  C   UNL     1      -0.636   9.851  22.666  0.00  0.00    +0.000 A 
ATOM     23  C   UNL     1       0.202   9.964  21.562  0.00  0.00    +0.000 A 
ATOM     24  C   UNL     1       0.438  11.217  20.998  0.00  0.00    +0.000 A 
ATOM     25  C   UNL     1      -0.169  12.362  21.528  0.00  0.00    +0.000 A 
ENDBRANCH   3  20
BRANCH   8  26
ATOM     26  N   UNL     1      -6.804  15.318  23.521  0.00  0.00    +0.000 N 
ATOM     27  H   UNL     1      -7.319  14.589  24.023  0.00  0.00    +0.000 HD
ATOM     28  H   UNL     1      -6.746  16.080  24.214  0.00  0.00    +0.000 HD
ENDBRANCH   8  26
BRANCH   1  30
ATOM     29  C   UNL     1      -0.576  15.906  26.698  0.00  0.00    +0.000 C 
ATOM     30  S   UNL     1      -1.356  16.619  25.235  0.00  0.00    +0.000 S 
ENDBRANCH   1  30
TORSDOF 4
ENDMDL
MODEL 6
REMARK VINA RESULT:      -6.4      4.323      7.308
REMARK  Name = 
REMARK  5 active torsions:
REMARK  status: ('A' for Active; 'I' for Inactive)
REMARK    1  A    between atoms: C_1  and  S_2
REMARK    2  A    between atoms: S_2  and  C_3
REMARK    3  A    between atoms: N_5  and  C_6
REMARK    4  A    between atoms: N_15  and  C_16
REMARK    5  A    between atoms: N_23  and  N_24
REMARK                            x       y       z     vdW  Elec       q    Type
REMARK                         _______ _______ _______ _____ _____    ______ ____
ROOT
ATOM      1  C   UNL     1      -5.761  12.309  19.434  0.00  0.00    +0.000 A 
ATOM      2  N   UNL     1      -5.694  12.830  20.659  0.00  0.00    +0.000 NA
ATOM      3  N   UNL     1      -4.361  12.918  20.943  0.00  0.00    +0.000 N 
ATOM      4  C   UNL     1      -3.603  12.487  19.851  0.00  0.00    +0.000 A 
ATOM      5  N   UNL     1      -2.257  12.542  19.720  0.00  0.00    +0.000 NA
ATOM      6  C   UNL     1      -1.766  12.117  18.582  0.00  0.00    +0.000 A 
ATOM      7  N   UNL     1      -0.420  12.191  18.287  0.00  0.00    +0.000 N 
ATOM      8  N   UNL     1      -2.594  11.539  17.593  0.00  0.00    +0.000 N 
ATOM      9  C   UNL     1      -4.000  11.465  17.691  0.00  0.00    +0.000 A 
ATOM     10  O   UNL     1      -4.701  10.950  16.821  0.00  0.00    +0.000 OA
ATOM     11  C   UNL     1      -4.499  12.030  18.912  0.00  0.00    +0.000 A 
ATOM     12  H   UNL     1      -0.144  11.775  17.406  0.00  0.00    +0.000 HD
ENDROOT
BRANCH   7  13
ATOM     13  C   UNL     1       0.553  12.994  18.912  0.00  0.00    +0.000 A 
ATOM     14  C   UNL     1       0.696  14.363  18.647  0.00  0.00    +0.000 A 
ATOM     15  C   UNL     1       1.574  15.165  19.382  0.00  0.00    +0.000 A 
ATOM     16  C   UNL     1       2.340  14.608  20.399  0.00  0.00    +0.000 A 
ATOM     17  C   UNL     1       2.242  13.244  20.663  0.00  0.00    +0.000 A 
ATOM     18  C   UNL     1       1.358  12.454  19.925  0.00  0.00    +0.000 A 
ATOM     19  F   UNL     1       1.273  11.145  20.212  0.00  0.00    +0.000 F 
ENDBRANCH   7  13
BRANCH   3  20
ATOM     20  C   UNL     1      -3.953  13.400  22.228  0.00  0.00    +0.000 A 
ATOM     21  C   UNL     1      -3.400  14.691  22.323  0.00  0.00    +0.000 A 
ATOM     22  C   UNL     1      -3.020  15.218  23.560  0.00  0.00    +0.000 A 
ATOM     23  C   UNL     1      -3.181  14.463  24.717  0.00  0.00    +0.000 A 
ATOM     24  C   UNL     1      -3.720  13.179  24.635  0.00  0.00    +0.000 A 
ATOM     25  C   UNL     1      -4.109  12.648  23.398  0.00  0.00    +0.000 A 
ENDBRANCH   3  20
BRANCH   8  26
ATOM     26  N   UNL     1      -1.977  10.980  16.410  0.00  0.00    +0.000 N 
ATOM     27  H   UNL     1      -1.535  11.767  15.925  0.00  0.00    +0.000 HD
ATOM     28  H   UNL     1      -1.170  10.440  16.758  0.00  0.00    +0.000 HD
ENDBRANCH   8  26
BRANCH   1  30
ATOM     29  C   UNL     1      -7.222  13.415  17.366  0.00  0.00    +0.000 C 
ATOM     30  S   UNL     1      -7.286  12.109  18.610  0.00  0.00    +0.000 S 
ENDBRANCH   1  30
TORSDOF 4
ENDMDL
MODEL 7
REMARK VINA RESULT:      -6.3      1.130      1.453
REMARK  Name = 
REMARK  5 active torsions:
REMARK  status: ('A' for Active; 'I' for Inactive)
REMARK    1  A    between atoms: C_1  and  S_2
REMARK    2  A    between atoms: S_2  and  C_3
REMARK    3  A    between atoms: N_5  and  C_6
REMARK    4  A    between atoms: N_15  and  C_16
REMARK    5  A    between atoms: N_23  and  N_24
REMARK                            x       y       z     vdW  Elec       q    Type
REMARK                         _______ _______ _______ _____ _____    ______ ____
ROOT
ATOM      1  C   UNL     1      -0.923  14.924  23.030  0.00  0.00    +0.000 A 
ATOM      2  N   UNL     1      -0.300  13.768  22.810  0.00  0.00    +0.000 NA
ATOM      3  N   UNL     1      -1.277  12.902  22.407  0.00  0.00    +0.000 N 
ATOM      4  C   UNL     1      -2.508  13.559  22.334  0.00  0.00    +0.000 A 
ATOM      5  N   UNL     1      -3.673  13.058  21.861  0.00  0.00    +0.000 NA
ATOM      6  C   UNL     1      -4.695  13.877  21.849  0.00  0.00    +0.000 A 
ATOM      7  N   UNL     1      -5.919  13.520  21.322  0.00  0.00    +0.000 N 
ATOM      8  N   UNL     1      -4.605  15.176  22.398  0.00  0.00    +0.000 N 
ATOM      9  C   UNL     1      -3.409  15.735  22.899  0.00  0.00    +0.000 A 
ATOM     10  O   UNL     1      -3.354  16.866  23.380  0.00  0.00    +0.000 OA
ATOM     11  C   UNL     1      -2.295  14.835  22.801  0.00  0.00    +0.000 A 
ATOM     12  H   UNL     1      -6.655  14.209  21.423  0.00  0.00    +0.000 HD
ENDROOT
BRANCH   7  13
ATOM     13  C   UNL     1      -6.197  12.460  20.437  0.00  0.00    +0.000 A 
ATOM     14  C   UNL     1      -5.548  12.307  19.204  0.00  0.00    +0.000 A 
ATOM     15  C   UNL     1      -5.739  11.172  18.410  0.00  0.00    +0.000 A 
ATOM     16  C   UNL     1      -6.597  10.164  18.833  0.00  0.00    +0.000 A 
ATOM     17  C   UNL     1      -7.280  10.303  20.038  0.00  0.00    +0.000 A 
ATOM     18  C   UNL     1      -7.077  11.440  20.825  0.00  0.00    +0.000 A 
ATOM     19  F   UNL     1      -7.736  11.541  21.990  0.00  0.00    +0.000 F 
ENDBRANCH   7  13
BRANCH   3  20
ATOM     20  C   UNL     1      -0.931  11.539  22.137  0.00  0.00    +0.000 A 
ATOM     21  C   UNL     1      -0.627  11.165  20.814  0.00  0.00    +0.000 A 
ATOM     22  C   UNL     1      -0.249   9.856  20.508  0.00  0.00    +0.000 A 
ATOM     23  C   UNL     1      -0.177   8.899  21.516  0.00  0.00    +0.000 A 
ATOM     24  C   UNL     1      -0.485   9.254  22.829  0.00  0.00    +0.000 A 
ATOM     25  C   UNL     1      -0.857  10.568  23.143  0.00  0.00    +0.000 A 
ENDBRANCH   3  20
BRANCH   8  26
ATOM     26  N   UNL     1      -5.800  15.988  22.464  0.00  0.00    +0.000 N 
ATOM     27  H   UNL     1      -6.271  15.867  21.563  0.00  0.00    +0.000 HD
ATOM     28  H   UNL     1      -6.424  15.495  23.121  0.00  0.00    +0.000 HD
ENDBRANCH   8  26
BRANCH   1  30
ATOM     29  C   UNL     1      -0.392  16.505  25.234  0.00  0.00    +0.000 C 
ATOM     30  S   UNL     1      -0.041  16.365  23.469  0.00  0.00    +0.000 S 
ENDBRANCH   1  30
TORSDOF 4
ENDMDL
MODEL 8
REMARK VINA RESULT:      -6.3      4.371      7.341
REMARK  Name = 
REMARK  5 active torsions:
REMARK  status: ('A' for Active; 'I' for Inactive)
REMARK    1  A    between atoms: C_1  and  S_2
REMARK    2  A    between atoms: S_2  and  C_3
REMARK    3  A    between atoms: N_5  and  C_6
REMARK    4  A    between atoms: N_15  and  C_16
REMARK    5  A    between atoms: N_23  and  N_24
REMARK                            x       y       z     vdW  Elec       q    Type
REMARK                         _______ _______ _______ _____ _____    ______ ____
ROOT
ATOM      1  C   UNL     1      -5.762  12.297  19.366  0.00  0.00    +0.000 A 
ATOM      2  N   UNL     1      -5.755  12.847  20.580  0.00  0.00    +0.000 NA
ATOM      3  N   UNL     1      -4.436  12.967  20.915  0.00  0.00    +0.000 N 
ATOM      4  C   UNL     1      -3.627  12.527  19.865  0.00  0.00    +0.000 A 
ATOM      5  N   UNL     1      -2.278  12.606  19.787  0.00  0.00    +0.000 NA
ATOM      6  C   UNL     1      -1.733  12.167  18.680  0.00  0.00    +0.000 A 
ATOM      7  N   UNL     1      -0.378  12.260  18.437  0.00  0.00    +0.000 N 
ATOM      8  N   UNL     1      -2.508  11.550  17.672  0.00  0.00    +0.000 N 
ATOM      9  C   UNL     1      -3.916  11.449  17.715  0.00  0.00    +0.000 A 
ATOM     10  O   UNL     1      -4.571  10.901  16.830  0.00  0.00    +0.000 OA
ATOM     11  C   UNL     1      -4.475  12.032  18.902  0.00  0.00    +0.000 A 
ATOM     12  H   UNL     1      -0.058  11.831  17.578  0.00  0.00    +0.000 HD
ENDROOT
BRANCH   7  13
ATOM     13  C   UNL     1       0.554  13.096  19.082  0.00  0.00    +0.000 A 
ATOM     14  C   UNL     1       1.593  12.603  19.883  0.00  0.00    +0.000 A 
ATOM     15  C   UNL     1       2.587  13.443  20.396  0.00  0.00    +0.000 A 
ATOM     16  C   UNL     1       2.555  14.805  20.123  0.00  0.00    +0.000 A 
ATOM     17  C   UNL     1       1.517  15.328  19.356  0.00  0.00    +0.000 A 
ATOM     18  C   UNL     1       0.532  14.478  18.846  0.00  0.00    +0.000 A 
ATOM     19  F   UNL     1      -0.449  15.007  18.097  0.00  0.00    +0.000 F 
ENDBRANCH   7  13
BRANCH   3  20
ATOM     20  C   UNL     1      -4.090  13.486  22.204  0.00  0.00    +0.000 A 
ATOM     21  C   UNL     1      -4.129  12.623  23.315  0.00  0.00    +0.000 A 
ATOM     22  C   UNL     1      -3.765  13.075  24.586  0.00  0.00    +0.000 A 
ATOM     23  C   UNL     1      -3.367  14.396  24.767  0.00  0.00    +0.000 A 
ATOM     24  C   UNL     1      -3.334  15.263  23.676  0.00  0.00    +0.000 A 
ATOM     25  C   UNL     1      -3.690  14.814  22.398  0.00  0.00    +0.000 A 
ENDBRANCH   3  20
BRANCH   8  26
ATOM     26  N   UNL     1      -1.833  10.977  16.528  0.00  0.00    +0.000 N 
ATOM     27  H   UNL     1      -2.260  11.411  15.704  0.00  0.00    +0.000 HD
ATOM     28  H   UNL     1      -0.887  11.386  16.542  0.00  0.00    +0.000 HD
ENDBRANCH   8  26
BRANCH   1  30
ATOM     29  C   UNL     1      -7.917  13.722  18.384  0.00  0.00    +0.000 C 
ATOM     30  S   UNL     1      -7.249  12.048  18.487  0.00  0.00    +0.000 S 
ENDBRANCH   1  30
TORSDOF 4
ENDMDL
MODEL 9
REMARK VINA RESULT:      -6.2      3.328      6.164
REMARK  Name = 
REMARK  5 active torsions:
REMARK  status: ('A' for Active; 'I' for Inactive)
REMARK    1  A    between atoms: C_1  and  S_2
REMARK    2  A    between atoms: S_2  and  C_3
REMARK    3  A    between atoms: N_5  and  C_6
REMARK    4  A    between atoms: N_15  and  C_16
REMARK    5  A    between atoms: N_23  and  N_24
REMARK                            x       y       z     vdW  Elec       q    Type
REMARK                         _______ _______ _______ _____ _____    ______ ____
ROOT
ATOM      1  C   UNL     1      -5.342  13.202  20.110  0.00  0.00    +0.000 A 
ATOM      2  N   UNL     1      -5.321  12.554  18.946  0.00  0.00    +0.000 NA
ATOM      3  N   UNL     1      -4.064  12.028  18.848  0.00  0.00    +0.000 N 
ATOM      4  C   UNL     1      -3.324  12.322  19.996  0.00  0.00    +0.000 A 
ATOM      5  N   UNL     1      -2.087  11.869  20.308  0.00  0.00    +0.000 NA
ATOM      6  C   UNL     1      -1.606  12.243  21.467  0.00  0.00    +0.000 A 
ATOM      7  N   UNL     1      -0.392  11.791  21.942  0.00  0.00    +0.000 N 
ATOM      8  N   UNL     1      -2.302  13.155  22.294  0.00  0.00    +0.000 N 
ATOM      9  C   UNL     1      -3.593  13.649  22.005  0.00  0.00    +0.000 A 
ATOM     10  O   UNL     1      -4.177  14.448  22.735  0.00  0.00    +0.000 OA
ATOM     11  C   UNL     1      -4.118  13.133  20.773  0.00  0.00    +0.000 A 
ATOM     12  H   UNL     1      -0.089  12.196  22.820  0.00  0.00    +0.000 HD
ENDROOT
BRANCH   7  13
ATOM     13  C   UNL     1       0.332  10.663  21.511  0.00  0.00    +0.000 A 
ATOM     14  C   UNL     1       0.445   9.493  22.275  0.00  0.00    +0.000 A 
ATOM     15  C   UNL     1       1.049   8.339  21.766  0.00  0.00    +0.000 A 
ATOM     16  C   UNL     1       1.564   8.336  20.476  0.00  0.00    +0.000 A 
ATOM     17  C   UNL     1       1.495   9.493  19.705  0.00  0.00    +0.000 A 
ATOM     18  C   UNL     1       0.885  10.638  20.223  0.00  0.00    +0.000 A 
ATOM     19  F   UNL     1       0.818  11.736  19.452  0.00  0.00    +0.000 F 
ENDBRANCH   7  13
BRANCH   3  20
ATOM     20  C   UNL     1      -3.702  11.304  17.666  0.00  0.00    +0.000 A 
ATOM     21  C   UNL     1      -2.631  10.394  17.730  0.00  0.00    +0.000 A 
ATOM     22  C   UNL     1      -2.264   9.639  16.613  0.00  0.00    +0.000 A 
ATOM     23  C   UNL     1      -2.957   9.788  15.416  0.00  0.00    +0.000 A 
ATOM     24  C   UNL     1      -4.014  10.694  15.337  0.00  0.00    +0.000 A 
ATOM     25  C   UNL     1      -4.390  11.448  16.456  0.00  0.00    +0.000 A 
ENDBRANCH   3  20
BRANCH   8  26
ATOM     26  N   UNL     1      -1.663  13.623  23.504  0.00  0.00    +0.000 N 
ATOM     27  H   UNL     1      -0.874  14.201  23.200  0.00  0.00    +0.000 HD
ATOM     28  H   UNL     1      -2.317  14.313  23.903  0.00  0.00    +0.000 HD
ENDBRANCH   8  26
BRANCH   1  30
ATOM     29  C   UNL     1      -7.399  12.733  21.895  0.00  0.00    +0.000 C 
ATOM     30  S   UNL     1      -6.800  13.953  20.708  0.00  0.00    +0.000 S 
ENDBRANCH   1  30
TORSDOF 4
ENDMDL
