MODEL 1
REMARK VINA RESULT:      -7.8      0.000      0.000
REMARK  Name = 
REMARK  3 active torsions:
REMARK  status: ('A' for Active; 'I' for Inactive)
REMARK    1  A    between atoms: C_2  and  C_3
REMARK    2  A    between atoms: C_3  and  N_4
REMARK    3  A    between atoms: C_8  and  C_9
REMARK                            x       y       z     vdW  Elec       q    Type
REMARK                         _______ _______ _______ _____ _____    ______ ____
ROOT
ATOM      1  N   UNL     1       4.704   4.293  17.438  0.00  0.00    +0.000 N 
ATOM      2  C   UNL     1       4.462   5.613  17.117  0.00  0.00    +0.000 A 
ATOM      3  N   UNL     1       3.664   6.429  17.727  0.00  0.00    +0.000 NA
ATOM      4  C   UNL     1       3.042   5.885  18.864  0.00  0.00    +0.000 A 
ATOM      5  C   UNL     1       2.168   6.605  19.735  0.00  0.00    +0.000 A 
ATOM      6  C   UNL     1       1.768   5.775  20.774  0.00  0.00    +0.000 A 
ATOM      7  S   UNL     1       2.395   4.182  20.651  0.00  0.00    +0.000 S 
ATOM      8  C   UNL     1       3.237   4.584  19.241  0.00  0.00    +0.000 A 
ATOM      9  C   UNL     1       4.072   3.675  18.513  0.00  0.00    +0.000 A 
ATOM     10  O   UNL     1       4.200   2.478  18.763  0.00  0.00    +0.000 OA
ENDROOT
BRANCH   5  11
ATOM     11  C   UNL     1       1.739   8.003  19.660  0.00  0.00    +0.000 A 
ATOM     12  C   UNL     1       1.857   8.734  18.468  0.00  0.00    +0.000 A 
ATOM     13  C   UNL     1       1.417  10.057  18.393  0.00  0.00    +0.000 A 
ATOM     14  C   UNL     1       0.868  10.674  19.514  0.00  0.00    +0.000 A 
ATOM     15  C   UNL     1       0.763   9.972  20.711  0.00  0.00    +0.000 A 
ATOM     16  C   UNL     1       1.191   8.645  20.781  0.00  0.00    +0.000 A 
ENDBRANCH   5  11
BRANCH   1  17
ATOM     17  C   UNL     1       5.603   3.506  16.621  0.00  0.00    +0.000 C 
BRANCH  17  19
ATOM     18  O   UNL     1       7.620   4.845  16.611  0.00  0.00    +0.000 OA
ATOM     19  C   UNL     1       6.694   4.362  15.961  0.00  0.00    +0.000 C 
ATOM     20  N   UNL     1       6.529   4.593  14.593  0.00  0.00    +0.000 N 
ATOM     21  C   UNL     1       5.405   4.118  13.785  0.00  0.00    +0.000 C 
ATOM     22  C   UNL     1       5.899   3.362  12.559  0.00  0.00    +0.000 C 
ATOM     23  C   UNL     1       6.892   4.199  11.755  0.00  0.00    +0.000 C 
ATOM     24  C   UNL     1       8.022   4.727  12.642  0.00  0.00    +0.000 C 
ATOM     25  C   UNL     1       7.483   5.441  13.879  0.00  0.00    +0.000 C 
ENDBRANCH  17  19
ENDBRANCH   1  17
TORSDOF 3
ENDMDL
MODEL 2
REMARK VINA RESULT:      -7.7      2.405      4.038
REMARK  Name = 
REMARK  3 active torsions:
REMARK  status: ('A' for Active; 'I' for Inactive)
REMARK    1  A    between atoms: C_2  and  C_3
REMARK    2  A    between atoms: C_3  and  N_4
REMARK    3  A    between atoms: C_8  and  C_9
REMARK                            x       y       z     vdW  Elec       q    Type
REMARK                         _______ _______ _______ _____ _____    ______ ____
ROOT
ATOM      1  N   UNL     1       2.435   7.043  18.749  0.00  0.00    +0.000 N 
ATOM      2  C   UNL     1       2.452   8.187  17.979  0.00  0.00    +0.000 A 
ATOM      3  N   UNL     1       1.973   9.347  18.297  0.00  0.00    +0.000 NA
ATOM      4  C   UNL     1       1.441   9.414  19.596  0.00  0.00    +0.000 A 
ATOM      5  C   UNL     1       0.911  10.597  20.196  0.00  0.00    +0.000 A 
ATOM      6  C   UNL     1       0.509  10.314  21.495  0.00  0.00    +0.000 A 
ATOM      7  S   UNL     1       0.726   8.666  21.929  0.00  0.00    +0.000 S 
ATOM      8  C   UNL     1       1.392   8.319  20.415  0.00  0.00    +0.000 A 
ATOM      9  C   UNL     1       1.866   7.025  20.019  0.00  0.00    +0.000 A 
ATOM     10  O   UNL     1       1.755   5.998  20.686  0.00  0.00    +0.000 OA
ENDROOT
BRANCH   5  11
ATOM     11  C   UNL     1       0.807  11.947  19.638  0.00  0.00    +0.000 A 
ATOM     12  C   UNL     1      -0.324  12.344  18.910  0.00  0.00    +0.000 A 
ATOM     13  C   UNL     1      -0.432  13.642  18.407  0.00  0.00    +0.000 A 
ATOM     14  C   UNL     1       0.596  14.558  18.612  0.00  0.00    +0.000 A 
ATOM     15  C   UNL     1       1.736  14.175  19.313  0.00  0.00    +0.000 A 
ATOM     16  C   UNL     1       1.837  12.881  19.826  0.00  0.00    +0.000 A 
ENDBRANCH   5  11
BRANCH   1  17
ATOM     17  C   UNL     1       2.982   5.811  18.222  0.00  0.00    +0.000 C 
BRANCH  17  19
ATOM     18  O   UNL     1       4.822   5.441  19.752  0.00  0.00    +0.000 OA
ATOM     19  C   UNL     1       4.462   5.624  18.590  0.00  0.00    +0.000 C 
ATOM     20  N   UNL     1       5.361   5.727  17.526  0.00  0.00    +0.000 N 
ATOM     21  C   UNL     1       5.001   6.027  16.140  0.00  0.00    +0.000 C 
ATOM     22  C   UNL     1       5.579   4.986  15.191  0.00  0.00    +0.000 C 
ATOM     23  C   UNL     1       7.086   4.832  15.389  0.00  0.00    +0.000 C 
ATOM     24  C   UNL     1       7.431   4.576  16.858  0.00  0.00    +0.000 C 
ATOM     25  C   UNL     1       6.798   5.619  17.777  0.00  0.00    +0.000 C 
ENDBRANCH  17  19
ENDBRANCH   1  17
TORSDOF 3
ENDMDL
MODEL 3
REMARK VINA RESULT:      -7.7      2.483      8.189
REMARK  Name = 
REMARK  3 active torsions:
REMARK  status: ('A' for Active; 'I' for Inactive)
REMARK    1  A    between atoms: C_2  and  C_3
REMARK    2  A    between atoms: C_3  and  N_4
REMARK    3  A    between atoms: C_8  and  C_9
REMARK                            x       y       z     vdW  Elec       q    Type
REMARK                         _______ _______ _______ _____ _____    ______ ____
ROOT
ATOM      1  N   UNL     1       2.144   6.373  19.985  0.00  0.00    +0.000 N 
ATOM      2  C   UNL     1       3.112   6.887  19.147  0.00  0.00    +0.000 A 
ATOM      3  N   UNL     1       3.839   6.230  18.301  0.00  0.00    +0.000 NA
ATOM      4  C   UNL     1       3.535   4.860  18.223  0.00  0.00    +0.000 A 
ATOM      5  C   UNL     1       4.155   3.941  17.322  0.00  0.00    +0.000 A 
ATOM      6  C   UNL     1       3.589   2.683  17.485  0.00  0.00    +0.000 A 
ATOM      7  S   UNL     1       2.395   2.631  18.719  0.00  0.00    +0.000 S 
ATOM      8  C   UNL     1       2.586   4.283  19.023  0.00  0.00    +0.000 A 
ATOM      9  C   UNL     1       1.839   5.015  20.003  0.00  0.00    +0.000 A 
ATOM     10  O   UNL     1       1.049   4.520  20.804  0.00  0.00    +0.000 OA
ENDROOT
BRANCH   5  11
ATOM     11  C   UNL     1       5.192   4.191  16.319  0.00  0.00    +0.000 A 
ATOM     12  C   UNL     1       4.949   3.967  14.956  0.00  0.00    +0.000 A 
ATOM     13  C   UNL     1       5.931   4.238  14.000  0.00  0.00    +0.000 A 
ATOM     14  C   UNL     1       7.175   4.721  14.395  0.00  0.00    +0.000 A 
ATOM     15  C   UNL     1       7.442   4.928  15.746  0.00  0.00    +0.000 A 
ATOM     16  C   UNL     1       6.455   4.670  16.699  0.00  0.00    +0.000 A 
ENDBRANCH   5  11
BRANCH   1  17
ATOM     17  C   UNL     1       1.449   7.248  20.905  0.00  0.00    +0.000 C 
BRANCH  17  19
ATOM     18  O   UNL     1       1.402   8.890  19.126  0.00  0.00    +0.000 OA
ATOM     19  C   UNL     1       1.220   8.649  20.318  0.00  0.00    +0.000 C 
ATOM     20  N   UNL     1       0.844   9.630  21.239  0.00  0.00    +0.000 N 
ATOM     21  C   UNL     1       0.695   9.423  22.681  0.00  0.00    +0.000 C 
ATOM     22  C   UNL     1      -0.670   9.901  23.159  0.00  0.00    +0.000 C 
ATOM     23  C   UNL     1      -0.930  11.347  22.739  0.00  0.00    +0.000 C 
ATOM     24  C   UNL     1      -0.709  11.538  21.237  0.00  0.00    +0.000 C 
ATOM     25  C   UNL     1       0.653  11.010  20.794  0.00  0.00    +0.000 C 
ENDBRANCH  17  19
ENDBRANCH   1  17
TORSDOF 3
ENDMDL
MODEL 4
REMARK VINA RESULT:      -7.5      3.515      8.659
REMARK  Name = 
REMARK  3 active torsions:
REMARK  status: ('A' for Active; 'I' for Inactive)
REMARK    1  A    between atoms: C_2  and  C_3
REMARK    2  A    between atoms: C_3  and  N_4
REMARK    3  A    between atoms: C_8  and  C_9
REMARK                            x       y       z     vdW  Elec       q    Type
REMARK                         _______ _______ _______ _____ _____    ______ ____
ROOT
ATOM      1  N   UNL     1       1.419   9.174  19.108  0.00  0.00    +0.000 N 
ATOM      2  C   UNL     1       2.282   9.095  18.035  0.00  0.00    +0.000 A 
ATOM      3  N   UNL     1       3.089   8.122  17.755  0.00  0.00    +0.000 NA
ATOM      4  C   UNL     1       2.999   7.029  18.633  0.00  0.00    +0.000 A 
ATOM      5  C   UNL     1       3.740   5.815  18.498  0.00  0.00    +0.000 A 
ATOM      6  C   UNL     1       3.379   4.939  19.513  0.00  0.00    +0.000 A 
ATOM      7  S   UNL     1       2.227   5.600  20.602  0.00  0.00    +0.000 S 
ATOM      8  C   UNL     1       2.165   7.039  19.718  0.00  0.00    +0.000 A 
ATOM      9  C   UNL     1       1.328   8.155  20.050  0.00  0.00    +0.000 A 
ATOM     10  O   UNL     1       0.637   8.242  21.063  0.00  0.00    +0.000 OA
ENDROOT
BRANCH   5  11
ATOM     11  C   UNL     1       4.710   5.438  17.468  0.00  0.00    +0.000 A 
ATOM     12  C   UNL     1       5.940   6.103  17.353  0.00  0.00    +0.000 A 
ATOM     13  C   UNL     1       6.875   5.718  16.390  0.00  0.00    +0.000 A 
ATOM     14  C   UNL     1       6.587   4.673  15.517  0.00  0.00    +0.000 A 
ATOM     15  C   UNL     1       5.363   4.015  15.601  0.00  0.00    +0.000 A 
ATOM     16  C   UNL     1       4.434   4.392  16.573  0.00  0.00    +0.000 A 
ENDBRANCH   5  11
BRANCH   1  17
ATOM     17  C   UNL     1       0.610  10.361  19.296  0.00  0.00    +0.000 C 
BRANCH  17  19
ATOM     18  O   UNL     1      -0.772   9.561  17.476  0.00  0.00    +0.000 OA
ATOM     19  C   UNL     1      -0.631  10.371  18.391  0.00  0.00    +0.000 C 
ATOM     20  N   UNL     1      -1.552  11.389  18.650  0.00  0.00    +0.000 N 
ATOM     21  C   UNL     1      -1.398  12.430  19.667  0.00  0.00    +0.000 C 
ATOM     22  C   UNL     1      -2.622  12.490  20.572  0.00  0.00    +0.000 C 
ATOM     23  C   UNL     1      -3.906  12.643  19.759  0.00  0.00    +0.000 C 
ATOM     24  C   UNL     1      -4.006  11.574  18.669  0.00  0.00    +0.000 C 
ATOM     25  C   UNL     1      -2.743  11.521  17.812  0.00  0.00    +0.000 C 
ENDBRANCH  17  19
ENDBRANCH   1  17
TORSDOF 3
ENDMDL
MODEL 5
REMARK VINA RESULT:      -7.5      3.404      7.998
REMARK  Name = 
REMARK  3 active torsions:
REMARK  status: ('A' for Active; 'I' for Inactive)
REMARK    1  A    between atoms: C_2  and  C_3
REMARK    2  A    between atoms: C_3  and  N_4
REMARK    3  A    between atoms: C_8  and  C_9
REMARK                            x       y       z     vdW  Elec       q    Type
REMARK                         _______ _______ _______ _____ _____    ______ ____
ROOT
ATOM      1  N   UNL     1       1.245   9.083  19.367  0.00  0.00    +0.000 N 
ATOM      2  C   UNL     1       2.107   9.094  18.290  0.00  0.00    +0.000 A 
ATOM      3  N   UNL     1       2.958   8.174  17.965  0.00  0.00    +0.000 NA
ATOM      4  C   UNL     1       2.926   7.040  18.795  0.00  0.00    +0.000 A 
ATOM      5  C   UNL     1       3.724   5.871  18.604  0.00  0.00    +0.000 A 
ATOM      6  C   UNL     1       3.410   4.934  19.580  0.00  0.00    +0.000 A 
ATOM      7  S   UNL     1       2.232   5.490  20.699  0.00  0.00    +0.000 S 
ATOM      8  C   UNL     1       2.096   6.962  19.880  0.00  0.00    +0.000 A 
ATOM      9  C   UNL     1       1.208   8.020  20.263  0.00  0.00    +0.000 A 
ATOM     10  O   UNL     1       0.517   8.028  21.280  0.00  0.00    +0.000 OA
ENDROOT
BRANCH   5  11
ATOM     11  C   UNL     1       4.708   5.588  17.556  0.00  0.00    +0.000 A 
ATOM     12  C   UNL     1       5.943   6.251  17.525  0.00  0.00    +0.000 A 
ATOM     13  C   UNL     1       6.890   5.954  16.543  0.00  0.00    +0.000 A 
ATOM     14  C   UNL     1       6.609   5.000  15.568  0.00  0.00    +0.000 A 
ATOM     15  C   UNL     1       5.379   4.348  15.570  0.00  0.00    +0.000 A 
ATOM     16  C   UNL     1       4.438   4.637  16.560  0.00  0.00    +0.000 A 
ENDBRANCH   5  11
BRANCH   1  17
ATOM     17  C   UNL     1       0.380  10.219  19.609  0.00  0.00    +0.000 C 
BRANCH  17  19
ATOM     18  O   UNL     1       1.152  11.020  21.760  0.00  0.00    +0.000 OA
ATOM     19  C   UNL     1       1.016  11.246  20.558  0.00  0.00    +0.000 C 
ATOM     20  N   UNL     1       1.377  12.461  19.971  0.00  0.00    +0.000 N 
ATOM     21  C   UNL     1       1.162  12.819  18.568  0.00  0.00    +0.000 C 
ATOM     22  C   UNL     1       2.459  13.294  17.925  0.00  0.00    +0.000 C 
ATOM     23  C   UNL     1       3.097  14.423  18.732  0.00  0.00    +0.000 C 
ATOM     24  C   UNL     1       3.253  14.036  20.204  0.00  0.00    +0.000 C 
ATOM     25  C   UNL     1       1.941  13.528  20.797  0.00  0.00    +0.000 C 
ENDBRANCH  17  19
ENDBRANCH   1  17
TORSDOF 3
ENDMDL
MODEL 6
REMARK VINA RESULT:      -7.4      3.863      8.980
REMARK  Name = 
REMARK  3 active torsions:
REMARK  status: ('A' for Active; 'I' for Inactive)
REMARK    1  A    between atoms: C_2  and  C_3
REMARK    2  A    between atoms: C_3  and  N_4
REMARK    3  A    between atoms: C_8  and  C_9
REMARK                            x       y       z     vdW  Elec       q    Type
REMARK                         _______ _______ _______ _____ _____    ______ ____
ROOT
ATOM      1  N   UNL     1       1.084   9.697  18.945  0.00  0.00    +0.000 N 
ATOM      2  C   UNL     1       1.814   9.488  17.793  0.00  0.00    +0.000 A 
ATOM      3  N   UNL     1       2.573   8.473  17.526  0.00  0.00    +0.000 NA
ATOM      4  C   UNL     1       2.577   7.480  18.519  0.00  0.00    +0.000 A 
ATOM      5  C   UNL     1       3.286   6.243  18.428  0.00  0.00    +0.000 A 
ATOM      6  C   UNL     1       3.039   5.485  19.565  0.00  0.00    +0.000 A 
ATOM      7  S   UNL     1       2.029   6.280  20.704  0.00  0.00    +0.000 S 
ATOM      8  C   UNL     1       1.876   7.621  19.686  0.00  0.00    +0.000 A 
ATOM      9  C   UNL     1       1.095   8.783  19.993  0.00  0.00    +0.000 A 
ATOM     10  O   UNL     1       0.528   8.990  21.065  0.00  0.00    +0.000 OA
ENDROOT
BRANCH   5  11
ATOM     11  C   UNL     1       4.125   5.740  17.338  0.00  0.00    +0.000 A 
ATOM     12  C   UNL     1       4.220   4.366  17.073  0.00  0.00    +0.000 A 
ATOM     13  C   UNL     1       4.996   3.894  16.012  0.00  0.00    +0.000 A 
ATOM     14  C   UNL     1       5.701   4.788  15.211  0.00  0.00    +0.000 A 
ATOM     15  C   UNL     1       5.636   6.153  15.473  0.00  0.00    +0.000 A 
ATOM     16  C   UNL     1       4.850   6.625  16.525  0.00  0.00    +0.000 A 
ENDBRANCH   5  11
BRANCH   1  17
ATOM     17  C   UNL     1       0.313  10.913  19.099  0.00  0.00    +0.000 C 
BRANCH  17  19
ATOM     18  O   UNL     1      -1.326   9.957  17.596  0.00  0.00    +0.000 OA
ATOM     19  C   UNL     1      -1.069  10.817  18.436  0.00  0.00    +0.000 C 
ATOM     20  N   UNL     1      -1.985  11.801  18.816  0.00  0.00    +0.000 N 
ATOM     21  C   UNL     1      -1.710  12.899  19.744  0.00  0.00    +0.000 C 
ATOM     22  C   UNL     1      -2.753  12.946  20.854  0.00  0.00    +0.000 C 
ATOM     23  C   UNL     1      -4.168  12.995  20.282  0.00  0.00    +0.000 C 
ATOM     24  C   UNL     1      -4.401  11.869  19.274  0.00  0.00    +0.000 C 
ATOM     25  C   UNL     1      -3.313  11.833  18.204  0.00  0.00    +0.000 C 
ENDBRANCH  17  19
ENDBRANCH   1  17
TORSDOF 3
ENDMDL
MODEL 7
REMARK VINA RESULT:      -7.2      2.451      8.110
REMARK  Name = 
REMARK  3 active torsions:
REMARK  status: ('A' for Active; 'I' for Inactive)
REMARK    1  A    between atoms: C_2  and  C_3
REMARK    2  A    between atoms: C_3  and  N_4
REMARK    3  A    between atoms: C_8  and  C_9
REMARK                            x       y       z     vdW  Elec       q    Type
REMARK                         _______ _______ _______ _____ _____    ______ ____
ROOT
ATOM      1  N   UNL     1       2.430   7.217  19.239  0.00  0.00    +0.000 N 
ATOM      2  C   UNL     1       3.267   7.574  18.202  0.00  0.00    +0.000 A 
ATOM      3  N   UNL     1       3.973   6.779  17.464  0.00  0.00    +0.000 NA
ATOM      4  C   UNL     1       3.792   5.415  17.748  0.00  0.00    +0.000 A 
ATOM      5  C   UNL     1       4.412   4.346  17.031  0.00  0.00    +0.000 A 
ATOM      6  C   UNL     1       3.983   3.132  17.551  0.00  0.00    +0.000 A 
ATOM      7  S   UNL     1       2.914   3.305  18.884  0.00  0.00    +0.000 S 
ATOM      8  C   UNL     1       2.977   4.990  18.762  0.00  0.00    +0.000 A 
ATOM      9  C   UNL     1       2.256   5.889  19.614  0.00  0.00    +0.000 A 
ATOM     10  O   UNL     1       1.589   5.553  20.592  0.00  0.00    +0.000 OA
ENDROOT
BRANCH   5  11
ATOM     11  C   UNL     1       5.328   4.412  15.890  0.00  0.00    +0.000 A 
ATOM     12  C   UNL     1       4.955   3.913  14.634  0.00  0.00    +0.000 A 
ATOM     13  C   UNL     1       5.820   4.006  13.541  0.00  0.00    +0.000 A 
ATOM     14  C   UNL     1       7.076   4.586  13.693  0.00  0.00    +0.000 A 
ATOM     15  C   UNL     1       7.472   5.067  14.938  0.00  0.00    +0.000 A 
ATOM     16  C   UNL     1       6.602   4.985  16.026  0.00  0.00    +0.000 A 
ENDBRANCH   5  11
BRANCH   1  17
ATOM     17  C   UNL     1       1.740   8.242  19.994  0.00  0.00    +0.000 C 
BRANCH  17  19
ATOM     18  O   UNL     1       1.033   9.156  17.867  0.00  0.00    +0.000 OA
ATOM     19  C   UNL     1       1.091   9.298  19.087  0.00  0.00    +0.000 C 
ATOM     20  N   UNL     1       0.624  10.442  19.739  0.00  0.00    +0.000 N 
ATOM     21  C   UNL     1       0.742  10.706  21.174  0.00  0.00    +0.000 C 
ATOM     22  C   UNL     1      -0.613  11.053  21.775  0.00  0.00    +0.000 C 
ATOM     23  C   UNL     1      -1.279  12.200  21.017  0.00  0.00    +0.000 C 
ATOM     24  C   UNL     1      -1.333  11.916  19.514  0.00  0.00    +0.000 C 
ATOM     25  C   UNL     1       0.038  11.533  18.961  0.00  0.00    +0.000 C 
ENDBRANCH  17  19
ENDBRANCH   1  17
TORSDOF 3
ENDMDL
MODEL 8
REMARK VINA RESULT:      -7.2      3.345      8.602
REMARK  Name = 
REMARK  3 active torsions:
REMARK  status: ('A' for Active; 'I' for Inactive)
REMARK    1  A    between atoms: C_2  and  C_3
REMARK    2  A    between atoms: C_3  and  N_4
REMARK    3  A    between atoms: C_8  and  C_9
REMARK                            x       y       z     vdW  Elec       q    Type
REMARK                         _______ _______ _______ _____ _____    ______ ____
ROOT
ATOM      1  N   UNL     1       1.360   9.094  18.913  0.00  0.00    +0.000 N 
ATOM      2  C   UNL     1       2.210   8.974  17.833  0.00  0.00    +0.000 A 
ATOM      3  N   UNL     1       3.067   8.028  17.619  0.00  0.00    +0.000 NA
ATOM      4  C   UNL     1       3.055   7.009  18.586  0.00  0.00    +0.000 A 
ATOM      5  C   UNL     1       3.863   5.833  18.537  0.00  0.00    +0.000 A 
ATOM      6  C   UNL     1       3.569   5.025  19.629  0.00  0.00    +0.000 A 
ATOM      7  S   UNL     1       2.398   5.709  20.682  0.00  0.00    +0.000 S 
ATOM      8  C   UNL     1       2.238   7.063  19.683  0.00  0.00    +0.000 A 
ATOM      9  C   UNL     1       1.344   8.154  19.938  0.00  0.00    +0.000 A 
ATOM     10  O   UNL     1       0.664   8.287  20.954  0.00  0.00    +0.000 OA
ENDROOT
BRANCH   5  11
ATOM     11  C   UNL     1       4.838   5.426  17.522  0.00  0.00    +0.000 A 
ATOM     12  C   UNL     1       6.076   6.074  17.408  0.00  0.00    +0.000 A 
ATOM     13  C   UNL     1       7.015   5.661  16.459  0.00  0.00    +0.000 A 
ATOM     14  C   UNL     1       6.722   4.604  15.602  0.00  0.00    +0.000 A 
ATOM     15  C   UNL     1       5.489   3.963  15.687  0.00  0.00    +0.000 A 
ATOM     16  C   UNL     1       4.557   4.368  16.644  0.00  0.00    +0.000 A 
ENDBRANCH   5  11
BRANCH   1  17
ATOM     17  C   UNL     1       0.486  10.244  19.018  0.00  0.00    +0.000 C 
BRANCH  17  19
ATOM     18  O   UNL     1       2.098  11.980  18.516  0.00  0.00    +0.000 OA
ATOM     19  C   UNL     1       1.259  11.541  19.301  0.00  0.00    +0.000 C 
ATOM     20  N   UNL     1       0.979  12.149  20.528  0.00  0.00    +0.000 N 
ATOM     21  C   UNL     1       0.057  11.629  21.538  0.00  0.00    +0.000 C 
ATOM     22  C   UNL     1      -0.961  12.689  21.940  0.00  0.00    +0.000 C 
ATOM     23  C   UNL     1      -0.272  13.981  22.377  0.00  0.00    +0.000 C 
ATOM     24  C   UNL     1       0.726  14.463  21.323  0.00  0.00    +0.000 C 
ATOM     25  C   UNL     1       1.701  13.359  20.920  0.00  0.00    +0.000 C 
ENDBRANCH  17  19
ENDBRANCH   1  17
TORSDOF 3
ENDMDL
MODEL 9
REMARK VINA RESULT:      -7.2      2.517      8.131
REMARK  Name = 
REMARK  3 active torsions:
REMARK  status: ('A' for Active; 'I' for Inactive)
REMARK    1  A    between atoms: C_2  and  C_3
REMARK    2  A    between atoms: C_3  and  N_4
REMARK    3  A    between atoms: C_8  and  C_9
REMARK                            x       y       z     vdW  Elec       q    Type
REMARK                         _______ _______ _______ _____ _____    ______ ____
ROOT
ATOM      1  N   UNL     1       2.290   7.405  19.324  0.00  0.00    +0.000 N 
ATOM      2  C   UNL     1       3.074   7.739  18.239  0.00  0.00    +0.000 A 
ATOM      3  N   UNL     1       3.827   6.943  17.550  0.00  0.00    +0.000 NA
ATOM      4  C   UNL     1       3.764   5.598  17.951  0.00  0.00    +0.000 A 
ATOM      5  C   UNL     1       4.455   4.525  17.308  0.00  0.00    +0.000 A 
ATOM      6  C   UNL     1       4.137   3.329  17.938  0.00  0.00    +0.000 A 
ATOM      7  S   UNL     1       3.085   3.529  19.281  0.00  0.00    +0.000 S 
ATOM      8  C   UNL     1       3.007   5.196  19.018  0.00  0.00    +0.000 A 
ATOM      9  C   UNL     1       2.232   6.104  19.812  0.00  0.00    +0.000 A 
ATOM     10  O   UNL     1       1.615   5.800  20.831  0.00  0.00    +0.000 OA
ENDROOT
BRANCH   5  11
ATOM     11  C   UNL     1       5.339   4.566  16.141  0.00  0.00    +0.000 A 
ATOM     12  C   UNL     1       6.631   5.107  16.231  0.00  0.00    +0.000 A 
ATOM     13  C   UNL     1       7.482   5.114  15.124  0.00  0.00    +0.000 A 
ATOM     14  C   UNL     1       7.047   4.596  13.906  0.00  0.00    +0.000 A 
ATOM     15  C   UNL     1       5.761   4.076  13.793  0.00  0.00    +0.000 A 
ATOM     16  C   UNL     1       4.916   4.057  14.904  0.00  0.00    +0.000 A 
ENDBRANCH   5  11
BRANCH   1  17
ATOM     17  C   UNL     1       1.534   8.433  20.009  0.00  0.00    +0.000 C 
BRANCH  17  19
ATOM     18  O   UNL     1       0.898   9.297  17.839  0.00  0.00    +0.000 OA
ATOM     19  C   UNL     1       0.998   9.503  19.047  0.00  0.00    +0.000 C 
ATOM     20  N   UNL     1       0.684  10.732  19.633  0.00  0.00    +0.000 N 
ATOM     21  C   UNL     1       0.861  11.064  21.047  0.00  0.00    +0.000 C 
ATOM     22  C   UNL     1      -0.431  11.608  21.644  0.00  0.00    +0.000 C 
ATOM     23  C   UNL     1      -0.969  12.779  20.824  0.00  0.00    +0.000 C 
ATOM     24  C   UNL     1      -1.087  12.415  19.343  0.00  0.00    +0.000 C 
ATOM     25  C   UNL     1       0.216  11.838  18.797  0.00  0.00    +0.000 C 
ENDBRANCH  17  19
ENDBRANCH   1  17
TORSDOF 3
ENDMDL
