MODEL 1
REMARK VINA RESULT:      -4.9      0.000      0.000
REMARK  Name = 
REMARK  18 active torsions:
REMARK  status: ('A' for Active; 'I' for Inactive)
REMARK    1  A    between atoms: C_1  and  O_2
REMARK    2  A    between atoms: O_2  and  C_3
REMARK    3  A    between atoms: C_7  and  O_8
REMARK    4  A    between atoms: O_8  and  C_9
REMARK    5  A    between atoms: C_9  and  C_11
REMARK    6  A    between atoms: C_11  and  C_12
REMARK    7  A    between atoms: C_11  and  C_13
REMARK    8  A    between atoms: C_11  and  C_14
REMARK    9  A    between atoms: C_15  and  O_16
REMARK   10  A    between atoms: O_16  and  C_17
REMARK   11  A    between atoms: C_18  and  O_19
REMARK   12  A    between atoms: O_19  and  C_20
REMARK   13  A    between atoms: C_21  and  O_22
REMARK   14  A    between atoms: O_22  and  C_23
REMARK   15  A    between atoms: C_23  and  C_25
REMARK   16  A    between atoms: C_25  and  C_26
REMARK   17  A    between atoms: C_25  and  C_27
REMARK   18  A    between atoms: C_25  and  C_28
REMARK                            x       y       z     vdW  Elec       q    Type
REMARK                         _______ _______ _______ _____ _____    ______ ____
ROOT
ATOM      1  C   UNL     1       6.727  11.887  23.964  0.00  0.00    +0.000 A 
ATOM      2  C   UNL     1       7.926  11.534  23.371  0.00  0.00    +0.000 A 
ATOM      3  C   UNL     1       8.459  12.341  22.383  0.00  0.00    +0.000 A 
ATOM      4  C   UNL     1       7.789  13.479  21.893  0.00  0.00    +0.000 A 
ATOM      5  C   UNL     1       8.293  14.221  20.795  0.00  0.00    +0.000 A 
ATOM      6  C   UNL     1       7.779  15.479  20.432  0.00  0.00    +0.000 A 
ATOM      7  C   UNL     1       6.694  15.985  21.176  0.00  0.00    +0.000 A 
ATOM      8  C   UNL     1       6.105  15.188  22.191  0.00  0.00    +0.000 A 
ATOM      9  C   UNL     1       6.621  13.913  22.554  0.00  0.00    +0.000 A 
ATOM     10  C   UNL     1       6.086  13.071  23.567  0.00  0.00    +0.000 A 
ENDROOT
BRANCH   1  12
ATOM     11  C   UNL     1       6.633  11.372  26.258  0.00  0.00    +0.000 C 
ATOM     12  O   UNL     1       6.124  11.144  24.943  0.00  0.00    +0.000 OA
ENDBRANCH   1  12
BRANCH   6  13
ATOM     13  O   UNL     1       8.303  16.312  19.480  0.00  0.00    +0.000 OA
ATOM     14  C   UNL     1       7.721  16.397  18.191  0.00  0.00    +0.000 C 
ENDBRANCH   6  13
BRANCH   7  15
ATOM     15  O   UNL     1       6.259  17.292  21.118  0.00  0.00    +0.000 OA
ATOM     16  C   UNL     1       7.048  18.260  21.804  0.00  0.00    +0.000 C 
ENDBRANCH   7  15
BRANCH   5  17
ATOM     17  O   UNL     1       9.483  13.749  20.185  0.00  0.00    +0.000 OA
BRANCH  17  18
ATOM     18  C   UNL     1       9.454  13.021  18.988  0.00  0.00    +0.000 C 
ATOM     19  O   UNL     1       8.785  13.301  17.998  0.00  0.00    +0.000 OA
BRANCH  18  20
ATOM     20  C   UNL     1      10.383  11.805  19.109  0.00  0.00    +0.000 C 
ATOM     21  C   UNL     1      11.384  11.959  20.270  0.00  0.00    +0.000 C 
ATOM     22  C   UNL     1       9.561  10.532  19.363  0.00  0.00    +0.000 C 
ATOM     23  C   UNL     1      11.136  11.687  17.781  0.00  0.00    +0.000 C 
ENDBRANCH  18  20
ENDBRANCH  17  18
ENDBRANCH   5  17
BRANCH   8  24
ATOM     24  O   UNL     1       5.131  15.761  23.067  0.00  0.00    +0.000 OA
BRANCH  24  25
ATOM     25  C   UNL     1       3.762  15.709  22.775  0.00  0.00    +0.000 C 
ATOM     26  O   UNL     1       3.144  14.699  22.462  0.00  0.00    +0.000 OA
BRANCH  25  27
ATOM     27  C   UNL     1       3.131  17.103  22.970  0.00  0.00    +0.000 C 
ATOM     28  C   UNL     1       4.011  17.964  23.893  0.00  0.00    +0.000 C 
ATOM     29  C   UNL     1       3.010  17.828  21.617  0.00  0.00    +0.000 C 
ATOM     30  C   UNL     1       1.730  16.943  23.572  0.00  0.00    +0.000 C 
ENDBRANCH  25  27
ENDBRANCH  24  25
ENDBRANCH   8  24
TORSDOF 9
ENDMDL
MODEL 2
REMARK VINA RESULT:      -4.9      7.721     10.332
REMARK  Name = 
REMARK  18 active torsions:
REMARK  status: ('A' for Active; 'I' for Inactive)
REMARK    1  A    between atoms: C_1  and  O_2
REMARK    2  A    between atoms: O_2  and  C_3
REMARK    3  A    between atoms: C_7  and  O_8
REMARK    4  A    between atoms: O_8  and  C_9
REMARK    5  A    between atoms: C_9  and  C_11
REMARK    6  A    between atoms: C_11  and  C_12
REMARK    7  A    between atoms: C_11  and  C_13
REMARK    8  A    between atoms: C_11  and  C_14
REMARK    9  A    between atoms: C_15  and  O_16
REMARK   10  A    between atoms: O_16  and  C_17
REMARK   11  A    between atoms: C_18  and  O_19
REMARK   12  A    between atoms: O_19  and  C_20
REMARK   13  A    between atoms: C_21  and  O_22
REMARK   14  A    between atoms: O_22  and  C_23
REMARK   15  A    between atoms: C_23  and  C_25
REMARK   16  A    between atoms: C_25  and  C_26
REMARK   17  A    between atoms: C_25  and  C_27
REMARK   18  A    between atoms: C_25  and  C_28
REMARK                            x       y       z     vdW  Elec       q    Type
REMARK                         _______ _______ _______ _____ _____    ______ ____
ROOT
ATOM      1  C   UNL     1      -4.680  11.516  18.269  0.00  0.00    +0.000 A 
ATOM      2  C   UNL     1      -3.584  10.799  17.826  0.00  0.00    +0.000 A 
ATOM      3  C   UNL     1      -2.355  10.997  18.427  0.00  0.00    +0.000 A 
ATOM      4  C   UNL     1      -2.149  11.963  19.431  0.00  0.00    +0.000 A 
ATOM      5  C   UNL     1      -0.857  12.236  19.946  0.00  0.00    +0.000 A 
ATOM      6  C   UNL     1      -0.650  13.018  21.095  0.00  0.00    +0.000 A 
ATOM      7  C   UNL     1      -1.783  13.579  21.722  0.00  0.00    +0.000 A 
ATOM      8  C   UNL     1      -3.063  13.415  21.135  0.00  0.00    +0.000 A 
ATOM      9  C   UNL     1      -3.271  12.628  19.968  0.00  0.00    +0.000 A 
ATOM     10  C   UNL     1      -4.529  12.414  19.338  0.00  0.00    +0.000 A 
ENDROOT
BRANCH   1  12
ATOM     11  C   UNL     1      -6.630  12.626  17.560  0.00  0.00    +0.000 C 
ATOM     12  O   UNL     1      -5.931  11.391  17.728  0.00  0.00    +0.000 OA
ENDBRANCH   1  12
BRANCH   6  13
ATOM     13  O   UNL     1       0.549  13.207  21.729  0.00  0.00    +0.000 OA
ATOM     14  C   UNL     1       1.438  14.228  21.311  0.00  0.00    +0.000 C 
ENDBRANCH   6  13
BRANCH   7  15
ATOM     15  O   UNL     1      -1.773  14.137  22.983  0.00  0.00    +0.000 OA
ATOM     16  C   UNL     1      -1.603  15.549  23.056  0.00  0.00    +0.000 C 
ENDBRANCH   7  15
BRANCH   5  17
ATOM     17  O   UNL     1       0.230  11.520  19.381  0.00  0.00    +0.000 OA
BRANCH  17  18
ATOM     18  C   UNL     1       0.503  10.195  19.745  0.00  0.00    +0.000 C 
ATOM     19  O   UNL     1       0.188   9.668  20.808  0.00  0.00    +0.000 OA
BRANCH  18  20
ATOM     20  C   UNL     1       1.270   9.503  18.610  0.00  0.00    +0.000 C 
ATOM     21  C   UNL     1       2.033   8.260  19.105  0.00  0.00    +0.000 C 
ATOM     22  C   UNL     1       0.295   9.049  17.512  0.00  0.00    +0.000 C 
ATOM     23  C   UNL     1       2.254  10.532  18.045  0.00  0.00    +0.000 C 
ENDBRANCH  18  20
ENDBRANCH  17  18
ENDBRANCH   5  17
BRANCH   8  24
ATOM     24  O   UNL     1      -4.231  13.819  21.855  0.00  0.00    +0.000 OA
BRANCH  24  25
ATOM     25  C   UNL     1      -4.850  12.970  22.781  0.00  0.00    +0.000 C 
ATOM     26  O   UNL     1      -4.297  12.060  23.386  0.00  0.00    +0.000 OA
BRANCH  25  27
ATOM     27  C   UNL     1      -6.320  13.393  22.979  0.00  0.00    +0.000 C 
ATOM     28  C   UNL     1      -6.963  12.579  24.115  0.00  0.00    +0.000 C 
ATOM     29  C   UNL     1      -6.399  14.883  23.358  0.00  0.00    +0.000 C 
ATOM     30  C   UNL     1      -7.089  13.175  21.670  0.00  0.00    +0.000 C 
ENDBRANCH  25  27
ENDBRANCH  24  25
ENDBRANCH   8  24
TORSDOF 9
ENDMDL
MODEL 3
REMARK VINA RESULT:      -4.9      7.541      9.540
REMARK  Name = 
REMARK  18 active torsions:
REMARK  status: ('A' for Active; 'I' for Inactive)
REMARK    1  A    between atoms: C_1  and  O_2
REMARK    2  A    between atoms: O_2  and  C_3
REMARK    3  A    between atoms: C_7  and  O_8
REMARK    4  A    between atoms: O_8  and  C_9
REMARK    5  A    between atoms: C_9  and  C_11
REMARK    6  A    between atoms: C_11  and  C_12
REMARK    7  A    between atoms: C_11  and  C_13
REMARK    8  A    between atoms: C_11  and  C_14
REMARK    9  A    between atoms: C_15  and  O_16
REMARK   10  A    between atoms: O_16  and  C_17
REMARK   11  A    between atoms: C_18  and  O_19
REMARK   12  A    between atoms: O_19  and  C_20
REMARK   13  A    between atoms: C_21  and  O_22
REMARK   14  A    between atoms: O_22  and  C_23
REMARK   15  A    between atoms: C_23  and  C_25
REMARK   16  A    between atoms: C_25  and  C_26
REMARK   17  A    between atoms: C_25  and  C_27
REMARK   18  A    between atoms: C_25  and  C_28
REMARK                            x       y       z     vdW  Elec       q    Type
REMARK                         _______ _______ _______ _____ _____    ______ ____
ROOT
ATOM      1  C   UNL     1      -3.071  11.145  16.983  0.00  0.00    +0.000 A 
ATOM      2  C   UNL     1      -2.435   9.934  16.779  0.00  0.00    +0.000 A 
ATOM      3  C   UNL     1      -1.436   9.536  17.647  0.00  0.00    +0.000 A 
ATOM      4  C   UNL     1      -0.977  10.353  18.699  0.00  0.00    +0.000 A 
ATOM      5  C   UNL     1       0.131   9.980  19.500  0.00  0.00    +0.000 A 
ATOM      6  C   UNL     1       0.467  10.652  20.688  0.00  0.00    +0.000 A 
ATOM      7  C   UNL     1      -0.318  11.764  21.058  0.00  0.00    +0.000 A 
ATOM      8  C   UNL     1      -1.345  12.218  20.193  0.00  0.00    +0.000 A 
ATOM      9  C   UNL     1      -1.681  11.541  18.987  0.00  0.00    +0.000 A 
ATOM     10  C   UNL     1      -2.705  11.937  18.083  0.00  0.00    +0.000 A 
ENDROOT
BRANCH   1  12
ATOM     11  C   UNL     1      -5.253  12.017  16.856  0.00  0.00    +0.000 C 
ATOM     12  O   UNL     1      -4.063  11.622  16.170  0.00  0.00    +0.000 OA
ENDBRANCH   1  12
BRANCH   6  13
ATOM     13  O   UNL     1       1.430  10.266  21.581  0.00  0.00    +0.000 OA
ATOM     14  C   UNL     1       1.199   9.193  22.478  0.00  0.00    +0.000 C 
ENDBRANCH   6  13
BRANCH   7  15
ATOM     15  O   UNL     1      -0.285  12.354  22.304  0.00  0.00    +0.000 OA
ATOM     16  C   UNL     1      -1.283  11.943  23.233  0.00  0.00    +0.000 C 
ENDBRANCH   7  15
BRANCH   5  17
ATOM     17  O   UNL     1       0.785   8.764  19.175  0.00  0.00    +0.000 OA
BRANCH  17  18
ATOM     18  C   UNL     1       1.841   8.723  18.255  0.00  0.00    +0.000 C 
ATOM     19  O   UNL     1       2.178   9.641  17.514  0.00  0.00    +0.000 OA
BRANCH  18  20
ATOM     20  C   UNL     1       2.509   7.342  18.309  0.00  0.00    +0.000 C 
ATOM     21  C   UNL     1       1.654   6.261  17.622  0.00  0.00    +0.000 C 
ATOM     22  C   UNL     1       3.872   7.385  17.598  0.00  0.00    +0.000 C 
ATOM     23  C   UNL     1       2.701   6.997  19.789  0.00  0.00    +0.000 C 
ENDBRANCH  18  20
ENDBRANCH  17  18
ENDBRANCH   5  17
BRANCH   8  24
ATOM     24  O   UNL     1      -2.259  13.223  20.642  0.00  0.00    +0.000 OA
BRANCH  24  25
ATOM     25  C   UNL     1      -1.971  14.587  20.508  0.00  0.00    +0.000 C 
ATOM     26  O   UNL     1      -1.029  15.052  19.877  0.00  0.00    +0.000 OA
BRANCH  25  27
ATOM     27  C   UNL     1      -3.054  15.424  21.218  0.00  0.00    +0.000 C 
ATOM     28  C   UNL     1      -3.096  16.848  20.639  0.00  0.00    +0.000 C 
ATOM     29  C   UNL     1      -4.441  14.786  21.011  0.00  0.00    +0.000 C 
ATOM     30  C   UNL     1      -2.752  15.472  22.721  0.00  0.00    +0.000 C 
ENDBRANCH  25  27
ENDBRANCH  24  25
ENDBRANCH   8  24
TORSDOF 9
ENDMDL
MODEL 4
REMARK VINA RESULT:      -4.8      7.607     10.527
REMARK  Name = 
REMARK  18 active torsions:
REMARK  status: ('A' for Active; 'I' for Inactive)
REMARK    1  A    between atoms: C_1  and  O_2
REMARK    2  A    between atoms: O_2  and  C_3
REMARK    3  A    between atoms: C_7  and  O_8
REMARK    4  A    between atoms: O_8  and  C_9
REMARK    5  A    between atoms: C_9  and  C_11
REMARK    6  A    between atoms: C_11  and  C_12
REMARK    7  A    between atoms: C_11  and  C_13
REMARK    8  A    between atoms: C_11  and  C_14
REMARK    9  A    between atoms: C_15  and  O_16
REMARK   10  A    between atoms: O_16  and  C_17
REMARK   11  A    between atoms: C_18  and  O_19
REMARK   12  A    between atoms: O_19  and  C_20
REMARK   13  A    between atoms: C_21  and  O_22
REMARK   14  A    between atoms: O_22  and  C_23
REMARK   15  A    between atoms: C_23  and  C_25
REMARK   16  A    between atoms: C_25  and  C_26
REMARK   17  A    between atoms: C_25  and  C_27
REMARK   18  A    between atoms: C_25  and  C_28
REMARK                            x       y       z     vdW  Elec       q    Type
REMARK                         _______ _______ _______ _____ _____    ______ ____
ROOT
ATOM      1  C   UNL     1      -2.261  10.470  17.801  0.00  0.00    +0.000 A 
ATOM      2  C   UNL     1      -0.985  10.323  18.313  0.00  0.00    +0.000 A 
ATOM      3  C   UNL     1      -0.569  11.142  19.345  0.00  0.00    +0.000 A 
ATOM      4  C   UNL     1      -1.368  12.185  19.854  0.00  0.00    +0.000 A 
ATOM      5  C   UNL     1      -0.875  13.091  20.826  0.00  0.00    +0.000 A 
ATOM      6  C   UNL     1      -1.709  13.989  21.515  0.00  0.00    +0.000 A 
ATOM      7  C   UNL     1      -3.079  14.001  21.182  0.00  0.00    +0.000 A 
ATOM      8  C   UNL     1      -3.551  13.188  20.120  0.00  0.00    +0.000 A 
ATOM      9  C   UNL     1      -2.705  12.283  19.419  0.00  0.00    +0.000 A 
ATOM     10  C   UNL     1      -3.118  11.434  18.355  0.00  0.00    +0.000 A 
ENDROOT
BRANCH   1  12
ATOM     11  C   UNL     1      -3.264  10.461  15.672  0.00  0.00    +0.000 C 
ATOM     12  O   UNL     1      -2.754   9.709  16.775  0.00  0.00    +0.000 OA
ENDBRANCH   1  12
BRANCH   6  13
ATOM     13  O   UNL     1      -1.332  14.790  22.559  0.00  0.00    +0.000 OA
ATOM     14  C   UNL     1      -1.348  14.303  23.890  0.00  0.00    +0.000 C 
ENDBRANCH   6  13
BRANCH   7  15
ATOM     15  O   UNL     1      -4.053  14.620  21.936  0.00  0.00    +0.000 OA
ATOM     16  C   UNL     1      -4.383  15.959  21.581  0.00  0.00    +0.000 C 
ENDBRANCH   7  15
BRANCH   5  17
ATOM     17  O   UNL     1       0.472  12.928  21.240  0.00  0.00    +0.000 OA
BRANCH  17  18
ATOM     18  C   UNL     1       1.369  14.005  21.258  0.00  0.00    +0.000 C 
ATOM     19  O   UNL     1       1.673  14.663  22.247  0.00  0.00    +0.000 OA
BRANCH  18  20
ATOM     20  C   UNL     1       1.908  14.242  19.841  0.00  0.00    +0.000 C 
ATOM     21  C   UNL     1       0.864  14.921  18.933  0.00  0.00    +0.000 C 
ATOM     22  C   UNL     1       3.148  15.149  19.890  0.00  0.00    +0.000 C 
ATOM     23  C   UNL     1       2.284  12.870  19.272  0.00  0.00    +0.000 C 
ENDBRANCH  18  20
ENDBRANCH  17  18
ENDBRANCH   5  17
BRANCH   8  24
ATOM     24  O   UNL     1      -4.958  13.056  19.899  0.00  0.00    +0.000 OA
BRANCH  24  25
ATOM     25  C   UNL     1      -5.744  12.198  20.678  0.00  0.00    +0.000 C 
ATOM     26  O   UNL     1      -5.569  11.963  21.867  0.00  0.00    +0.000 OA
BRANCH  25  27
ATOM     27  C   UNL     1      -6.908  11.642  19.832  0.00  0.00    +0.000 C 
ATOM     28  C   UNL     1      -7.622  12.783  19.088  0.00  0.00    +0.000 C 
ATOM     29  C   UNL     1      -6.377  10.649  18.781  0.00  0.00    +0.000 C 
ATOM     30  C   UNL     1      -7.894  10.909  20.750  0.00  0.00    +0.000 C 
ENDBRANCH  25  27
ENDBRANCH  24  25
ENDBRANCH   8  24
TORSDOF 9
ENDMDL
MODEL 5
REMARK VINA RESULT:      -4.8      5.481      9.498
REMARK  Name = 
REMARK  18 active torsions:
REMARK  status: ('A' for Active; 'I' for Inactive)
REMARK    1  A    between atoms: C_1  and  O_2
REMARK    2  A    between atoms: O_2  and  C_3
REMARK    3  A    between atoms: C_7  and  O_8
REMARK    4  A    between atoms: O_8  and  C_9
REMARK    5  A    between atoms: C_9  and  C_11
REMARK    6  A    between atoms: C_11  and  C_12
REMARK    7  A    between atoms: C_11  and  C_13
REMARK    8  A    between atoms: C_11  and  C_14
REMARK    9  A    between atoms: C_15  and  O_16
REMARK   10  A    between atoms: O_16  and  C_17
REMARK   11  A    between atoms: C_18  and  O_19
REMARK   12  A    between atoms: O_19  and  C_20
REMARK   13  A    between atoms: C_21  and  O_22
REMARK   14  A    between atoms: O_22  and  C_23
REMARK   15  A    between atoms: C_23  and  C_25
REMARK   16  A    between atoms: C_25  and  C_26
REMARK   17  A    between atoms: C_25  and  C_27
REMARK   18  A    between atoms: C_25  and  C_28
REMARK                            x       y       z     vdW  Elec       q    Type
REMARK                         _______ _______ _______ _____ _____    ______ ____
ROOT
ATOM      1  C   UNL     1       0.737  10.563  18.606  0.00  0.00    +0.000 A 
ATOM      2  C   UNL     1      -0.520  10.275  19.107  0.00  0.00    +0.000 A 
ATOM      3  C   UNL     1      -1.195  11.232  19.841  0.00  0.00    +0.000 A 
ATOM      4  C   UNL     1      -0.622  12.476  20.172  0.00  0.00    +0.000 A 
ATOM      5  C   UNL     1      -1.281  13.393  21.028  0.00  0.00    +0.000 A 
ATOM      6  C   UNL     1      -0.849  14.721  21.192  0.00  0.00    +0.000 A 
ATOM      7  C   UNL     1       0.311  15.124  20.499  0.00  0.00    +0.000 A 
ATOM      8  C   UNL     1       1.045  14.174  19.745  0.00  0.00    +0.000 A 
ATOM      9  C   UNL     1       0.611  12.829  19.585  0.00  0.00    +0.000 A 
ATOM     10  C   UNL     1       1.293  11.832  18.833  0.00  0.00    +0.000 A 
ENDROOT
BRANCH   1  12
ATOM     11  C   UNL     1       1.967   8.557  18.624  0.00  0.00    +0.000 C 
ATOM     12  O   UNL     1       1.480   9.674  17.878  0.00  0.00    +0.000 OA
ENDBRANCH   1  12
BRANCH   6  13
ATOM     13  O   UNL     1      -1.511  15.697  21.887  0.00  0.00    +0.000 OA
ATOM     14  C   UNL     1      -2.540  16.454  21.274  0.00  0.00    +0.000 C 
ENDBRANCH   6  13
BRANCH   7  15
ATOM     15  O   UNL     1       0.703  16.438  20.347  0.00  0.00    +0.000 OA
ATOM     16  C   UNL     1       1.502  16.991  21.388  0.00  0.00    +0.000 C 
ENDBRANCH   7  15
BRANCH   5  17
ATOM     17  O   UNL     1      -2.528  12.990  21.571  0.00  0.00    +0.000 OA
BRANCH  17  18
ATOM     18  C   UNL     1      -2.628  12.459  22.864  0.00  0.00    +0.000 C 
ATOM     19  O   UNL     1      -1.971  11.519  23.302  0.00  0.00    +0.000 OA
BRANCH  18  20
ATOM     20  C   UNL     1      -3.696  13.231  23.651  0.00  0.00    +0.000 C 
ATOM     21  C   UNL     1      -4.746  13.870  22.722  0.00  0.00    +0.000 C 
ATOM     22  C   UNL     1      -4.433  12.285  24.612  0.00  0.00    +0.000 C 
ATOM     23  C   UNL     1      -2.966  14.320  24.444  0.00  0.00    +0.000 C 
ENDBRANCH  18  20
ENDBRANCH  17  18
ENDBRANCH   5  17
BRANCH   8  24
ATOM     24  O   UNL     1       2.110  14.612  18.897  0.00  0.00    +0.000 OA
BRANCH  24  25
ATOM     25  C   UNL     1       3.426  14.714  19.367  0.00  0.00    +0.000 C 
ATOM     26  O   UNL     1       3.849  14.206  20.398  0.00  0.00    +0.000 OA
BRANCH  25  27
ATOM     27  C   UNL     1       4.283  15.506  18.358  0.00  0.00    +0.000 C 
ATOM     28  C   UNL     1       4.870  16.762  19.025  0.00  0.00    +0.000 C 
ATOM     29  C   UNL     1       5.455  14.641  17.859  0.00  0.00    +0.000 C 
ATOM     30  C   UNL     1       3.414  15.901  17.158  0.00  0.00    +0.000 C 
ENDBRANCH  25  27
ENDBRANCH  24  25
ENDBRANCH   8  24
TORSDOF 9
ENDMDL
MODEL 6
REMARK VINA RESULT:      -4.8      7.268     11.039
REMARK  Name = 
REMARK  18 active torsions:
REMARK  status: ('A' for Active; 'I' for Inactive)
REMARK    1  A    between atoms: C_1  and  O_2
REMARK    2  A    between atoms: O_2  and  C_3
REMARK    3  A    between atoms: C_7  and  O_8
REMARK    4  A    between atoms: O_8  and  C_9
REMARK    5  A    between atoms: C_9  and  C_11
REMARK    6  A    between atoms: C_11  and  C_12
REMARK    7  A    between atoms: C_11  and  C_13
REMARK    8  A    between atoms: C_11  and  C_14
REMARK    9  A    between atoms: C_15  and  O_16
REMARK   10  A    between atoms: O_16  and  C_17
REMARK   11  A    between atoms: C_18  and  O_19
REMARK   12  A    between atoms: O_19  and  C_20
REMARK   13  A    between atoms: C_21  and  O_22
REMARK   14  A    between atoms: O_22  and  C_23
REMARK   15  A    between atoms: C_23  and  C_25
REMARK   16  A    between atoms: C_25  and  C_26
REMARK   17  A    between atoms: C_25  and  C_27
REMARK   18  A    between atoms: C_25  and  C_28
REMARK                            x       y       z     vdW  Elec       q    Type
REMARK                         _______ _______ _______ _____ _____    ______ ____
ROOT
ATOM      1  C   UNL     1      -0.567  10.443  18.343  0.00  0.00    +0.000 A 
ATOM      2  C   UNL     1      -1.895  10.371  17.962  0.00  0.00    +0.000 A 
ATOM      3  C   UNL     1      -2.809  11.247  18.516  0.00  0.00    +0.000 A 
ATOM      4  C   UNL     1      -2.460  12.170  19.522  0.00  0.00    +0.000 A 
ATOM      5  C   UNL     1      -3.436  12.972  20.164  0.00  0.00    +0.000 A 
ATOM      6  C   UNL     1      -3.099  14.053  20.998  0.00  0.00    +0.000 A 
ATOM      7  C   UNL     1      -1.730  14.307  21.222  0.00  0.00    +0.000 A 
ATOM      8  C   UNL     1      -0.755  13.428  20.685  0.00  0.00    +0.000 A 
ATOM      9  C   UNL     1      -1.098  12.330  19.847  0.00  0.00    +0.000 A 
ATOM     10  C   UNL     1      -0.169  11.421  19.269  0.00  0.00    +0.000 A 
ENDROOT
BRANCH   1  12
ATOM     11  C   UNL     1       1.429   9.281  18.790  0.00  0.00    +0.000 C 
ATOM     12  O   UNL     1       0.403   9.612  17.852  0.00  0.00    +0.000 OA
ENDBRANCH   1  12
BRANCH   6  13
ATOM     13  O   UNL     1      -3.979  14.953  21.536  0.00  0.00    +0.000 OA
ATOM     14  C   UNL     1      -4.472  16.035  20.767  0.00  0.00    +0.000 C 
ENDBRANCH   6  13
BRANCH   7  15
ATOM     15  O   UNL     1      -1.240  15.466  21.786  0.00  0.00    +0.000 OA
ATOM     16  C   UNL     1      -1.056  15.463  23.198  0.00  0.00    +0.000 C 
ENDBRANCH   7  15
BRANCH   5  17
ATOM     17  O   UNL     1      -4.788  12.780  19.779  0.00  0.00    +0.000 OA
BRANCH  17  18
ATOM     18  C   UNL     1      -5.712  12.160  20.631  0.00  0.00    +0.000 C 
ATOM     19  O   UNL     1      -5.622  12.092  21.853  0.00  0.00    +0.000 OA
BRANCH  18  20
ATOM     20  C   UNL     1      -6.855  11.566  19.796  0.00  0.00    +0.000 C 
ATOM     21  C   UNL     1      -6.336  10.596  18.718  0.00  0.00    +0.000 C 
ATOM     22  C   UNL     1      -7.824  10.788  20.701  0.00  0.00    +0.000 C 
ATOM     23  C   UNL     1      -7.583  12.742  19.138  0.00  0.00    +0.000 C 
ENDBRANCH  18  20
ENDBRANCH  17  18
ENDBRANCH   5  17
BRANCH   8  24
ATOM     24  O   UNL     1       0.630  13.779  20.752  0.00  0.00    +0.000 OA
BRANCH  24  25
ATOM     25  C   UNL     1       1.208  14.660  19.829  0.00  0.00    +0.000 C 
ATOM     26  O   UNL     1       0.712  14.984  18.757  0.00  0.00    +0.000 OA
BRANCH  25  27
ATOM     27  C   UNL     1       2.531  15.216  20.393  0.00  0.00    +0.000 C 
ATOM     28  C   UNL     1       3.405  14.072  20.934  0.00  0.00    +0.000 C 
ATOM     29  C   UNL     1       3.322  15.935  19.284  0.00  0.00    +0.000 C 
ATOM     30  C   UNL     1       2.222  16.220  21.510  0.00  0.00    +0.000 C 
ENDBRANCH  25  27
ENDBRANCH  24  25
ENDBRANCH   8  24
TORSDOF 9
ENDMDL
MODEL 7
REMARK VINA RESULT:      -4.8      8.359     12.886
REMARK  Name = 
REMARK  18 active torsions:
REMARK  status: ('A' for Active; 'I' for Inactive)
REMARK    1  A    between atoms: C_1  and  O_2
REMARK    2  A    between atoms: O_2  and  C_3
REMARK    3  A    between atoms: C_7  and  O_8
REMARK    4  A    between atoms: O_8  and  C_9
REMARK    5  A    between atoms: C_9  and  C_11
REMARK    6  A    between atoms: C_11  and  C_12
REMARK    7  A    between atoms: C_11  and  C_13
REMARK    8  A    between atoms: C_11  and  C_14
REMARK    9  A    between atoms: C_15  and  O_16
REMARK   10  A    between atoms: O_16  and  C_17
REMARK   11  A    between atoms: C_18  and  O_19
REMARK   12  A    between atoms: O_19  and  C_20
REMARK   13  A    between atoms: C_21  and  O_22
REMARK   14  A    between atoms: O_22  and  C_23
REMARK   15  A    between atoms: C_23  and  C_25
REMARK   16  A    between atoms: C_25  and  C_26
REMARK   17  A    between atoms: C_25  and  C_27
REMARK   18  A    between atoms: C_25  and  C_28
REMARK                            x       y       z     vdW  Elec       q    Type
REMARK                         _______ _______ _______ _____ _____    ______ ____
ROOT
ATOM      1  C   UNL     1      -0.993  12.602  20.841  0.00  0.00    +0.000 A 
ATOM      2  C   UNL     1      -1.126  13.282  22.038  0.00  0.00    +0.000 A 
ATOM      3  C   UNL     1      -2.381  13.683  22.455  0.00  0.00    +0.000 A 
ATOM      4  C   UNL     1      -3.536  13.497  21.670  0.00  0.00    +0.000 A 
ATOM      5  C   UNL     1      -4.792  14.027  22.059  0.00  0.00    +0.000 A 
ATOM      6  C   UNL     1      -5.994  13.668  21.424  0.00  0.00    +0.000 A 
ATOM      7  C   UNL     1      -5.920  12.777  20.333  0.00  0.00    +0.000 A 
ATOM      8  C   UNL     1      -4.654  12.349  19.860  0.00  0.00    +0.000 A 
ATOM      9  C   UNL     1      -3.437  12.717  20.500  0.00  0.00    +0.000 A 
ATOM     10  C   UNL     1      -2.139  12.312  20.083  0.00  0.00    +0.000 A 
ENDROOT
BRANCH   1  12
ATOM     11  C   UNL     1       0.569  10.845  20.729  0.00  0.00    +0.000 C 
ATOM     12  O   UNL     1       0.210  12.175  20.347  0.00  0.00    +0.000 OA
ENDBRANCH   1  12
BRANCH   6  13
ATOM     13  O   UNL     1      -7.251  14.025  21.832  0.00  0.00    +0.000 OA
ATOM     14  C   UNL     1      -7.833  13.444  22.985  0.00  0.00    +0.000 C 
ENDBRANCH   6  13
BRANCH   7  15
ATOM     15  O   UNL     1      -7.010  12.133  19.786  0.00  0.00    +0.000 OA
ATOM     16  C   UNL     1      -7.416  10.919  20.411  0.00  0.00    +0.000 C 
ENDBRANCH   7  15
BRANCH   5  17
ATOM     17  O   UNL     1      -4.832  14.785  23.257  0.00  0.00    +0.000 OA
BRANCH  17  18
ATOM     18  C   UNL     1      -4.875  16.185  23.237  0.00  0.00    +0.000 C 
ATOM     19  O   UNL     1      -5.561  16.867  22.482  0.00  0.00    +0.000 OA
BRANCH  18  20
ATOM     20  C   UNL     1      -3.919  16.740  24.302  0.00  0.00    +0.000 C 
ATOM     21  C   UNL     1      -4.624  17.730  25.249  0.00  0.00    +0.000 C 
ATOM     22  C   UNL     1      -3.356  15.593  25.157  0.00  0.00    +0.000 C 
ATOM     23  C   UNL     1      -2.782  17.445  23.558  0.00  0.00    +0.000 C 
ENDBRANCH  18  20
ENDBRANCH  17  18
ENDBRANCH   5  17
BRANCH   8  24
ATOM     24  O   UNL     1      -4.578  11.309  18.881  0.00  0.00    +0.000 OA
BRANCH  24  25
ATOM     25  C   UNL     1      -4.544  11.596  17.510  0.00  0.00    +0.000 C 
ATOM     26  O   UNL     1      -5.290  12.378  16.933  0.00  0.00    +0.000 OA
BRANCH  25  27
ATOM     27  C   UNL     1      -3.382  10.832  16.843  0.00  0.00    +0.000 C 
ATOM     28  C   UNL     1      -3.202   9.453  17.501  0.00  0.00    +0.000 C 
ATOM     29  C   UNL     1      -3.679  10.609  15.349  0.00  0.00    +0.000 C 
ATOM     30  C   UNL     1      -2.095  11.654  16.974  0.00  0.00    +0.000 C 
ENDBRANCH  25  27
ENDBRANCH  24  25
ENDBRANCH   8  24
TORSDOF 9
ENDMDL
MODEL 8
REMARK VINA RESULT:      -4.8      7.960     10.675
REMARK  Name = 
REMARK  18 active torsions:
REMARK  status: ('A' for Active; 'I' for Inactive)
REMARK    1  A    between atoms: C_1  and  O_2
REMARK    2  A    between atoms: O_2  and  C_3
REMARK    3  A    between atoms: C_7  and  O_8
REMARK    4  A    between atoms: O_8  and  C_9
REMARK    5  A    between atoms: C_9  and  C_11
REMARK    6  A    between atoms: C_11  and  C_12
REMARK    7  A    between atoms: C_11  and  C_13
REMARK    8  A    between atoms: C_11  and  C_14
REMARK    9  A    between atoms: C_15  and  O_16
REMARK   10  A    between atoms: O_16  and  C_17
REMARK   11  A    between atoms: C_18  and  O_19
REMARK   12  A    between atoms: O_19  and  C_20
REMARK   13  A    between atoms: C_21  and  O_22
REMARK   14  A    between atoms: O_22  and  C_23
REMARK   15  A    between atoms: C_23  and  C_25
REMARK   16  A    between atoms: C_25  and  C_26
REMARK   17  A    between atoms: C_25  and  C_27
REMARK   18  A    between atoms: C_25  and  C_28
REMARK                            x       y       z     vdW  Elec       q    Type
REMARK                         _______ _______ _______ _____ _____    ______ ____
ROOT
ATOM      1  C   UNL     1      -5.206  11.456  18.417  0.00  0.00    +0.000 A 
ATOM      2  C   UNL     1      -4.095  10.773  17.952  0.00  0.00    +0.000 A 
ATOM      3  C   UNL     1      -2.846  11.088  18.453  0.00  0.00    +0.000 A 
ATOM      4  C   UNL     1      -2.640  12.137  19.370  0.00  0.00    +0.000 A 
ATOM      5  C   UNL     1      -1.338  12.524  19.775  0.00  0.00    +0.000 A 
ATOM      6  C   UNL     1      -1.109  13.402  20.849  0.00  0.00    +0.000 A 
ATOM      7  C   UNL     1      -2.233  13.940  21.509  0.00  0.00    +0.000 A 
ATOM      8  C   UNL     1      -3.535  13.657  21.023  0.00  0.00    +0.000 A 
ATOM      9  C   UNL     1      -3.766  12.773  19.932  0.00  0.00    +0.000 A 
ATOM     10  C   UNL     1      -5.044  12.439  19.405  0.00  0.00    +0.000 A 
ENDROOT
BRANCH   1  12
ATOM     11  C   UNL     1      -7.406  12.269  18.239  0.00  0.00    +0.000 C 
ATOM     12  O   UNL     1      -6.478  11.217  17.972  0.00  0.00    +0.000 OA
ENDBRANCH   1  12
BRANCH   6  13
ATOM     13  O   UNL     1       0.113  13.708  21.385  0.00  0.00    +0.000 OA
ATOM     14  C   UNL     1       0.879  14.786  20.876  0.00  0.00    +0.000 C 
ENDBRANCH   6  13
BRANCH   7  15
ATOM     15  O   UNL     1      -2.179  14.591  22.723  0.00  0.00    +0.000 OA
ATOM     16  C   UNL     1      -1.757  13.820  23.844  0.00  0.00    +0.000 C 
ENDBRANCH   7  15
BRANCH   5  17
ATOM     17  O   UNL     1      -0.245  11.833  19.190  0.00  0.00    +0.000 OA
BRANCH  17  18
ATOM     18  C   UNL     1       0.270  10.661  19.760  0.00  0.00    +0.000 C 
ATOM     19  O   UNL     1       0.135  10.317  20.930  0.00  0.00    +0.000 OA
BRANCH  18  20
ATOM     20  C   UNL     1       1.041   9.873  18.692  0.00  0.00    +0.000 C 
ATOM     21  C   UNL     1       2.152  10.719  18.042  0.00  0.00    +0.000 C 
ATOM     22  C   UNL     1       1.701   8.635  19.320  0.00  0.00    +0.000 C 
ATOM     23  C   UNL     1       0.022   9.443  17.632  0.00  0.00    +0.000 C 
ENDBRANCH  18  20
ENDBRANCH  17  18
ENDBRANCH   5  17
BRANCH   8  24
ATOM     24  O   UNL     1      -4.678  14.045  21.790  0.00  0.00    +0.000 OA
BRANCH  24  25
ATOM     25  C   UNL     1      -5.328  13.143  22.642  0.00  0.00    +0.000 C 
ATOM     26  O   UNL     1      -4.772  12.308  23.346  0.00  0.00    +0.000 OA
BRANCH  25  27
ATOM     27  C   UNL     1      -6.849  13.400  22.616  0.00  0.00    +0.000 C 
ATOM     28  C   UNL     1      -7.357  13.745  24.026  0.00  0.00    +0.000 C 
ATOM     29  C   UNL     1      -7.172  14.588  21.691  0.00  0.00    +0.000 C 
ATOM     30  C   UNL     1      -7.563  12.152  22.085  0.00  0.00    +0.000 C 
ENDBRANCH  25  27
ENDBRANCH  24  25
ENDBRANCH   8  24
TORSDOF 9
ENDMDL
MODEL 9
REMARK VINA RESULT:      -4.8      7.088      9.802
REMARK  Name = 
REMARK  18 active torsions:
REMARK  status: ('A' for Active; 'I' for Inactive)
REMARK    1  A    between atoms: C_1  and  O_2
REMARK    2  A    between atoms: O_2  and  C_3
REMARK    3  A    between atoms: C_7  and  O_8
REMARK    4  A    between atoms: O_8  and  C_9
REMARK    5  A    between atoms: C_9  and  C_11
REMARK    6  A    between atoms: C_11  and  C_12
REMARK    7  A    between atoms: C_11  and  C_13
REMARK    8  A    between atoms: C_11  and  C_14
REMARK    9  A    between atoms: C_15  and  O_16
REMARK   10  A    between atoms: O_16  and  C_17
REMARK   11  A    between atoms: C_18  and  O_19
REMARK   12  A    between atoms: O_19  and  C_20
REMARK   13  A    between atoms: C_21  and  O_22
REMARK   14  A    between atoms: O_22  and  C_23
REMARK   15  A    between atoms: C_23  and  C_25
REMARK   16  A    between atoms: C_25  and  C_26
REMARK   17  A    between atoms: C_25  and  C_27
REMARK   18  A    between atoms: C_25  and  C_28
REMARK                            x       y       z     vdW  Elec       q    Type
REMARK                         _______ _______ _______ _____ _____    ______ ____
ROOT
ATOM      1  C   UNL     1      -2.625  10.832  17.893  0.00  0.00    +0.000 A 
ATOM      2  C   UNL     1      -1.316  10.424  18.075  0.00  0.00    +0.000 A 
ATOM      3  C   UNL     1      -0.540  11.040  19.038  0.00  0.00    +0.000 A 
ATOM      4  C   UNL     1      -1.003  12.131  19.800  0.00  0.00    +0.000 A 
ATOM      5  C   UNL     1      -0.151  12.828  20.693  0.00  0.00    +0.000 A 
ATOM      6  C   UNL     1      -0.633  13.762  21.626  0.00  0.00    +0.000 A 
ATOM      7  C   UNL     1      -2.018  14.031  21.630  0.00  0.00    +0.000 A 
ATOM      8  C   UNL     1      -2.853  13.433  20.652  0.00  0.00    +0.000 A 
ATOM      9  C   UNL     1      -2.362  12.493  19.704  0.00  0.00    +0.000 A 
ATOM     10  C   UNL     1      -3.148  11.850  18.707  0.00  0.00    +0.000 A 
ENDROOT
BRANCH   1  12
ATOM     11  C   UNL     1      -3.033  10.454  15.607  0.00  0.00    +0.000 C 
ATOM     12  O   UNL     1      -3.462  10.284  16.959  0.00  0.00    +0.000 OA
ENDBRANCH   1  12
BRANCH   6  13
ATOM     13  O   UNL     1       0.105  14.365  22.609  0.00  0.00    +0.000 OA
ATOM     14  C   UNL     1       0.468  15.731  22.509  0.00  0.00    +0.000 C 
ENDBRANCH   6  13
BRANCH   7  15
ATOM     15  O   UNL     1      -2.671  14.706  22.639  0.00  0.00    +0.000 OA
ATOM     16  C   UNL     1      -3.082  16.040  22.355  0.00  0.00    +0.000 C 
ENDBRANCH   7  15
BRANCH   5  17
ATOM     17  O   UNL     1       1.202  12.404  20.762  0.00  0.00    +0.000 OA
BRANCH  17  18
ATOM     18  C   UNL     1       2.261  13.315  20.653  0.00  0.00    +0.000 C 
ATOM     19  O   UNL     1       2.947  13.725  21.584  0.00  0.00    +0.000 OA
BRANCH  18  20
ATOM     20  C   UNL     1       2.427  13.730  19.185  0.00  0.00    +0.000 C 
ATOM     21  C   UNL     1       1.308  14.684  18.727  0.00  0.00    +0.000 C 
ATOM     22  C   UNL     1       3.770  14.452  18.987  0.00  0.00    +0.000 C 
ATOM     23  C   UNL     1       2.395  12.445  18.352  0.00  0.00    +0.000 C 
ENDBRANCH  18  20
ENDBRANCH  17  18
ENDBRANCH   5  17
BRANCH   8  24
ATOM     24  O   UNL     1      -4.273  13.555  20.763  0.00  0.00    +0.000 OA
BRANCH  24  25
ATOM     25  C   UNL     1      -5.020  12.701  21.585  0.00  0.00    +0.000 C 
ATOM     26  O   UNL     1      -4.616  12.185  22.619  0.00  0.00    +0.000 OA
BRANCH  25  27
ATOM     27  C   UNL     1      -6.452  12.560  21.029  0.00  0.00    +0.000 C 
ATOM     28  C   UNL     1      -6.857  13.831  20.264  0.00  0.00    +0.000 C 
ATOM     29  C   UNL     1      -6.530  11.372  20.053  0.00  0.00    +0.000 C 
ATOM     30  C   UNL     1      -7.421  12.309  22.191  0.00  0.00    +0.000 C 
ENDBRANCH  25  27
ENDBRANCH  24  25
ENDBRANCH   8  24
TORSDOF 9
ENDMDL
