MODEL 1
REMARK VINA RESULT:      -9.2      0.000      0.000
REMARK  Name = 
REMARK  8 active torsions:
REMARK  status: ('A' for Active; 'I' for Inactive)
REMARK    1  A    between atoms: C_1  and  C_2
REMARK    2  A    between atoms: C_2  and  C_3
REMARK    3  A    between atoms: C_2  and  O_4
REMARK    4  A    between atoms: O_4  and  C_5
REMARK    5  A    between atoms: C_10  and  C_11
REMARK    6  A    between atoms: C_15  and  C_16
REMARK    7  A    between atoms: C_19  and  S_20
REMARK    8  A    between atoms: S_20  and  C_21
REMARK                            x       y       z     vdW  Elec       q    Type
REMARK                         _______ _______ _______ _____ _____    ______ ____
ROOT
ATOM      1  C   UNL     1       3.081   5.794  19.348  0.00  0.00    +0.000 A 
ATOM      2  C   UNL     1       2.288   6.030  20.450  0.00  0.00    +0.000 A 
ATOM      3  C   UNL     1       1.708   7.307  20.262  0.00  0.00    +0.000 A 
ATOM      4  C   UNL     1       0.836   8.116  20.991  0.00  0.00    +0.000 A 
ATOM      5  C   UNL     1       0.524   9.375  20.469  0.00  0.00    +0.000 A 
ATOM      6  N   UNL     1       0.993   9.806  19.263  0.00  0.00    +0.000 NA
ATOM      7  C   UNL     1       1.835   9.015  18.534  0.00  0.00    +0.000 A 
ATOM      8  C   UNL     1       2.185   7.778  19.051  0.00  0.00    +0.000 A 
ATOM      9  O   UNL     1       3.016   6.856  18.490  0.00  0.00    +0.000 OA
ENDROOT
BRANCH   1  15
ATOM     10  C   UNL     1       6.744   5.875  15.951  0.00  0.00    +0.000 C 
ATOM     11  O   UNL     1       7.826   6.374  16.251  0.00  0.00    +0.000 OA
ATOM     12  N   UNL     1       5.814   5.453  16.892  0.00  0.00    +0.000 N 
ATOM     13  C   UNL     1       6.078   5.823  18.280  0.00  0.00    +0.000 C 
ATOM     14  C   UNL     1       5.423   4.880  19.278  0.00  0.00    +0.000 C 
ATOM     15  C   UNL     1       3.946   4.635  18.973  0.00  0.00    +0.000 C 
ATOM     16  C   UNL     1       3.761   4.210  17.514  0.00  0.00    +0.000 C 
ATOM     17  C   UNL     1       4.428   5.165  16.528  0.00  0.00    +0.000 C 
BRANCH  10  18
ATOM     18  O   UNL     1       6.348   5.664  14.662  0.00  0.00    +0.000 OA
BRANCH  18  20
ATOM     19  C   UNL     1       6.140   3.646  13.333  0.00  0.00    +0.000 C 
ATOM     20  C   UNL     1       7.098   4.655  13.960  0.00  0.00    +0.000 C 
ATOM     21  C   UNL     1       7.930   5.332  12.878  0.00  0.00    +0.000 C 
ENDBRANCH  18  20
ENDBRANCH  10  18
ENDBRANCH   1  15
BRANCH   5  22
ATOM     22  C   UNL     1      -0.348  10.310  21.204  0.00  0.00    +0.000 A 
ATOM     23  C   UNL     1      -1.062  11.326  20.538  0.00  0.00    +0.000 A 
ATOM     24  C   UNL     1      -1.933  12.177  21.232  0.00  0.00    +0.000 A 
ATOM     25  C   UNL     1      -2.087  12.028  22.611  0.00  0.00    +0.000 A 
ATOM     26  C   UNL     1      -1.387  11.043  23.301  0.00  0.00    +0.000 A 
ATOM     27  C   UNL     1      -0.525  10.210  22.596  0.00  0.00    +0.000 A 
ATOM     28  F   UNL     1       0.146   9.288  23.305  0.00  0.00    +0.000 F 
BRANCH  25  29
ATOM     29  S   UNL     1      -3.238  13.045  23.504  0.00  0.00    +0.000 S 
ATOM     30  C   UNL     1      -4.203  13.801  22.224  0.00  0.00    +0.000 C 
ATOM     31  O   UNL     1      -4.100  12.156  24.259  0.00  0.00    +0.000 OA
ATOM     32  O   UNL     1      -2.474  14.084  24.166  0.00  0.00    +0.000 OA
ENDBRANCH  25  29
ENDBRANCH   5  22
TORSDOF 5
ENDMDL
MODEL 2
REMARK VINA RESULT:      -9.0      1.288      1.610
REMARK  Name = 
REMARK  8 active torsions:
REMARK  status: ('A' for Active; 'I' for Inactive)
REMARK    1  A    between atoms: C_1  and  C_2
REMARK    2  A    between atoms: C_2  and  C_3
REMARK    3  A    between atoms: C_2  and  O_4
REMARK    4  A    between atoms: O_4  and  C_5
REMARK    5  A    between atoms: C_10  and  C_11
REMARK    6  A    between atoms: C_15  and  C_16
REMARK    7  A    between atoms: C_19  and  S_20
REMARK    8  A    between atoms: S_20  and  C_21
REMARK                            x       y       z     vdW  Elec       q    Type
REMARK                         _______ _______ _______ _____ _____    ______ ____
ROOT
ATOM      1  C   UNL     1       3.721   5.239  19.017  0.00  0.00    +0.000 A 
ATOM      2  C   UNL     1       2.945   5.476  20.131  0.00  0.00    +0.000 A 
ATOM      3  C   UNL     1       2.321   6.729  19.927  0.00  0.00    +0.000 A 
ATOM      4  C   UNL     1       1.440   7.527  20.656  0.00  0.00    +0.000 A 
ATOM      5  C   UNL     1       1.076   8.763  20.112  0.00  0.00    +0.000 A 
ATOM      6  N   UNL     1       1.505   9.180  18.886  0.00  0.00    +0.000 NA
ATOM      7  C   UNL     1       2.356   8.399  18.157  0.00  0.00    +0.000 A 
ATOM      8  C   UNL     1       2.757   7.186  18.695  0.00  0.00    +0.000 A 
ATOM      9  O   UNL     1       3.604   6.278  18.137  0.00  0.00    +0.000 OA
ENDROOT
BRANCH   1  15
ATOM     10  C   UNL     1       6.492   4.931  14.871  0.00  0.00    +0.000 C 
ATOM     11  O   UNL     1       7.545   5.562  14.808  0.00  0.00    +0.000 OA
ATOM     12  N   UNL     1       5.855   4.632  16.068  0.00  0.00    +0.000 N 
ATOM     13  C   UNL     1       6.376   5.288  17.264  0.00  0.00    +0.000 C 
ATOM     14  C   UNL     1       6.081   4.512  18.539  0.00  0.00    +0.000 C 
ATOM     15  C   UNL     1       4.614   4.098  18.650  0.00  0.00    +0.000 C 
ATOM     16  C   UNL     1       4.160   3.382  17.376  0.00  0.00    +0.000 C 
ATOM     17  C   UNL     1       4.469   4.172  16.108  0.00  0.00    +0.000 C 
BRANCH  10  18
ATOM     18  O   UNL     1       5.845   4.441  13.774  0.00  0.00    +0.000 OA
BRANCH  18  20
ATOM     19  C   UNL     1       5.852   2.748  12.037  0.00  0.00    +0.000 C 
ATOM     20  C   UNL     1       6.689   3.736  12.843  0.00  0.00    +0.000 C 
ATOM     21  C   UNL     1       7.343   4.752  11.914  0.00  0.00    +0.000 C 
ENDBRANCH  18  20
ENDBRANCH  10  18
ENDBRANCH   1  15
BRANCH   5  22
ATOM     22  C   UNL     1       0.191   9.688  20.845  0.00  0.00    +0.000 A 
ATOM     23  C   UNL     1       0.060   9.624  22.246  0.00  0.00    +0.000 A 
ATOM     24  C   UNL     1      -0.739  10.540  22.944  0.00  0.00    +0.000 A 
ATOM     25  C   UNL     1      -1.432  11.525  22.240  0.00  0.00    +0.000 A 
ATOM     26  C   UNL     1      -1.335  11.608  20.854  0.00  0.00    +0.000 A 
ATOM     27  C   UNL     1      -0.540  10.689  20.178  0.00  0.00    +0.000 A 
ATOM     28  F   UNL     1      -0.493  10.792  18.841  0.00  0.00    +0.000 F 
BRANCH  25  29
ATOM     29  S   UNL     1      -2.393  12.743  23.105  0.00  0.00    +0.000 S 
ATOM     30  C   UNL     1      -3.186  13.647  21.803  0.00  0.00    +0.000 C 
ATOM     31  O   UNL     1      -3.413  12.033  23.853  0.00  0.00    +0.000 OA
ATOM     32  O   UNL     1      -1.464  13.633  23.771  0.00  0.00    +0.000 OA
ENDBRANCH  25  29
ENDBRANCH   5  22
TORSDOF 5
ENDMDL
MODEL 3
REMARK VINA RESULT:      -8.7      1.086      1.467
REMARK  Name = 
REMARK  8 active torsions:
REMARK  status: ('A' for Active; 'I' for Inactive)
REMARK    1  A    between atoms: C_1  and  C_2
REMARK    2  A    between atoms: C_2  and  C_3
REMARK    3  A    between atoms: C_2  and  O_4
REMARK    4  A    between atoms: O_4  and  C_5
REMARK    5  A    between atoms: C_10  and  C_11
REMARK    6  A    between atoms: C_15  and  C_16
REMARK    7  A    between atoms: C_19  and  S_20
REMARK    8  A    between atoms: S_20  and  C_21
REMARK                            x       y       z     vdW  Elec       q    Type
REMARK                         _______ _______ _______ _____ _____    ______ ____
ROOT
ATOM      1  C   UNL     1       3.034   5.832  19.360  0.00  0.00    +0.000 A 
ATOM      2  C   UNL     1       2.219   6.068  20.447  0.00  0.00    +0.000 A 
ATOM      3  C   UNL     1       1.655   7.351  20.254  0.00  0.00    +0.000 A 
ATOM      4  C   UNL     1       0.774   8.163  20.968  0.00  0.00    +0.000 A 
ATOM      5  C   UNL     1       0.483   9.428  20.448  0.00  0.00    +0.000 A 
ATOM      6  N   UNL     1       0.983   9.862  19.255  0.00  0.00    +0.000 NA
ATOM      7  C   UNL     1       1.834   9.069  18.540  0.00  0.00    +0.000 A 
ATOM      8  C   UNL     1       2.163   7.826  19.057  0.00  0.00    +0.000 A 
ATOM      9  O   UNL     1       2.998   6.900  18.509  0.00  0.00    +0.000 OA
ENDROOT
BRANCH   1  15
ATOM     10  C   UNL     1       6.748   5.893  16.019  0.00  0.00    +0.000 C 
ATOM     11  O   UNL     1       7.829   6.385  16.335  0.00  0.00    +0.000 OA
ATOM     12  N   UNL     1       5.802   5.476  16.946  0.00  0.00    +0.000 N 
ATOM     13  C   UNL     1       6.048   5.844  18.338  0.00  0.00    +0.000 C 
ATOM     14  C   UNL     1       5.372   4.904  19.325  0.00  0.00    +0.000 C 
ATOM     15  C   UNL     1       3.898   4.668  18.998  0.00  0.00    +0.000 C 
ATOM     16  C   UNL     1       3.732   4.245  17.536  0.00  0.00    +0.000 C 
ATOM     17  C   UNL     1       4.420   5.197  16.561  0.00  0.00    +0.000 C 
BRANCH  10  18
ATOM     18  O   UNL     1       6.370   5.686  14.724  0.00  0.00    +0.000 OA
BRANCH  18  20
ATOM     19  C   UNL     1       5.988   3.630  13.495  0.00  0.00    +0.000 C 
ATOM     20  C   UNL     1       7.030   4.582  14.074  0.00  0.00    +0.000 C 
ATOM     21  C   UNL     1       7.914   5.132  12.961  0.00  0.00    +0.000 C 
ENDBRANCH  18  20
ENDBRANCH  10  18
ENDBRANCH   1  15
BRANCH   5  22
ATOM     22  C   UNL     1      -0.397  10.366  21.169  0.00  0.00    +0.000 A 
ATOM     23  C   UNL     1      -0.494  10.349  22.574  0.00  0.00    +0.000 A 
ATOM     24  C   UNL     1      -1.288  11.278  23.259  0.00  0.00    +0.000 A 
ATOM     25  C   UNL     1      -2.012  12.229  22.539  0.00  0.00    +0.000 A 
ATOM     26  C   UNL     1      -1.948  12.265  21.149  0.00  0.00    +0.000 A 
ATOM     27  C   UNL     1      -1.156  11.333  20.486  0.00  0.00    +0.000 A 
ATOM     28  F   UNL     1      -1.142  11.391  19.146  0.00  0.00    +0.000 F 
BRANCH  25  29
ATOM     29  S   UNL     1      -2.968  13.464  23.384  0.00  0.00    +0.000 S 
ATOM     30  C   UNL     1      -1.741  14.482  24.158  0.00  0.00    +0.000 C 
ATOM     31  O   UNL     1      -3.642  14.253  22.372  0.00  0.00    +0.000 OA
ATOM     32  O   UNL     1      -3.717  12.790  24.427  0.00  0.00    +0.000 OA
ENDBRANCH  25  29
ENDBRANCH   5  22
TORSDOF 5
ENDMDL
MODEL 4
REMARK VINA RESULT:      -8.7      0.903      1.059
REMARK  Name = 
REMARK  8 active torsions:
REMARK  status: ('A' for Active; 'I' for Inactive)
REMARK    1  A    between atoms: C_1  and  C_2
REMARK    2  A    between atoms: C_2  and  C_3
REMARK    3  A    between atoms: C_2  and  O_4
REMARK    4  A    between atoms: O_4  and  C_5
REMARK    5  A    between atoms: C_10  and  C_11
REMARK    6  A    between atoms: C_15  and  C_16
REMARK    7  A    between atoms: C_19  and  S_20
REMARK    8  A    between atoms: S_20  and  C_21
REMARK                            x       y       z     vdW  Elec       q    Type
REMARK                         _______ _______ _______ _____ _____    ______ ____
ROOT
ATOM      1  C   UNL     1       2.891   5.989  19.327  0.00  0.00    +0.000 A 
ATOM      2  C   UNL     1       2.264   6.343  20.503  0.00  0.00    +0.000 A 
ATOM      3  C   UNL     1       1.712   7.629  20.291  0.00  0.00    +0.000 A 
ATOM      4  C   UNL     1       0.978   8.531  21.061  0.00  0.00    +0.000 A 
ATOM      5  C   UNL     1       0.645   9.761  20.485  0.00  0.00    +0.000 A 
ATOM      6  N   UNL     1       0.962  10.078  19.197  0.00  0.00    +0.000 NA
ATOM      7  C   UNL     1       1.667   9.196  18.429  0.00  0.00    +0.000 A 
ATOM      8  C   UNL     1       2.038   7.985  18.993  0.00  0.00    +0.000 A 
ATOM      9  O   UNL     1       2.750   6.985  18.404  0.00  0.00    +0.000 OA
ENDROOT
BRANCH   1  15
ATOM     10  C   UNL     1       6.706   5.843  16.105  0.00  0.00    +0.000 C 
ATOM     11  O   UNL     1       7.817   6.215  16.477  0.00  0.00    +0.000 OA
ATOM     12  N   UNL     1       5.694   5.477  16.983  0.00  0.00    +0.000 N 
ATOM     13  C   UNL     1       5.925   5.758  18.397  0.00  0.00    +0.000 C 
ATOM     14  C   UNL     1       5.130   4.844  19.318  0.00  0.00    +0.000 C 
ATOM     15  C   UNL     1       3.653   4.764  18.936  0.00  0.00    +0.000 C 
ATOM     16  C   UNL     1       3.499   4.425  17.451  0.00  0.00    +0.000 C 
ATOM     17  C   UNL     1       4.306   5.348  16.544  0.00  0.00    +0.000 C 
BRANCH  10  18
ATOM     18  O   UNL     1       6.355   5.730  14.791  0.00  0.00    +0.000 OA
BRANCH  18  20
ATOM     19  C   UNL     1       5.970   3.727  13.479  0.00  0.00    +0.000 C 
ATOM     20  C   UNL     1       7.013   4.663  14.082  0.00  0.00    +0.000 C 
ATOM     21  C   UNL     1       7.874   5.269  12.980  0.00  0.00    +0.000 C 
ENDBRANCH  18  20
ENDBRANCH  10  18
ENDBRANCH   1  15
BRANCH   5  22
ATOM     22  C   UNL     1      -0.084  10.789  21.252  0.00  0.00    +0.000 A 
ATOM     23  C   UNL     1      -0.107  12.135  20.837  0.00  0.00    +0.000 A 
ATOM     24  C   UNL     1      -0.847  13.098  21.536  0.00  0.00    +0.000 A 
ATOM     25  C   UNL     1      -1.561  12.724  22.675  0.00  0.00    +0.000 A 
ATOM     26  C   UNL     1      -1.549  11.406  23.119  0.00  0.00    +0.000 A 
ATOM     27  C   UNL     1      -0.807  10.464  22.414  0.00  0.00    +0.000 A 
ATOM     28  F   UNL     1      -0.805   9.210  22.890  0.00  0.00    +0.000 F 
BRANCH  25  29
ATOM     29  S   UNL     1      -2.565  13.909  23.538  0.00  0.00    +0.000 S 
ATOM     30  C   UNL     1      -1.391  14.826  24.499  0.00  0.00    +0.000 C 
ATOM     31  O   UNL     1      -3.132  14.798  22.543  0.00  0.00    +0.000 OA
ATOM     32  O   UNL     1      -3.415  13.171  24.451  0.00  0.00    +0.000 OA
ENDBRANCH  25  29
ENDBRANCH   5  22
TORSDOF 5
ENDMDL
MODEL 5
REMARK VINA RESULT:      -8.7      1.624      2.194
REMARK  Name = 
REMARK  8 active torsions:
REMARK  status: ('A' for Active; 'I' for Inactive)
REMARK    1  A    between atoms: C_1  and  C_2
REMARK    2  A    between atoms: C_2  and  C_3
REMARK    3  A    between atoms: C_2  and  O_4
REMARK    4  A    between atoms: O_4  and  C_5
REMARK    5  A    between atoms: C_10  and  C_11
REMARK    6  A    between atoms: C_15  and  C_16
REMARK    7  A    between atoms: C_19  and  S_20
REMARK    8  A    between atoms: S_20  and  C_21
REMARK                            x       y       z     vdW  Elec       q    Type
REMARK                         _______ _______ _______ _____ _____    ______ ____
ROOT
ATOM      1  C   UNL     1       4.107   5.398  18.925  0.00  0.00    +0.000 A 
ATOM      2  C   UNL     1       3.307   5.634  20.023  0.00  0.00    +0.000 A 
ATOM      3  C   UNL     1       2.606   6.834  19.757  0.00  0.00    +0.000 A 
ATOM      4  C   UNL     1       1.668   7.605  20.444  0.00  0.00    +0.000 A 
ATOM      5  C   UNL     1       1.231   8.790  19.842  0.00  0.00    +0.000 A 
ATOM      6  N   UNL     1       1.644   9.177  18.601  0.00  0.00    +0.000 NA
ATOM      7  C   UNL     1       2.549   8.421  17.914  0.00  0.00    +0.000 A 
ATOM      8  C   UNL     1       3.022   7.262  18.508  0.00  0.00    +0.000 A 
ATOM      9  O   UNL     1       3.931   6.386  17.998  0.00  0.00    +0.000 OA
ENDROOT
BRANCH   1  15
ATOM     10  C   UNL     1       6.042   4.409  14.426  0.00  0.00    +0.000 C 
ATOM     11  O   UNL     1       6.955   5.112  14.000  0.00  0.00    +0.000 OA
ATOM     12  N   UNL     1       5.700   4.336  15.770  0.00  0.00    +0.000 N 
ATOM     13  C   UNL     1       6.336   5.307  16.656  0.00  0.00    +0.000 C 
ATOM     14  C   UNL     1       6.413   4.828  18.098  0.00  0.00    +0.000 C 
ATOM     15  C   UNL     1       5.075   4.302  18.615  0.00  0.00    +0.000 C 
ATOM     16  C   UNL     1       4.498   3.262  17.653  0.00  0.00    +0.000 C 
ATOM     17  C   UNL     1       4.433   3.757  16.211  0.00  0.00    +0.000 C 
BRANCH  10  18
ATOM     18  O   UNL     1       5.278   3.608  13.627  0.00  0.00    +0.000 OA
BRANCH  18  20
ATOM     19  C   UNL     1       6.645   2.605  11.893  0.00  0.00    +0.000 C 
ATOM     20  C   UNL     1       5.604   3.669  12.225  0.00  0.00    +0.000 C 
ATOM     21  C   UNL     1       4.333   3.432  11.419  0.00  0.00    +0.000 C 
ENDBRANCH  18  20
ENDBRANCH  10  18
ENDBRANCH   1  15
BRANCH   5  22
ATOM     22  C   UNL     1       0.281   9.687  20.527  0.00  0.00    +0.000 A 
ATOM     23  C   UNL     1       0.117   9.653  21.925  0.00  0.00    +0.000 A 
ATOM     24  C   UNL     1      -0.745  10.545  22.577  0.00  0.00    +0.000 A 
ATOM     25  C   UNL     1      -1.468  11.475  21.829  0.00  0.00    +0.000 A 
ATOM     26  C   UNL     1      -1.337  11.527  20.445  0.00  0.00    +0.000 A 
ATOM     27  C   UNL     1      -0.480  10.632  19.815  0.00  0.00    +0.000 A 
ATOM     28  F   UNL     1      -0.402  10.703  18.477  0.00  0.00    +0.000 F 
BRANCH  25  29
ATOM     29  S   UNL     1      -2.511  12.665  22.636  0.00  0.00    +0.000 S 
ATOM     30  C   UNL     1      -1.362  13.737  23.455  0.00  0.00    +0.000 C 
ATOM     31  O   UNL     1      -3.181  13.424  21.597  0.00  0.00    +0.000 OA
ATOM     32  O   UNL     1      -3.269  11.958  23.650  0.00  0.00    +0.000 OA
ENDBRANCH  25  29
ENDBRANCH   5  22
TORSDOF 5
ENDMDL
MODEL 6
REMARK VINA RESULT:      -8.7      1.508      1.688
REMARK  Name = 
REMARK  8 active torsions:
REMARK  status: ('A' for Active; 'I' for Inactive)
REMARK    1  A    between atoms: C_1  and  C_2
REMARK    2  A    between atoms: C_2  and  C_3
REMARK    3  A    between atoms: C_2  and  O_4
REMARK    4  A    between atoms: O_4  and  C_5
REMARK    5  A    between atoms: C_10  and  C_11
REMARK    6  A    between atoms: C_15  and  C_16
REMARK    7  A    between atoms: C_19  and  S_20
REMARK    8  A    between atoms: S_20  and  C_21
REMARK                            x       y       z     vdW  Elec       q    Type
REMARK                         _______ _______ _______ _____ _____    ______ ____
ROOT
ATOM      1  C   UNL     1       2.528   6.262  19.454  0.00  0.00    +0.000 A 
ATOM      2  C   UNL     1       2.008   6.692  20.656  0.00  0.00    +0.000 A 
ATOM      3  C   UNL     1       1.523   8.003  20.436  0.00  0.00    +0.000 A 
ATOM      4  C   UNL     1       0.902   8.974  21.222  0.00  0.00    +0.000 A 
ATOM      5  C   UNL     1       0.606  10.205  20.628  0.00  0.00    +0.000 A 
ATOM      6  N   UNL     1       0.851  10.460  19.310  0.00  0.00    +0.000 NA
ATOM      7  C   UNL     1       1.444   9.511  18.528  0.00  0.00    +0.000 A 
ATOM      8  C   UNL     1       1.779   8.298  19.108  0.00  0.00    +0.000 A 
ATOM      9  O   UNL     1       2.384   7.237  18.507  0.00  0.00    +0.000 OA
ENDROOT
BRANCH   1  15
ATOM     10  C   UNL     1       6.668   5.849  16.688  0.00  0.00    +0.000 C 
ATOM     11  O   UNL     1       7.760   6.054  17.212  0.00  0.00    +0.000 OA
ATOM     12  N   UNL     1       5.519   5.557  17.411  0.00  0.00    +0.000 N 
ATOM     13  C   UNL     1       5.606   5.713  18.861  0.00  0.00    +0.000 C 
ATOM     14  C   UNL     1       4.602   4.848  19.608  0.00  0.00    +0.000 C 
ATOM     15  C   UNL     1       3.184   4.980  19.055  0.00  0.00    +0.000 C 
ATOM     16  C   UNL     1       3.175   4.761  17.540  0.00  0.00    +0.000 C 
ATOM     17  C   UNL     1       4.190   5.633  16.808  0.00  0.00    +0.000 C 
BRANCH  10  18
ATOM     18  O   UNL     1       6.470   5.868  15.338  0.00  0.00    +0.000 OA
BRANCH  18  20
ATOM     19  C   UNL     1       5.980   3.781  14.203  0.00  0.00    +0.000 C 
ATOM     20  C   UNL     1       7.066   4.766  14.627  0.00  0.00    +0.000 C 
ATOM     21  C   UNL     1       7.789   5.311  13.401  0.00  0.00    +0.000 C 
ENDBRANCH  18  20
ENDBRANCH  10  18
ENDBRANCH   1  15
BRANCH   5  22
ATOM     22  C   UNL     1      -0.002  11.300  21.405  0.00  0.00    +0.000 A 
ATOM     23  C   UNL     1      -1.049  11.060  22.317  0.00  0.00    +0.000 A 
ATOM     24  C   UNL     1      -1.586  12.095  23.095  0.00  0.00    +0.000 A 
ATOM     25  C   UNL     1      -1.090  13.391  22.955  0.00  0.00    +0.000 A 
ATOM     26  C   UNL     1      -0.065  13.664  22.053  0.00  0.00    +0.000 A 
ATOM     27  C   UNL     1       0.454  12.626  21.288  0.00  0.00    +0.000 A 
ATOM     28  F   UNL     1       1.425  12.939  20.416  0.00  0.00    +0.000 F 
BRANCH  25  29
ATOM     29  S   UNL     1      -1.702  14.707  23.979  0.00  0.00    +0.000 S 
ATOM     30  C   UNL     1      -2.022  16.015  22.827  0.00  0.00    +0.000 C 
ATOM     31  O   UNL     1      -2.969  14.267  24.531  0.00  0.00    +0.000 OA
ATOM     32  O   UNL     1      -0.616  15.123  24.843  0.00  0.00    +0.000 OA
ENDBRANCH  25  29
ENDBRANCH   5  22
TORSDOF 5
ENDMDL
MODEL 7
REMARK VINA RESULT:      -8.6      1.778      2.208
REMARK  Name = 
REMARK  8 active torsions:
REMARK  status: ('A' for Active; 'I' for Inactive)
REMARK    1  A    between atoms: C_1  and  C_2
REMARK    2  A    between atoms: C_2  and  C_3
REMARK    3  A    between atoms: C_2  and  O_4
REMARK    4  A    between atoms: O_4  and  C_5
REMARK    5  A    between atoms: C_10  and  C_11
REMARK    6  A    between atoms: C_15  and  C_16
REMARK    7  A    between atoms: C_19  and  S_20
REMARK    8  A    between atoms: S_20  and  C_21
REMARK                            x       y       z     vdW  Elec       q    Type
REMARK                         _______ _______ _______ _____ _____    ______ ____
ROOT
ATOM      1  C   UNL     1       4.010   5.673  18.956  0.00  0.00    +0.000 A 
ATOM      2  C   UNL     1       3.129   6.034  19.953  0.00  0.00    +0.000 A 
ATOM      3  C   UNL     1       2.468   7.201  19.500  0.00  0.00    +0.000 A 
ATOM      4  C   UNL     1       1.490   8.050  20.019  0.00  0.00    +0.000 A 
ATOM      5  C   UNL     1       1.119   9.161  19.256  0.00  0.00    +0.000 A 
ATOM      6  N   UNL     1       1.635   9.406  18.017  0.00  0.00    +0.000 NA
ATOM      7  C   UNL     1       2.581   8.572  17.493  0.00  0.00    +0.000 A 
ATOM      8  C   UNL     1       2.989   7.485  18.249  0.00  0.00    +0.000 A 
ATOM      9  O   UNL     1       3.922   6.552  17.914  0.00  0.00    +0.000 OA
ENDROOT
BRANCH   1  15
ATOM     10  C   UNL     1       6.553   4.402  14.848  0.00  0.00    +0.000 C 
ATOM     11  O   UNL     1       7.537   5.064  14.525  0.00  0.00    +0.000 OA
ATOM     12  N   UNL     1       6.018   4.410  16.129  0.00  0.00    +0.000 N 
ATOM     13  C   UNL     1       6.543   5.417  17.048  0.00  0.00    +0.000 C 
ATOM     14  C   UNL     1       6.396   5.017  18.508  0.00  0.00    +0.000 C 
ATOM     15  C   UNL     1       4.984   4.544  18.850  0.00  0.00    +0.000 C 
ATOM     16  C   UNL     1       4.526   3.463  17.868  0.00  0.00    +0.000 C 
ATOM     17  C   UNL     1       4.685   3.879  16.409  0.00  0.00    +0.000 C 
BRANCH  10  18
ATOM     18  O   UNL     1       5.893   3.573  13.988  0.00  0.00    +0.000 OA
BRANCH  18  20
ATOM     19  C   UNL     1       7.150   3.269  11.936  0.00  0.00    +0.000 C 
ATOM     20  C   UNL     1       5.965   3.961  12.603  0.00  0.00    +0.000 C 
ATOM     21  C   UNL     1       4.666   3.557  11.916  0.00  0.00    +0.000 C 
ENDBRANCH  18  20
ENDBRANCH  10  18
ENDBRANCH   1  15
BRANCH   5  22
ATOM     22  C   UNL     1       0.131  10.135  19.757  0.00  0.00    +0.000 A 
ATOM     23  C   UNL     1       0.295  10.773  21.002  0.00  0.00    +0.000 A 
ATOM     24  C   UNL     1      -0.616  11.738  21.450  0.00  0.00    +0.000 A 
ATOM     25  C   UNL     1      -1.718  12.065  20.658  0.00  0.00    +0.000 A 
ATOM     26  C   UNL     1      -1.916  11.444  19.429  0.00  0.00    +0.000 A 
ATOM     27  C   UNL     1      -1.002  10.487  19.002  0.00  0.00    +0.000 A 
ATOM     28  F   UNL     1      -1.245   9.898  17.820  0.00  0.00    +0.000 F 
BRANCH  25  29
ATOM     29  S   UNL     1      -2.848  13.337  21.168  0.00  0.00    +0.000 S 
ATOM     30  C   UNL     1      -4.322  12.973  20.252  0.00  0.00    +0.000 C 
ATOM     31  O   UNL     1      -3.124  13.127  22.576  0.00  0.00    +0.000 OA
ATOM     32  O   UNL     1      -2.322  14.600  20.690  0.00  0.00    +0.000 OA
ENDBRANCH  25  29
ENDBRANCH   5  22
TORSDOF 5
ENDMDL
MODEL 8
REMARK VINA RESULT:      -8.5      1.377      1.679
REMARK  Name = 
REMARK  8 active torsions:
REMARK  status: ('A' for Active; 'I' for Inactive)
REMARK    1  A    between atoms: C_1  and  C_2
REMARK    2  A    between atoms: C_2  and  C_3
REMARK    3  A    between atoms: C_2  and  O_4
REMARK    4  A    between atoms: O_4  and  C_5
REMARK    5  A    between atoms: C_10  and  C_11
REMARK    6  A    between atoms: C_15  and  C_16
REMARK    7  A    between atoms: C_19  and  S_20
REMARK    8  A    between atoms: S_20  and  C_21
REMARK                            x       y       z     vdW  Elec       q    Type
REMARK                         _______ _______ _______ _____ _____    ______ ____
ROOT
ATOM      1  C   UNL     1       3.084   5.091  19.448  0.00  0.00    +0.000 A 
ATOM      2  C   UNL     1       2.248   5.417  20.494  0.00  0.00    +0.000 A 
ATOM      3  C   UNL     1       1.803   6.739  20.254  0.00  0.00    +0.000 A 
ATOM      4  C   UNL     1       0.965   7.638  20.914  0.00  0.00    +0.000 A 
ATOM      5  C   UNL     1       0.805   8.911  20.358  0.00  0.00    +0.000 A 
ATOM      6  N   UNL     1       1.389   9.275  19.181  0.00  0.00    +0.000 NA
ATOM      7  C   UNL     1       2.198   8.398  18.517  0.00  0.00    +0.000 A 
ATOM      8  C   UNL     1       2.398   7.143  19.071  0.00  0.00    +0.000 A 
ATOM      9  O   UNL     1       3.174   6.139  18.577  0.00  0.00    +0.000 OA
ENDROOT
BRANCH   1  15
ATOM     10  C   UNL     1       6.254   4.502  15.631  0.00  0.00    +0.000 C 
ATOM     11  O   UNL     1       7.379   4.990  15.708  0.00  0.00    +0.000 OA
ATOM     12  N   UNL     1       5.450   4.266  16.738  0.00  0.00    +0.000 N 
ATOM     13  C   UNL     1       5.909   4.824  18.007  0.00  0.00    +0.000 C 
ATOM     14  C   UNL     1       5.371   4.069  19.213  0.00  0.00    +0.000 C 
ATOM     15  C   UNL     1       3.860   3.850  19.144  0.00  0.00    +0.000 C 
ATOM     16  C   UNL     1       3.468   3.225  17.804  0.00  0.00    +0.000 C 
ATOM     17  C   UNL     1       4.020   3.992  16.606  0.00  0.00    +0.000 C 
BRANCH  10  18
ATOM     18  O   UNL     1       5.681   4.123  14.452  0.00  0.00    +0.000 OA
BRANCH  18  20
ATOM     19  C   UNL     1       5.878   3.159  12.235  0.00  0.00    +0.000 C 
ATOM     20  C   UNL     1       6.616   3.807  13.402  0.00  0.00    +0.000 C 
ATOM     21  C   UNL     1       7.290   5.096  12.948  0.00  0.00    +0.000 C 
ENDBRANCH  18  20
ENDBRANCH  10  18
ENDBRANCH   1  15
BRANCH   5  22
ATOM     22  C   UNL     1      -0.022   9.935  21.024  0.00  0.00    +0.000 A 
ATOM     23  C   UNL     1      -0.172   9.961  22.424  0.00  0.00    +0.000 A 
ATOM     24  C   UNL     1      -0.912  10.969  23.057  0.00  0.00    +0.000 A 
ATOM     25  C   UNL     1      -1.527  11.957  22.288  0.00  0.00    +0.000 A 
ATOM     26  C   UNL     1      -1.409  11.953  20.902  0.00  0.00    +0.000 A 
ATOM     27  C   UNL     1      -0.673  10.944  20.291  0.00  0.00    +0.000 A 
ATOM     28  F   UNL     1      -0.604  10.966  18.951  0.00  0.00    +0.000 F 
BRANCH  25  29
ATOM     29  S   UNL     1      -2.410  13.286  23.068  0.00  0.00    +0.000 S 
ATOM     30  C   UNL     1      -3.628  12.455  24.052  0.00  0.00    +0.000 C 
ATOM     31  O   UNL     1      -1.482  13.953  23.960  0.00  0.00    +0.000 OA
ATOM     32  O   UNL     1      -3.099  14.019  22.024  0.00  0.00    +0.000 OA
ENDBRANCH  25  29
ENDBRANCH   5  22
TORSDOF 5
ENDMDL
MODEL 9
REMARK VINA RESULT:      -8.5      1.601      2.020
REMARK  Name = 
REMARK  8 active torsions:
REMARK  status: ('A' for Active; 'I' for Inactive)
REMARK    1  A    between atoms: C_1  and  C_2
REMARK    2  A    between atoms: C_2  and  C_3
REMARK    3  A    between atoms: C_2  and  O_4
REMARK    4  A    between atoms: O_4  and  C_5
REMARK    5  A    between atoms: C_10  and  C_11
REMARK    6  A    between atoms: C_15  and  C_16
REMARK    7  A    between atoms: C_19  and  S_20
REMARK    8  A    between atoms: S_20  and  C_21
REMARK                            x       y       z     vdW  Elec       q    Type
REMARK                         _______ _______ _______ _____ _____    ______ ____
ROOT
ATOM      1  C   UNL     1       3.970   5.793  18.919  0.00  0.00    +0.000 A 
ATOM      2  C   UNL     1       3.008   6.119  19.851  0.00  0.00    +0.000 A 
ATOM      3  C   UNL     1       2.394   7.309  19.394  0.00  0.00    +0.000 A 
ATOM      4  C   UNL     1       1.379   8.143  19.863  0.00  0.00    +0.000 A 
ATOM      5  C   UNL     1       1.081   9.290  19.119  0.00  0.00    +0.000 A 
ATOM      6  N   UNL     1       1.702   9.582  17.941  0.00  0.00    +0.000 NA
ATOM      7  C   UNL     1       2.687   8.764  17.465  0.00  0.00    +0.000 A 
ATOM      8  C   UNL     1       3.022   7.642  18.205  0.00  0.00    +0.000 A 
ATOM      9  O   UNL     1       3.977   6.717  17.913  0.00  0.00    +0.000 OA
ENDROOT
BRANCH   1  15
ATOM     10  C   UNL     1       6.558   4.431  14.868  0.00  0.00    +0.000 C 
ATOM     11  O   UNL     1       7.545   5.085  14.542  0.00  0.00    +0.000 OA
ATOM     12  N   UNL     1       6.008   4.467  16.143  0.00  0.00    +0.000 N 
ATOM     13  C   UNL     1       6.524   5.494  17.045  0.00  0.00    +0.000 C 
ATOM     14  C   UNL     1       6.361   5.126  18.512  0.00  0.00    +0.000 C 
ATOM     15  C   UNL     1       4.945   4.662  18.849  0.00  0.00    +0.000 C 
ATOM     16  C   UNL     1       4.497   3.559  17.886  0.00  0.00    +0.000 C 
ATOM     17  C   UNL     1       4.672   3.943  16.420  0.00  0.00    +0.000 C 
BRANCH  10  18
ATOM     18  O   UNL     1       5.907   3.583  14.020  0.00  0.00    +0.000 OA
BRANCH  18  20
ATOM     19  C   UNL     1       7.139   3.263  11.956  0.00  0.00    +0.000 C 
ATOM     20  C   UNL     1       5.963   3.961  12.631  0.00  0.00    +0.000 C 
ATOM     21  C   UNL     1       4.656   3.553  11.962  0.00  0.00    +0.000 C 
ENDBRANCH  18  20
ENDBRANCH  10  18
ENDBRANCH   1  15
BRANCH   5  22
ATOM     22  C   UNL     1       0.057  10.249  19.575  0.00  0.00    +0.000 A 
ATOM     23  C   UNL     1      -1.013  10.631  18.743  0.00  0.00    +0.000 A 
ATOM     24  C   UNL     1      -2.014  11.500  19.199  0.00  0.00    +0.000 A 
ATOM     25  C   UNL     1      -1.944  12.010  20.496  0.00  0.00    +0.000 A 
ATOM     26  C   UNL     1      -0.893  11.662  21.339  0.00  0.00    +0.000 A 
ATOM     27  C   UNL     1       0.093  10.801  20.868  0.00  0.00    +0.000 A 
ATOM     28  F   UNL     1       1.099  10.511  21.707  0.00  0.00    +0.000 F 
BRANCH  25  29
ATOM     29  S   UNL     1      -3.236  13.054  21.125  0.00  0.00    +0.000 S 
ATOM     30  C   UNL     1      -3.272  12.674  22.856  0.00  0.00    +0.000 C 
ATOM     31  O   UNL     1      -2.794  14.426  20.969  0.00  0.00    +0.000 OA
ATOM     32  O   UNL     1      -4.481  12.601  20.538  0.00  0.00    +0.000 OA
ENDBRANCH  25  29
ENDBRANCH   5  22
TORSDOF 5
ENDMDL
