MODEL 1
REMARK VINA RESULT:      -8.0      0.000      0.000
REMARK  Name = 
REMARK  2 active torsions:
REMARK  status: ('A' for Active; 'I' for Inactive)
REMARK    1  A    between atoms: C_6  and  N_7
REMARK    2  A    between atoms: C_20  and  C_21
REMARK                            x       y       z     vdW  Elec       q    Type
REMARK                         _______ _______ _______ _____ _____    ______ ____
ROOT
ATOM      1  N   UNL     1       0.783   2.923  21.193  0.00  0.00    +0.000 N 
ATOM      2  C   UNL     1       1.485   3.094  20.046  0.00  0.00    +0.000 C 
ATOM      3  O   UNL     1       1.636   2.147  19.278  0.00  0.00    +0.000 OA
ATOM      4  N   UNL     1       1.967   4.347  19.820  0.00  0.00    +0.000 N 
ATOM      5  C   UNL     1       1.825   5.520  20.665  0.00  0.00    +0.000 C 
ATOM      6  C   UNL     1       1.843   6.700  19.681  0.00  0.00    +0.000 C 
ATOM      7  C   UNL     1       2.780   6.194  18.582  0.00  0.00    +0.000 C 
ATOM      8  C   UNL     1       2.707   4.659  18.605  0.00  0.00    +0.000 C 
ATOM      9  H   UNL     1       0.399   1.988  21.286  0.00  0.00    +0.000 HD
ATOM     10  H   UNL     1       0.143   3.652  21.461  0.00  0.00    +0.000 HD
ENDROOT
BRANCH   6  11
ATOM     11  N   UNL     1       2.285   8.003  20.212  0.00  0.00    +0.000 NA
ATOM     12  C   UNL     1       2.159   9.093  19.211  0.00  0.00    +0.000 C 
ATOM     13  C   UNL     1       0.715   9.500  18.840  0.00  0.00    +0.000 C 
ATOM     14  N   UNL     1      -0.118   9.648  20.024  0.00  0.00    +0.000 N 
ATOM     15  C   UNL     1      -0.995  10.701  20.084  0.00  0.00    +0.000 A 
ATOM     16  N   UNL     1      -1.390  11.286  18.943  0.00  0.00    +0.000 NA
ATOM     17  C   UNL     1      -2.206  12.354  19.040  0.00  0.00    +0.000 A 
ATOM     18  C   UNL     1      -2.621  12.881  20.229  0.00  0.00    +0.000 A 
ATOM     19  C   UNL     1      -2.169  12.228  21.345  0.00  0.00    +0.000 A 
ATOM     20  N   UNL     1      -1.385  11.137  21.295  0.00  0.00    +0.000 NA
ATOM     21  C   UNL     1       0.051   8.769  21.175  0.00  0.00    +0.000 C 
ATOM     22  C   UNL     1       1.537   8.439  21.413  0.00  0.00    +0.000 C 
ENDBRANCH   6  11
BRANCH   8  23
ATOM     23  C   UNL     1       4.166   4.125  18.517  0.00  0.00    +0.000 C 
ATOM     24  O   UNL     1       4.634   3.308  19.307  0.00  0.00    +0.000 OA
ATOM     25  N   UNL     1       4.955   4.699  17.521  0.00  0.00    +0.000 N 
ATOM     26  C   UNL     1       4.559   5.689  16.539  0.00  0.00    +0.000 C 
ATOM     27  C   UNL     1       5.565   5.509  15.425  0.00  0.00    +0.000 C 
ATOM     28  C   UNL     1       6.846   5.228  16.190  0.00  0.00    +0.000 C 
ATOM     29  F   UNL     1       7.689   4.477  15.455  0.00  0.00    +0.000 F 
ATOM     30  F   UNL     1       7.471   6.398  16.467  0.00  0.00    +0.000 F 
ATOM     31  C   UNL     1       6.406   4.532  17.483  0.00  0.00    +0.000 C 
ENDBRANCH   8  23
TORSDOF 2
ENDMDL
MODEL 2
REMARK VINA RESULT:      -7.8      5.917     10.492
REMARK  Name = 
REMARK  2 active torsions:
REMARK  status: ('A' for Active; 'I' for Inactive)
REMARK    1  A    between atoms: C_6  and  N_7
REMARK    2  A    between atoms: C_20  and  C_21
REMARK                            x       y       z     vdW  Elec       q    Type
REMARK                         _______ _______ _______ _____ _____    ______ ____
ROOT
ATOM      1  N   UNL     1      -3.586  11.730  16.987  0.00  0.00    +0.000 N 
ATOM      2  C   UNL     1      -3.736  12.004  18.306  0.00  0.00    +0.000 C 
ATOM      3  O   UNL     1      -4.849  12.270  18.750  0.00  0.00    +0.000 OA
ATOM      4  N   UNL     1      -2.604  11.942  19.062  0.00  0.00    +0.000 N 
ATOM      5  C   UNL     1      -1.257  11.625  18.621  0.00  0.00    +0.000 C 
ATOM      6  C   UNL     1      -0.601  10.975  19.849  0.00  0.00    +0.000 C 
ATOM      7  C   UNL     1      -1.277  11.709  21.009  0.00  0.00    +0.000 C 
ATOM      8  C   UNL     1      -2.647  12.184  20.498  0.00  0.00    +0.000 C 
ATOM      9  H   UNL     1      -4.466  11.733  16.481  0.00  0.00    +0.000 HD
ATOM     10  H   UNL     1      -2.978  10.969  16.735  0.00  0.00    +0.000 HD
ENDROOT
BRANCH   6  11
ATOM     11  N   UNL     1       0.869  11.057  19.940  0.00  0.00    +0.000 NA
ATOM     12  C   UNL     1       1.426  10.116  20.945  0.00  0.00    +0.000 C 
ATOM     13  C   UNL     1       1.324   8.616  20.589  0.00  0.00    +0.000 C 
ATOM     14  N   UNL     1       1.732   8.365  19.214  0.00  0.00    +0.000 N 
ATOM     15  C   UNL     1       2.502   7.261  18.947  0.00  0.00    +0.000 A 
ATOM     16  N   UNL     1       2.493   6.236  19.811  0.00  0.00    +0.000 NA
ATOM     17  C   UNL     1       3.305   5.193  19.549  0.00  0.00    +0.000 A 
ATOM     18  C   UNL     1       4.146   5.142  18.476  0.00  0.00    +0.000 A 
ATOM     19  C   UNL     1       4.097   6.230  17.645  0.00  0.00    +0.000 A 
ATOM     20  N   UNL     1       3.276   7.276  17.847  0.00  0.00    +0.000 NA
ATOM     21  C   UNL     1       1.432   9.322  18.156  0.00  0.00    +0.000 C 
ATOM     22  C   UNL     1       1.560  10.772  18.661  0.00  0.00    +0.000 C 
ENDBRANCH   6  11
BRANCH   8  23
ATOM     23  C   UNL     1      -2.824  13.661  20.955  0.00  0.00    +0.000 C 
ATOM     24  O   UNL     1      -2.365  14.618  20.334  0.00  0.00    +0.000 OA
ATOM     25  N   UNL     1      -3.474  13.837  22.175  0.00  0.00    +0.000 N 
ATOM     26  C   UNL     1      -4.039  12.814  23.032  0.00  0.00    +0.000 C 
ATOM     27  C   UNL     1      -5.065  13.563  23.852  0.00  0.00    +0.000 C 
ATOM     28  C   UNL     1      -4.372  14.890  24.101  0.00  0.00    +0.000 C 
ATOM     29  F   UNL     1      -5.272  15.878  24.270  0.00  0.00    +0.000 F 
ATOM     30  F   UNL     1      -3.634  14.806  25.235  0.00  0.00    +0.000 F 
ATOM     31  C   UNL     1      -3.467  15.115  22.884  0.00  0.00    +0.000 C 
ENDBRANCH   8  23
TORSDOF 2
ENDMDL
MODEL 3
REMARK VINA RESULT:      -7.7      6.016     10.530
REMARK  Name = 
REMARK  2 active torsions:
REMARK  status: ('A' for Active; 'I' for Inactive)
REMARK    1  A    between atoms: C_6  and  N_7
REMARK    2  A    between atoms: C_20  and  C_21
REMARK                            x       y       z     vdW  Elec       q    Type
REMARK                         _______ _______ _______ _____ _____    ______ ____
ROOT
ATOM      1  N   UNL     1      -3.321  11.493  16.412  0.00  0.00    +0.000 N 
ATOM      2  C   UNL     1      -3.606  11.740  17.714  0.00  0.00    +0.000 C 
ATOM      3  O   UNL     1      -4.765  11.966  18.051  0.00  0.00    +0.000 OA
ATOM      4  N   UNL     1      -2.552  11.699  18.575  0.00  0.00    +0.000 N 
ATOM      5  C   UNL     1      -1.159  11.428  18.264  0.00  0.00    +0.000 C 
ATOM      6  C   UNL     1      -0.605  10.777  19.540  0.00  0.00    +0.000 C 
ATOM      7  C   UNL     1      -1.414  11.471  20.639  0.00  0.00    +0.000 C 
ATOM      8  C   UNL     1      -2.741  11.914  20.003  0.00  0.00    +0.000 C 
ATOM      9  H   UNL     1      -4.148  11.480  15.823  0.00  0.00    +0.000 HD
ATOM     10  H   UNL     1      -2.669  10.754  16.209  0.00  0.00    +0.000 HD
ENDROOT
BRANCH   6  11
ATOM     11  N   UNL     1       0.845  10.900  19.775  0.00  0.00    +0.000 NA
ATOM     12  C   UNL     1       1.338   9.932  20.787  0.00  0.00    +0.000 C 
ATOM     13  C   UNL     1       1.323   8.447  20.360  0.00  0.00    +0.000 C 
ATOM     14  N   UNL     1       1.867   8.272  19.021  0.00  0.00    +0.000 N 
ATOM     15  C   UNL     1       2.697   7.206  18.782  0.00  0.00    +0.000 A 
ATOM     16  N   UNL     1       2.643   6.142  19.597  0.00  0.00    +0.000 NA
ATOM     17  C   UNL     1       3.512   5.138  19.370  0.00  0.00    +0.000 A 
ATOM     18  C   UNL     1       4.451   5.162  18.381  0.00  0.00    +0.000 A 
ATOM     19  C   UNL     1       4.443   6.286  17.596  0.00  0.00    +0.000 A 
ATOM     20  N   UNL     1       3.570   7.295  17.763  0.00  0.00    +0.000 NA
ATOM     21  C   UNL     1       1.634   9.267  17.981  0.00  0.00    +0.000 C 
ATOM     22  C   UNL     1       1.663  10.695  18.557  0.00  0.00    +0.000 C 
ENDBRANCH   6  11
BRANCH   8  23
ATOM     23  C   UNL     1      -3.006  13.378  20.462  0.00  0.00    +0.000 C 
ATOM     24  O   UNL     1      -2.186  14.284  20.333  0.00  0.00    +0.000 OA
ATOM     25  N   UNL     1      -4.219  13.591  21.114  0.00  0.00    +0.000 N 
ATOM     26  C   UNL     1      -5.269  12.624  21.368  0.00  0.00    +0.000 C 
ATOM     27  C   UNL     1      -6.503  13.478  21.554  0.00  0.00    +0.000 C 
ATOM     28  C   UNL     1      -5.956  14.673  22.314  0.00  0.00    +0.000 C 
ATOM     29  F   UNL     1      -6.691  15.775  22.069  0.00  0.00    +0.000 F 
ATOM     30  F   UNL     1      -6.016  14.425  23.645  0.00  0.00    +0.000 F 
ATOM     31  C   UNL     1      -4.500  14.817  21.857  0.00  0.00    +0.000 C 
ENDBRANCH   8  23
TORSDOF 2
ENDMDL
MODEL 4
REMARK VINA RESULT:      -7.7      3.035      4.898
REMARK  Name = 
REMARK  2 active torsions:
REMARK  status: ('A' for Active; 'I' for Inactive)
REMARK    1  A    between atoms: C_6  and  N_7
REMARK    2  A    between atoms: C_20  and  C_21
REMARK                            x       y       z     vdW  Elec       q    Type
REMARK                         _______ _______ _______ _____ _____    ______ ____
ROOT
ATOM      1  N   UNL     1       1.065   9.248  22.444  0.00  0.00    +0.000 N 
ATOM      2  C   UNL     1       1.244   8.633  21.249  0.00  0.00    +0.000 C 
ATOM      3  O   UNL     1       1.796   7.537  21.204  0.00  0.00    +0.000 OA
ATOM      4  N   UNL     1       0.763   9.294  20.159  0.00  0.00    +0.000 N 
ATOM      5  C   UNL     1       0.090  10.580  20.125  0.00  0.00    +0.000 C 
ATOM      6  C   UNL     1      -0.847  10.486  18.911  0.00  0.00    +0.000 C 
ATOM      7  C   UNL     1      -0.056   9.587  17.957  0.00  0.00    +0.000 C 
ATOM      8  C   UNL     1       0.866   8.716  18.826  0.00  0.00    +0.000 C 
ATOM      9  H   UNL     1       1.389   8.688  23.227  0.00  0.00    +0.000 HD
ATOM     10  H   UNL     1       0.182   9.700  22.609  0.00  0.00    +0.000 HD
ENDROOT
BRANCH   6  11
ATOM     11  N   UNL     1      -1.232  11.754  18.265  0.00  0.00    +0.000 NA
ATOM     12  C   UNL     1      -2.345  11.582  17.299  0.00  0.00    +0.000 C 
ATOM     13  C   UNL     1      -3.721  11.237  17.913  0.00  0.00    +0.000 C 
ATOM     14  N   UNL     1      -4.021  12.085  19.058  0.00  0.00    +0.000 N 
ATOM     15  C   UNL     1      -5.296  12.572  19.200  0.00  0.00    +0.000 A 
ATOM     16  N   UNL     1      -6.307  11.939  18.587  0.00  0.00    +0.000 NA
ATOM     17  C   UNL     1      -7.538  12.476  18.698  0.00  0.00    +0.000 A 
ATOM     18  C   UNL     1      -7.798  13.634  19.373  0.00  0.00    +0.000 A 
ATOM     19  C   UNL     1      -6.710  14.219  19.966  0.00  0.00    +0.000 A 
ATOM     20  N   UNL     1      -5.471  13.699  19.912  0.00  0.00    +0.000 NA
ATOM     21  C   UNL     1      -2.969  12.508  19.975  0.00  0.00    +0.000 C 
ATOM     22  C   UNL     1      -1.657  12.802  19.223  0.00  0.00    +0.000 C 
ENDBRANCH   6  11
BRANCH   8  23
ATOM     23  C   UNL     1       2.274   8.730  18.163  0.00  0.00    +0.000 C 
ATOM     24  O   UNL     1       2.775   9.736  17.663  0.00  0.00    +0.000 OA
ATOM     25  N   UNL     1       2.915   7.494  18.093  0.00  0.00    +0.000 N 
ATOM     26  C   UNL     1       2.444   6.223  18.604  0.00  0.00    +0.000 C 
ATOM     27  C   UNL     1       3.710   5.414  18.770  0.00  0.00    +0.000 C 
ATOM     28  C   UNL     1       4.522   5.834  17.558  0.00  0.00    +0.000 C 
ATOM     29  F   UNL     1       5.842   5.723  17.803  0.00  0.00    +0.000 F 
ATOM     30  F   UNL     1       4.226   5.020  16.515  0.00  0.00    +0.000 F 
ATOM     31  C   UNL     1       4.094   7.274  17.258  0.00  0.00    +0.000 C 
ENDBRANCH   8  23
TORSDOF 2
ENDMDL
MODEL 5
REMARK VINA RESULT:      -7.5      7.161      8.958
REMARK  Name = 
REMARK  2 active torsions:
REMARK  status: ('A' for Active; 'I' for Inactive)
REMARK    1  A    between atoms: C_6  and  N_7
REMARK    2  A    between atoms: C_20  and  C_21
REMARK                            x       y       z     vdW  Elec       q    Type
REMARK                         _______ _______ _______ _____ _____    ______ ____
ROOT
ATOM      1  N   UNL     1       1.198  11.448  18.311  0.00  0.00    +0.000 N 
ATOM      2  C   UNL     1       1.718  12.631  18.722  0.00  0.00    +0.000 C 
ATOM      3  O   UNL     1       2.443  13.273  17.967  0.00  0.00    +0.000 OA
ATOM      4  N   UNL     1       1.368  13.035  19.975  0.00  0.00    +0.000 N 
ATOM      5  C   UNL     1       0.511  12.346  20.924  0.00  0.00    +0.000 C 
ATOM      6  C   UNL     1      -0.126  13.476  21.747  0.00  0.00    +0.000 C 
ATOM      7  C   UNL     1       0.983  14.531  21.769  0.00  0.00    +0.000 C 
ATOM      8  C   UNL     1       1.838  14.305  20.512  0.00  0.00    +0.000 C 
ATOM      9  H   UNL     1       1.443  11.222  17.352  0.00  0.00    +0.000 HD
ATOM     10  H   UNL     1       0.237  11.257  18.539  0.00  0.00    +0.000 HD
ENDROOT
BRANCH   6  11
ATOM     11  N   UNL     1      -0.576  13.136  23.110  0.00  0.00    +0.000 NA
ATOM     12  C   UNL     1      -1.228  14.282  23.793  0.00  0.00    +0.000 C 
ATOM     13  C   UNL     1      -2.598  14.712  23.223  0.00  0.00    +0.000 C 
ATOM     14  N   UNL     1      -3.460  13.564  22.984  0.00  0.00    +0.000 N 
ATOM     15  C   UNL     1      -4.789  13.658  23.314  0.00  0.00    +0.000 A 
ATOM     16  N   UNL     1      -5.350  14.872  23.419  0.00  0.00    +0.000 NA
ATOM     17  C   UNL     1      -6.640  14.931  23.803  0.00  0.00    +0.000 A 
ATOM     18  C   UNL     1      -7.387  13.831  24.113  0.00  0.00    +0.000 A 
ATOM     19  C   UNL     1      -6.738  12.631  23.985  0.00  0.00    +0.000 A 
ATOM     20  N   UNL     1      -5.463  12.522  23.570  0.00  0.00    +0.000 NA
ATOM     21  C   UNL     1      -2.911  12.298  22.512  0.00  0.00    +0.000 C 
ATOM     22  C   UNL     1      -1.540  12.011  23.152  0.00  0.00    +0.000 C 
ENDBRANCH   6  11
BRANCH   8  23
ATOM     23  C   UNL     1       3.330  14.371  20.951  0.00  0.00    +0.000 C 
ATOM     24  O   UNL     1       3.806  13.658  21.832  0.00  0.00    +0.000 OA
ATOM     25  N   UNL     1       4.093  15.361  20.333  0.00  0.00    +0.000 N 
ATOM     26  C   UNL     1       3.669  16.292  19.306  0.00  0.00    +0.000 C 
ATOM     27  C   UNL     1       4.963  16.695  18.636  0.00  0.00    +0.000 C 
ATOM     28  C   UNL     1       5.923  16.775  19.809  0.00  0.00    +0.000 C 
ATOM     29  F   UNL     1       7.187  16.530  19.412  0.00  0.00    +0.000 F 
ATOM     30  F   UNL     1       5.891  18.025  20.332  0.00  0.00    +0.000 F 
ATOM     31  C   UNL     1       5.412  15.750  20.827  0.00  0.00    +0.000 C 
ENDBRANCH   8  23
TORSDOF 2
ENDMDL
MODEL 6
REMARK VINA RESULT:      -7.4      7.571     10.613
REMARK  Name = 
REMARK  2 active torsions:
REMARK  status: ('A' for Active; 'I' for Inactive)
REMARK    1  A    between atoms: C_6  and  N_7
REMARK    2  A    between atoms: C_20  and  C_21
REMARK                            x       y       z     vdW  Elec       q    Type
REMARK                         _______ _______ _______ _____ _____    ______ ____
ROOT
ATOM      1  N   UNL     1       1.580  10.426  17.823  0.00  0.00    +0.000 N 
ATOM      2  C   UNL     1       1.086  10.991  18.952  0.00  0.00    +0.000 C 
ATOM      3  O   UNL     1       0.361  10.334  19.695  0.00  0.00    +0.000 OA
ATOM      4  N   UNL     1       1.460  12.279  19.189  0.00  0.00    +0.000 N 
ATOM      5  C   UNL     1       2.318  13.120  18.374  0.00  0.00    +0.000 C 
ATOM      6  C   UNL     1       2.985  14.069  19.381  0.00  0.00    +0.000 C 
ATOM      7  C   UNL     1       1.895  14.241  20.440  0.00  0.00    +0.000 C 
ATOM      8  C   UNL     1       1.019  12.979  20.388  0.00  0.00    +0.000 C 
ATOM      9  H   UNL     1       1.319   9.450  17.723  0.00  0.00    +0.000 HD
ATOM     10  H   UNL     1       2.541  10.612  17.591  0.00  0.00    +0.000 HD
ENDROOT
BRANCH   6  11
ATOM     11  N   UNL     1       3.448  15.370  18.865  0.00  0.00    +0.000 NA
ATOM     12  C   UNL     1       4.222  16.136  19.874  0.00  0.00    +0.000 C 
ATOM     13  C   UNL     1       5.605  15.556  20.243  0.00  0.00    +0.000 C 
ATOM     14  N   UNL     1       6.353  15.166  19.056  0.00  0.00    +0.000 N 
ATOM     15  C   UNL     1       7.695  15.449  19.003  0.00  0.00    +0.000 A 
ATOM     16  N   UNL     1       8.365  15.651  20.147  0.00  0.00    +0.000 NA
ATOM     17  C   UNL     1       9.668  15.984  20.056  0.00  0.00    +0.000 A 
ATOM     18  C   UNL     1      10.323  16.151  18.871  0.00  0.00    +0.000 A 
ATOM     19  C   UNL     1       9.566  15.931  17.750  0.00  0.00    +0.000 A 
ATOM     20  N   UNL     1       8.274  15.561  17.793  0.00  0.00    +0.000 NA
ATOM     21  C   UNL     1       5.678  14.594  17.898  0.00  0.00    +0.000 C 
ATOM     22  C   UNL     1       4.309  15.259  17.664  0.00  0.00    +0.000 C 
ENDBRANCH   6  11
BRANCH   8  23
ATOM     23  C   UNL     1      -0.466  13.446  20.420  0.00  0.00    +0.000 C 
ATOM     24  O   UNL     1      -0.954  14.202  19.582  0.00  0.00    +0.000 OA
ATOM     25  N   UNL     1      -1.205  13.016  21.521  0.00  0.00    +0.000 N 
ATOM     26  C   UNL     1      -0.765  12.155  22.601  0.00  0.00    +0.000 C 
ATOM     27  C   UNL     1      -2.053  11.582  23.148  0.00  0.00    +0.000 C 
ATOM     28  C   UNL     1      -2.998  12.767  23.054  0.00  0.00    +0.000 C 
ATOM     29  F   UNL     1      -4.273  12.354  22.915  0.00  0.00    +0.000 F 
ATOM     30  F   UNL     1      -2.922  13.493  24.196  0.00  0.00    +0.000 F 
ATOM     31  C   UNL     1      -2.506  13.589  21.858  0.00  0.00    +0.000 C 
ENDBRANCH   8  23
TORSDOF 2
ENDMDL
MODEL 7
REMARK VINA RESULT:      -7.3      7.672     10.714
REMARK  Name = 
REMARK  2 active torsions:
REMARK  status: ('A' for Active; 'I' for Inactive)
REMARK    1  A    between atoms: C_6  and  N_7
REMARK    2  A    between atoms: C_20  and  C_21
REMARK                            x       y       z     vdW  Elec       q    Type
REMARK                         _______ _______ _______ _____ _____    ______ ____
ROOT
ATOM      1  N   UNL     1       0.443   9.756  22.038  0.00  0.00    +0.000 N 
ATOM      2  C   UNL     1      -0.473  10.695  22.382  0.00  0.00    +0.000 C 
ATOM      3  O   UNL     1      -1.213  10.500  23.343  0.00  0.00    +0.000 OA
ATOM      4  N   UNL     1      -0.486  11.825  21.622  0.00  0.00    +0.000 N 
ATOM      5  C   UNL     1       0.359  12.140  20.483  0.00  0.00    +0.000 C 
ATOM      6  C   UNL     1       0.472  13.672  20.508  0.00  0.00    +0.000 C 
ATOM      7  C   UNL     1      -0.888  14.091  21.069  0.00  0.00    +0.000 C 
ATOM      8  C   UNL     1      -1.402  12.918  21.918  0.00  0.00    +0.000 C 
ATOM      9  H   UNL     1       0.450   8.961  22.670  0.00  0.00    +0.000 HD
ATOM     10  H   UNL     1       1.362  10.074  21.778  0.00  0.00    +0.000 HD
ENDROOT
BRANCH   6  11
ATOM     11  N   UNL     1       0.758  14.340  19.225  0.00  0.00    +0.000 NA
ATOM     12  C   UNL     1       1.329  15.698  19.409  0.00  0.00    +0.000 C 
ATOM     13  C   UNL     1       2.759  15.752  19.993  0.00  0.00    +0.000 C 
ATOM     14  N   UNL     1       3.638  14.794  19.338  0.00  0.00    +0.000 N 
ATOM     15  C   UNL     1       4.919  15.180  19.032  0.00  0.00    +0.000 A 
ATOM     16  N   UNL     1       5.469  16.204  19.701  0.00  0.00    +0.000 NA
ATOM     17  C   UNL     1       6.705  16.596  19.336  0.00  0.00    +0.000 A 
ATOM     18  C   UNL     1       7.406  16.026  18.312  0.00  0.00    +0.000 A 
ATOM     19  C   UNL     1       6.772  14.991  17.678  0.00  0.00    +0.000 A 
ATOM     20  N   UNL     1       5.555  14.542  18.032  0.00  0.00    +0.000 NA
ATOM     21  C   UNL     1       3.143  13.492  18.908  0.00  0.00    +0.000 C 
ATOM     22  C   UNL     1       1.705  13.593  18.365  0.00  0.00    +0.000 C 
ENDBRANCH   6  11
BRANCH   8  23
ATOM     23  C   UNL     1      -2.898  12.698  21.546  0.00  0.00    +0.000 C 
ATOM     24  O   UNL     1      -3.286  12.516  20.394  0.00  0.00    +0.000 OA
ATOM     25  N   UNL     1      -3.800  12.804  22.603  0.00  0.00    +0.000 N 
ATOM     26  C   UNL     1      -3.500  13.044  24.001  0.00  0.00    +0.000 C 
ATOM     27  C   UNL     1      -4.712  12.501  24.724  0.00  0.00    +0.000 C 
ATOM     28  C   UNL     1      -5.846  12.902  23.798  0.00  0.00    +0.000 C 
ATOM     29  F   UNL     1      -6.883  12.050  23.912  0.00  0.00    +0.000 F 
ATOM     30  F   UNL     1      -6.289  14.137  24.139  0.00  0.00    +0.000 F 
ATOM     31  C   UNL     1      -5.241  12.914  22.390  0.00  0.00    +0.000 C 
ENDBRANCH   8  23
TORSDOF 2
ENDMDL
MODEL 8
REMARK VINA RESULT:      -7.2      5.403      9.712
REMARK  Name = 
REMARK  2 active torsions:
REMARK  status: ('A' for Active; 'I' for Inactive)
REMARK    1  A    between atoms: C_6  and  N_7
REMARK    2  A    between atoms: C_20  and  C_21
REMARK                            x       y       z     vdW  Elec       q    Type
REMARK                         _______ _______ _______ _____ _____    ______ ____
ROOT
ATOM      1  N   UNL     1      -1.544  11.674  17.164  0.00  0.00    +0.000 N 
ATOM      2  C   UNL     1      -1.700  11.665  18.510  0.00  0.00    +0.000 C 
ATOM      3  O   UNL     1      -2.665  12.233  19.016  0.00  0.00    +0.000 OA
ATOM      4  N   UNL     1      -0.754  10.987  19.218  0.00  0.00    +0.000 N 
ATOM      5  C   UNL     1       0.405  10.280  18.702  0.00  0.00    +0.000 C 
ATOM      6  C   UNL     1       0.646   9.154  19.719  0.00  0.00    +0.000 C 
ATOM      7  C   UNL     1       0.195   9.798  21.032  0.00  0.00    +0.000 C 
ATOM      8  C   UNL     1      -0.836  10.878  20.668  0.00  0.00    +0.000 C 
ATOM      9  H   UNL     1      -2.305  12.143  16.682  0.00  0.00    +0.000 HD
ATOM     10  H   UNL     1      -1.252  10.819  16.722  0.00  0.00    +0.000 HD
ENDROOT
BRANCH   6  11
ATOM     11  N   UNL     1       2.020   8.628  19.818  0.00  0.00    +0.000 NA
ATOM     12  C   UNL     1       2.136   7.534  20.815  0.00  0.00    +0.000 C 
ATOM     13  C   UNL     1       1.433   6.209  20.442  0.00  0.00    +0.000 C 
ATOM     14  N   UNL     1       1.715   5.825  19.066  0.00  0.00    +0.000 N 
ATOM     15  C   UNL     1       1.969   4.505  18.790  0.00  0.00    +0.000 A 
ATOM     16  N   UNL     1       1.535   3.565  19.643  0.00  0.00    +0.000 NA
ATOM     17  C   UNL     1       1.853   2.284  19.373  0.00  0.00    +0.000 A 
ATOM     18  C   UNL     1       2.609   1.903  18.303  0.00  0.00    +0.000 A 
ATOM     19  C   UNL     1       3.016   2.924  17.484  0.00  0.00    +0.000 A 
ATOM     20  N   UNL     1       2.692   4.211  17.694  0.00  0.00    +0.000 NA
ATOM     21  C   UNL     1       1.841   6.830  18.017  0.00  0.00    +0.000 C 
ATOM     22  C   UNL     1       2.545   8.097  18.539  0.00  0.00    +0.000 C 
ENDBRANCH   6  11
BRANCH   8  23
ATOM     23  C   UNL     1      -0.478  12.153  21.487  0.00  0.00    +0.000 C 
ATOM     24  O   UNL     1       0.665  12.596  21.580  0.00  0.00    +0.000 OA
ATOM     25  N   UNL     1      -1.534  12.729  22.191  0.00  0.00    +0.000 N 
ATOM     26  C   UNL     1      -2.921  12.308  22.207  0.00  0.00    +0.000 C 
ATOM     27  C   UNL     1      -3.667  13.555  22.623  0.00  0.00    +0.000 C 
ATOM     28  C   UNL     1      -2.731  14.163  23.653  0.00  0.00    +0.000 C 
ATOM     29  F   UNL     1      -2.880  15.500  23.707  0.00  0.00    +0.000 F 
ATOM     30  F   UNL     1      -3.027  13.665  24.879  0.00  0.00    +0.000 F 
ATOM     31  C   UNL     1      -1.321  13.740  23.225  0.00  0.00    +0.000 C 
ENDBRANCH   8  23
TORSDOF 2
ENDMDL
MODEL 9
REMARK VINA RESULT:      -7.1      5.324      8.912
REMARK  Name = 
REMARK  2 active torsions:
REMARK  status: ('A' for Active; 'I' for Inactive)
REMARK    1  A    between atoms: C_6  and  N_7
REMARK    2  A    between atoms: C_20  and  C_21
REMARK                            x       y       z     vdW  Elec       q    Type
REMARK                         _______ _______ _______ _____ _____    ______ ____
ROOT
ATOM      1  N   UNL     1      -1.390  14.403  23.982  0.00  0.00    +0.000 N 
ATOM      2  C   UNL     1      -0.382  14.486  23.079  0.00  0.00    +0.000 C 
ATOM      3  O   UNL     1       0.361  15.464  23.084  0.00  0.00    +0.000 OA
ATOM      4  N   UNL     1      -0.259  13.435  22.222  0.00  0.00    +0.000 N 
ATOM      5  C   UNL     1      -1.083  12.241  22.155  0.00  0.00    +0.000 C 
ATOM      6  C   UNL     1      -0.134  11.155  21.628  0.00  0.00    +0.000 C 
ATOM      7  C   UNL     1       0.796  11.951  20.709  0.00  0.00    +0.000 C 
ATOM      8  C   UNL     1       0.807  13.396  21.230  0.00  0.00    +0.000 C 
ATOM      9  H   UNL     1      -1.402  15.183  24.633  0.00  0.00    +0.000 HD
ATOM     10  H   UNL     1      -1.554  13.511  24.418  0.00  0.00    +0.000 HD
ENDROOT
BRANCH   6  11
ATOM     11  N   UNL     1      -0.750  10.017  20.921  0.00  0.00    +0.000 NA
ATOM     12  C   UNL     1      -0.400   9.992  19.478  0.00  0.00    +0.000 C 
ATOM     13  C   UNL     1       1.074   9.666  19.150  0.00  0.00    +0.000 C 
ATOM     14  N   UNL     1       1.553   8.528  19.922  0.00  0.00    +0.000 N 
ATOM     15  C   UNL     1       2.343   7.595  19.299  0.00  0.00    +0.000 A 
ATOM     16  N   UNL     1       3.008   7.942  18.187  0.00  0.00    +0.000 NA
ATOM     17  C   UNL     1       3.727   6.986  17.567  0.00  0.00    +0.000 A 
ATOM     18  C   UNL     1       3.788   5.691  17.994  0.00  0.00    +0.000 A 
ATOM     19  C   UNL     1       3.078   5.419  19.133  0.00  0.00    +0.000 A 
ATOM     20  N   UNL     1       2.377   6.349  19.805  0.00  0.00    +0.000 NA
ATOM     21  C   UNL     1       1.114   8.316  21.296  0.00  0.00    +0.000 C 
ATOM     22  C   UNL     1      -0.368   8.697  21.474  0.00  0.00    +0.000 C 
ENDBRANCH   6  11
BRANCH   8  23
ATOM     23  C   UNL     1       0.651  14.333  19.997  0.00  0.00    +0.000 C 
ATOM     24  O   UNL     1      -0.430  14.567  19.460  0.00  0.00    +0.000 OA
ATOM     25  N   UNL     1       1.840  14.837  19.473  0.00  0.00    +0.000 N 
ATOM     26  C   UNL     1       3.185  14.627  19.971  0.00  0.00    +0.000 C 
ATOM     27  C   UNL     1       3.957  15.805  19.419  0.00  0.00    +0.000 C 
ATOM     28  C   UNL     1       3.351  15.968  18.037  0.00  0.00    +0.000 C 
ATOM     29  F   UNL     1       3.439  17.246  17.622  0.00  0.00    +0.000 F 
ATOM     30  F   UNL     1       4.035  15.200  17.153  0.00  0.00    +0.000 F 
ATOM     31  C   UNL     1       1.902  15.484  18.164  0.00  0.00    +0.000 C 
ENDBRANCH   8  23
TORSDOF 2
ENDMDL
