MODEL 1
REMARK VINA RESULT:      -8.4      0.000      0.000
REMARK  Name = 
REMARK  7 active torsions:
REMARK  status: ('A' for Active; 'I' for Inactive)
REMARK    1  A    between atoms: C_1  and  C_2
REMARK    2  A    between atoms: N_10  and  C_11
REMARK    3  A    between atoms: C_11  and  C_12
REMARK    4  A    between atoms: C_12  and  O_13
REMARK    5  A    between atoms: C_12  and  C_14
REMARK    6  A    between atoms: C_14  and  N_15
REMARK    7  A    between atoms: N_15  and  C_16
REMARK                            x       y       z     vdW  Elec       q    Type
REMARK                         _______ _______ _______ _____ _____    ______ ____
ROOT
ATOM      1  C   UNL     1       0.677   9.487  20.475  0.00  0.00    +0.000 C 
ATOM      2  C   UNL     1       1.487   8.378  19.878  0.00  0.00    +0.000 A 
ATOM      3  C   UNL     1       2.178   8.570  18.691  0.00  0.00    +0.000 A 
ATOM      4  C   UNL     1       2.956   7.552  18.135  0.00  0.00    +0.000 A 
ATOM      5  C   UNL     1       3.062   6.308  18.787  0.00  0.00    +0.000 A 
ATOM      6  C   UNL     1       2.341   6.090  19.972  0.00  0.00    +0.000 A 
ATOM      7  C   UNL     1       1.555   7.132  20.513  0.00  0.00    +0.000 A 
ATOM      8  C   UNL     1       2.589   4.758  20.383  0.00  0.00    +0.000 A 
ATOM      9  C   UNL     1       3.483   4.204  19.490  0.00  0.00    +0.000 A 
ATOM     10  N   UNL     1       3.780   5.146  18.519  0.00  0.00    +0.000 N 
ATOM     11  C   UNL     1       3.994   2.796  19.567  0.00  0.00    +0.000 C 
ATOM     12  C   UNL     1       3.693   2.192  20.957  0.00  0.00    +0.000 C 
ATOM     13  C   UNL     1       2.266   2.514  21.432  0.00  0.00    +0.000 C 
ATOM     14  C   UNL     1       2.046   4.029  21.566  0.00  0.00    +0.000 C 
ENDROOT
BRANCH  10  15
ATOM     15  C   UNL     1       4.732   4.867  17.440  0.00  0.00    +0.000 C 
BRANCH  15  16
ATOM     16  C   UNL     1       6.199   5.293  17.615  0.00  0.00    +0.000 C 
BRANCH  16  17
ATOM     17  O   UNL     1       6.714   4.949  18.912  0.00  0.00    +0.000 OA
ATOM     18  H   UNL     1       7.196   5.711  19.276  0.00  0.00    +0.000 HD
ENDBRANCH  16  17
BRANCH  16  19
ATOM     19  C   UNL     1       7.143   4.624  16.609  0.00  0.00    +0.000 C 
BRANCH  19  20
ATOM     20  N   UNL     1       7.393   5.461  15.436  0.00  0.00    +0.000 N 
ATOM     21  H   UNL     1       8.360   5.788  15.396  0.00  0.00    +0.000 HD
BRANCH  20  22
ATOM     22  C   UNL     1       7.038   4.895  14.195  0.00  0.00    +0.000 A 
ATOM     23  C   UNL     1       7.788   5.073  13.024  0.00  0.00    +0.000 A 
ATOM     24  C   UNL     1       7.419   4.453  11.827  0.00  0.00    +0.000 A 
ATOM     25  C   UNL     1       6.312   3.615  11.791  0.00  0.00    +0.000 A 
ATOM     26  C   UNL     1       5.586   3.383  12.956  0.00  0.00    +0.000 A 
ATOM     27  C   UNL     1       5.959   4.005  14.151  0.00  0.00    +0.000 A 
ENDBRANCH  20  22
ENDBRANCH  19  20
ENDBRANCH  16  19
ENDBRANCH  15  16
ENDBRANCH  10  15
TORSDOF 6
ENDMDL
MODEL 2
REMARK VINA RESULT:      -8.3      0.744      1.228
REMARK  Name = 
REMARK  7 active torsions:
REMARK  status: ('A' for Active; 'I' for Inactive)
REMARK    1  A    between atoms: C_1  and  C_2
REMARK    2  A    between atoms: N_10  and  C_11
REMARK    3  A    between atoms: C_11  and  C_12
REMARK    4  A    between atoms: C_12  and  O_13
REMARK    5  A    between atoms: C_12  and  C_14
REMARK    6  A    between atoms: C_14  and  N_15
REMARK    7  A    between atoms: N_15  and  C_16
REMARK                            x       y       z     vdW  Elec       q    Type
REMARK                         _______ _______ _______ _____ _____    ______ ____
ROOT
ATOM      1  C   UNL     1       1.162   9.706  19.157  0.00  0.00    +0.000 C 
ATOM      2  C   UNL     1       1.935   8.452  18.885  0.00  0.00    +0.000 A 
ATOM      3  C   UNL     1       2.844   8.397  17.839  0.00  0.00    +0.000 A 
ATOM      4  C   UNL     1       3.589   7.243  17.589  0.00  0.00    +0.000 A 
ATOM      5  C   UNL     1       3.437   6.111  18.414  0.00  0.00    +0.000 A 
ATOM      6  C   UNL     1       2.497   6.143  19.457  0.00  0.00    +0.000 A 
ATOM      7  C   UNL     1       1.749   7.319  19.687  0.00  0.00    +0.000 A 
ATOM      8  C   UNL     1       2.516   4.876  20.088  0.00  0.00    +0.000 A 
ATOM      9  C   UNL     1       3.487   4.115  19.468  0.00  0.00    +0.000 A 
ATOM     10  N   UNL     1       4.056   4.866  18.453  0.00  0.00    +0.000 N 
ATOM     11  C   UNL     1       3.816   2.698  19.836  0.00  0.00    +0.000 C 
ATOM     12  C   UNL     1       3.206   2.347  21.211  0.00  0.00    +0.000 C 
ATOM     13  C   UNL     1       1.762   2.858  21.353  0.00  0.00    +0.000 C 
ATOM     14  C   UNL     1       1.693   4.389  21.233  0.00  0.00    +0.000 C 
ENDROOT
BRANCH  10  15
ATOM     15  C   UNL     1       5.148   4.342  17.626  0.00  0.00    +0.000 C 
BRANCH  15  16
ATOM     16  C   UNL     1       6.486   5.099  17.595  0.00  0.00    +0.000 C 
BRANCH  16  17
ATOM     17  O   UNL     1       7.612   4.209  17.510  0.00  0.00    +0.000 OA
ATOM     18  H   UNL     1       7.539   3.679  16.698  0.00  0.00    +0.000 HD
ENDBRANCH  16  17
BRANCH  16  19
ATOM     19  C   UNL     1       6.616   6.041  16.393  0.00  0.00    +0.000 C 
BRANCH  19  20
ATOM     20  N   UNL     1       7.558   5.540  15.392  0.00  0.00    +0.000 N 
ATOM     21  H   UNL     1       8.301   4.979  15.810  0.00  0.00    +0.000 HD
BRANCH  20  22
ATOM     22  C   UNL     1       6.988   4.833  14.315  0.00  0.00    +0.000 A 
ATOM     23  C   UNL     1       5.693   4.296  14.343  0.00  0.00    +0.000 A 
ATOM     24  C   UNL     1       5.156   3.641  13.233  0.00  0.00    +0.000 A 
ATOM     25  C   UNL     1       5.893   3.545  12.059  0.00  0.00    +0.000 A 
ATOM     26  C   UNL     1       7.160   4.119  11.993  0.00  0.00    +0.000 A 
ATOM     27  C   UNL     1       7.693   4.773  13.107  0.00  0.00    +0.000 A 
ENDBRANCH  20  22
ENDBRANCH  19  20
ENDBRANCH  16  19
ENDBRANCH  15  16
ENDBRANCH  10  15
TORSDOF 6
ENDMDL
MODEL 3
REMARK VINA RESULT:      -8.0      1.015      1.199
REMARK  Name = 
REMARK  7 active torsions:
REMARK  status: ('A' for Active; 'I' for Inactive)
REMARK    1  A    between atoms: C_1  and  C_2
REMARK    2  A    between atoms: N_10  and  C_11
REMARK    3  A    between atoms: C_11  and  C_12
REMARK    4  A    between atoms: C_12  and  O_13
REMARK    5  A    between atoms: C_12  and  C_14
REMARK    6  A    between atoms: C_14  and  N_15
REMARK    7  A    between atoms: N_15  and  C_16
REMARK                            x       y       z     vdW  Elec       q    Type
REMARK                         _______ _______ _______ _____ _____    ______ ____
ROOT
ATOM      1  C   UNL     1       1.586   9.697  18.166  0.00  0.00    +0.000 C 
ATOM      2  C   UNL     1       2.362   8.417  18.212  0.00  0.00    +0.000 A 
ATOM      3  C   UNL     1       3.489   8.248  17.421  0.00  0.00    +0.000 A 
ATOM      4  C   UNL     1       4.235   7.068  17.470  0.00  0.00    +0.000 A 
ATOM      5  C   UNL     1       3.859   6.029  18.344  0.00  0.00    +0.000 A 
ATOM      6  C   UNL     1       2.702   6.176  19.126  0.00  0.00    +0.000 A 
ATOM      7  C   UNL     1       1.957   7.375  19.055  0.00  0.00    +0.000 A 
ATOM      8  C   UNL     1       2.533   4.981  19.866  0.00  0.00    +0.000 A 
ATOM      9  C   UNL     1       3.598   4.153  19.572  0.00  0.00    +0.000 A 
ATOM     10  N   UNL     1       4.412   4.790  18.651  0.00  0.00    +0.000 N 
ATOM     11  C   UNL     1       3.786   2.780  20.146  0.00  0.00    +0.000 C 
ATOM     12  C   UNL     1       2.860   2.577  21.366  0.00  0.00    +0.000 C 
ATOM     13  C   UNL     1       1.440   3.110  21.110  0.00  0.00    +0.000 C 
ATOM     14  C   UNL     1       1.449   4.620  20.826  0.00  0.00    +0.000 C 
ENDROOT
BRANCH  10  15
ATOM     15  C   UNL     1       5.651   4.177  18.163  0.00  0.00    +0.000 C 
BRANCH  15  16
ATOM     16  C   UNL     1       6.895   5.060  17.977  0.00  0.00    +0.000 C 
BRANCH  16  17
ATOM     17  O   UNL     1       8.056   4.505  18.618  0.00  0.00    +0.000 OA
ATOM     18  H   UNL     1       8.165   4.918  19.493  0.00  0.00    +0.000 HD
ENDBRANCH  16  17
BRANCH  16  19
ATOM     19  C   UNL     1       7.288   5.244  16.507  0.00  0.00    +0.000 C 
BRANCH  19  20
ATOM     20  N   UNL     1       6.190   4.933  15.592  0.00  0.00    +0.000 N 
ATOM     21  H   UNL     1       5.431   5.613  15.658  0.00  0.00    +0.000 HD
BRANCH  20  22
ATOM     22  C   UNL     1       6.550   4.764  14.240  0.00  0.00    +0.000 A 
ATOM     23  C   UNL     1       7.592   5.470  13.625  0.00  0.00    +0.000 A 
ATOM     24  C   UNL     1       7.940   5.233  12.293  0.00  0.00    +0.000 A 
ATOM     25  C   UNL     1       7.272   4.256  11.563  0.00  0.00    +0.000 A 
ATOM     26  C   UNL     1       6.271   3.506  12.173  0.00  0.00    +0.000 A 
ATOM     27  C   UNL     1       5.927   3.747  13.506  0.00  0.00    +0.000 A 
ENDBRANCH  20  22
ENDBRANCH  19  20
ENDBRANCH  16  19
ENDBRANCH  15  16
ENDBRANCH  10  15
TORSDOF 6
ENDMDL
MODEL 4
REMARK VINA RESULT:      -8.0      3.003      7.510
REMARK  Name = 
REMARK  7 active torsions:
REMARK  status: ('A' for Active; 'I' for Inactive)
REMARK    1  A    between atoms: C_1  and  C_2
REMARK    2  A    between atoms: N_10  and  C_11
REMARK    3  A    between atoms: C_11  and  C_12
REMARK    4  A    between atoms: C_12  and  O_13
REMARK    5  A    between atoms: C_12  and  C_14
REMARK    6  A    between atoms: C_14  and  N_15
REMARK    7  A    between atoms: N_15  and  C_16
REMARK                            x       y       z     vdW  Elec       q    Type
REMARK                         _______ _______ _______ _____ _____    ______ ____
ROOT
ATOM      1  C   UNL     1       6.731   4.776  14.670  0.00  0.00    +0.000 C 
ATOM      2  C   UNL     1       5.777   5.175  15.753  0.00  0.00    +0.000 A 
ATOM      3  C   UNL     1       5.768   6.473  16.241  0.00  0.00    +0.000 A 
ATOM      4  C   UNL     1       4.868   6.865  17.235  0.00  0.00    +0.000 A 
ATOM      5  C   UNL     1       3.938   5.942  17.750  0.00  0.00    +0.000 A 
ATOM      6  C   UNL     1       3.959   4.616  17.287  0.00  0.00    +0.000 A 
ATOM      7  C   UNL     1       4.883   4.239  16.287  0.00  0.00    +0.000 A 
ATOM      8  C   UNL     1       2.964   3.901  17.997  0.00  0.00    +0.000 A 
ATOM      9  C   UNL     1       2.324   4.793  18.833  0.00  0.00    +0.000 A 
ATOM     10  N   UNL     1       2.908   6.040  18.680  0.00  0.00    +0.000 N 
ATOM     11  C   UNL     1       1.208   4.428  19.767  0.00  0.00    +0.000 C 
ATOM     12  C   UNL     1       0.634   3.041  19.399  0.00  0.00    +0.000 C 
ATOM     13  C   UNL     1       1.740   2.019  19.092  0.00  0.00    +0.000 C 
ATOM     14  C   UNL     1       2.597   2.458  17.895  0.00  0.00    +0.000 C 
ENDROOT
BRANCH  10  15
ATOM     15  C   UNL     1       2.424   7.213  19.414  0.00  0.00    +0.000 C 
BRANCH  15  16
ATOM     16  C   UNL     1       2.184   8.523  18.646  0.00  0.00    +0.000 C 
BRANCH  16  17
ATOM     17  O   UNL     1       1.929   8.295  17.250  0.00  0.00    +0.000 OA
ATOM     18  H   UNL     1       1.183   8.851  16.967  0.00  0.00    +0.000 HD
ENDBRANCH  16  17
BRANCH  16  19
ATOM     19  C   UNL     1       0.972   9.308  19.160  0.00  0.00    +0.000 C 
BRANCH  19  20
ATOM     20  N   UNL     1       0.578  10.385  18.252  0.00  0.00    +0.000 N 
ATOM     21  H   UNL     1       0.987  10.273  17.323  0.00  0.00    +0.000 HD
BRANCH  20  22
ATOM     22  C   UNL     1      -0.808  10.605  18.129  0.00  0.00    +0.000 A 
ATOM     23  C   UNL     1      -1.638   9.848  17.290  0.00  0.00    +0.000 A 
ATOM     24  C   UNL     1      -3.015  10.076  17.237  0.00  0.00    +0.000 A 
ATOM     25  C   UNL     1      -3.592  11.043  18.052  0.00  0.00    +0.000 A 
ATOM     26  C   UNL     1      -2.792  11.767  18.931  0.00  0.00    +0.000 A 
ATOM     27  C   UNL     1      -1.415  11.536  18.980  0.00  0.00    +0.000 A 
ENDBRANCH  20  22
ENDBRANCH  19  20
ENDBRANCH  16  19
ENDBRANCH  15  16
ENDBRANCH  10  15
TORSDOF 6
ENDMDL
MODEL 5
REMARK VINA RESULT:      -7.9      4.314      7.173
REMARK  Name = 
REMARK  7 active torsions:
REMARK  status: ('A' for Active; 'I' for Inactive)
REMARK    1  A    between atoms: C_1  and  C_2
REMARK    2  A    between atoms: N_10  and  C_11
REMARK    3  A    between atoms: C_11  and  C_12
REMARK    4  A    between atoms: C_12  and  O_13
REMARK    5  A    between atoms: C_12  and  C_14
REMARK    6  A    between atoms: C_14  and  N_15
REMARK    7  A    between atoms: N_15  and  C_16
REMARK                            x       y       z     vdW  Elec       q    Type
REMARK                         _______ _______ _______ _____ _____    ______ ____
ROOT
ATOM      1  C   UNL     1       5.757   3.307  12.068  0.00  0.00    +0.000 C 
ATOM      2  C   UNL     1       6.067   3.866  13.423  0.00  0.00    +0.000 A 
ATOM      3  C   UNL     1       7.258   4.538  13.652  0.00  0.00    +0.000 A 
ATOM      4  C   UNL     1       7.550   5.083  14.904  0.00  0.00    +0.000 A 
ATOM      5  C   UNL     1       6.622   4.972  15.958  0.00  0.00    +0.000 A 
ATOM      6  C   UNL     1       5.427   4.266  15.747  0.00  0.00    +0.000 A 
ATOM      7  C   UNL     1       5.155   3.715  14.474  0.00  0.00    +0.000 A 
ATOM      8  C   UNL     1       4.710   4.266  16.968  0.00  0.00    +0.000 A 
ATOM      9  C   UNL     1       5.438   5.003  17.880  0.00  0.00    +0.000 A 
ATOM     10  N   UNL     1       6.600   5.441  17.267  0.00  0.00    +0.000 N 
ATOM     11  C   UNL     1       5.024   5.236  19.303  0.00  0.00    +0.000 C 
ATOM     12  C   UNL     1       3.535   4.874  19.494  0.00  0.00    +0.000 C 
ATOM     13  C   UNL     1       3.165   3.555  18.798  0.00  0.00    +0.000 C 
ATOM     14  C   UNL     1       3.394   3.636  17.280  0.00  0.00    +0.000 C 
ENDROOT
BRANCH  10  15
ATOM     15  C   UNL     1       7.573   6.282  17.972  0.00  0.00    +0.000 C 
BRANCH  15  16
ATOM     16  C   UNL     1       7.857   7.696  17.439  0.00  0.00    +0.000 C 
BRANCH  16  17
ATOM     17  O   UNL     1       6.700   8.286  16.820  0.00  0.00    +0.000 OA
ATOM     18  H   UNL     1       6.689   8.051  15.876  0.00  0.00    +0.000 HD
ENDBRANCH  16  17
BRANCH  16  19
ATOM     19  C   UNL     1       8.281   8.679  18.536  0.00  0.00    +0.000 C 
BRANCH  19  20
ATOM     20  N   UNL     1       8.507  10.028  18.019  0.00  0.00    +0.000 N 
ATOM     21  H   UNL     1       7.645  10.573  17.975  0.00  0.00    +0.000 HD
BRANCH  20  22
ATOM     22  C   UNL     1       9.501  10.778  18.681  0.00  0.00    +0.000 A 
ATOM     23  C   UNL     1       9.519  10.981  20.067  0.00  0.00    +0.000 A 
ATOM     24  C   UNL     1      10.551  11.693  20.682  0.00  0.00    +0.000 A 
ATOM     25  C   UNL     1      11.605  12.185  19.920  0.00  0.00    +0.000 A 
ATOM     26  C   UNL     1      11.633  11.948  18.549  0.00  0.00    +0.000 A 
ATOM     27  C   UNL     1      10.597  11.234  17.940  0.00  0.00    +0.000 A 
ENDBRANCH  20  22
ENDBRANCH  19  20
ENDBRANCH  16  19
ENDBRANCH  15  16
ENDBRANCH  10  15
TORSDOF 6
ENDMDL
MODEL 6
REMARK VINA RESULT:      -7.8      2.824      7.558
REMARK  Name = 
REMARK  7 active torsions:
REMARK  status: ('A' for Active; 'I' for Inactive)
REMARK    1  A    between atoms: C_1  and  C_2
REMARK    2  A    between atoms: N_10  and  C_11
REMARK    3  A    between atoms: C_11  and  C_12
REMARK    4  A    between atoms: C_12  and  O_13
REMARK    5  A    between atoms: C_12  and  C_14
REMARK    6  A    between atoms: C_14  and  N_15
REMARK    7  A    between atoms: N_15  and  C_16
REMARK                            x       y       z     vdW  Elec       q    Type
REMARK                         _______ _______ _______ _____ _____    ______ ____
ROOT
ATOM      1  C   UNL     1       6.116   4.074  14.362  0.00  0.00    +0.000 C 
ATOM      2  C   UNL     1       5.374   4.623  15.541  0.00  0.00    +0.000 A 
ATOM      3  C   UNL     1       5.535   5.948  15.919  0.00  0.00    +0.000 A 
ATOM      4  C   UNL     1       4.832   6.480  17.002  0.00  0.00    +0.000 A 
ATOM      5  C   UNL     1       3.928   5.675  17.723  0.00  0.00    +0.000 A 
ATOM      6  C   UNL     1       3.781   4.324  17.370  0.00  0.00    +0.000 A 
ATOM      7  C   UNL     1       4.508   3.804  16.275  0.00  0.00    +0.000 A 
ATOM      8  C   UNL     1       2.861   3.744  18.276  0.00  0.00    +0.000 A 
ATOM      9  C   UNL     1       2.424   4.741  19.124  0.00  0.00    +0.000 A 
ATOM     10  N   UNL     1       3.066   5.921  18.787  0.00  0.00    +0.000 N 
ATOM     11  C   UNL     1       1.444   4.534  20.241  0.00  0.00    +0.000 C 
ATOM     12  C   UNL     1       0.721   3.179  20.075  0.00  0.00    +0.000 C 
ATOM     13  C   UNL     1       1.689   2.049  19.688  0.00  0.00    +0.000 C 
ATOM     14  C   UNL     1       2.379   2.333  18.345  0.00  0.00    +0.000 C 
ENDROOT
BRANCH  10  15
ATOM     15  C   UNL     1       2.788   7.177  19.489  0.00  0.00    +0.000 C 
BRANCH  15  16
ATOM     16  C   UNL     1       2.167   8.345  18.706  0.00  0.00    +0.000 C 
BRANCH  16  17
ATOM     17  O   UNL     1       1.574   7.915  17.469  0.00  0.00    +0.000 OA
ATOM     18  H   UNL     1       1.732   6.962  17.354  0.00  0.00    +0.000 HD
ENDBRANCH  16  17
BRANCH  16  19
ATOM     19  C   UNL     1       1.045   9.054  19.472  0.00  0.00    +0.000 C 
BRANCH  19  20
ATOM     20  N   UNL     1       0.809  10.413  18.986  0.00  0.00    +0.000 N 
ATOM     21  H   UNL     1       1.323  10.608  18.126  0.00  0.00    +0.000 HD
BRANCH  20  22
ATOM     22  C   UNL     1      -0.542  10.776  18.816  0.00  0.00    +0.000 A 
ATOM     23  C   UNL     1      -1.140  11.858  19.476  0.00  0.00    +0.000 A 
ATOM     24  C   UNL     1      -2.471  12.206  19.239  0.00  0.00    +0.000 A 
ATOM     25  C   UNL     1      -3.219  11.496  18.307  0.00  0.00    +0.000 A 
ATOM     26  C   UNL     1      -2.628  10.452  17.601  0.00  0.00    +0.000 A 
ATOM     27  C   UNL     1      -1.295  10.109  17.842  0.00  0.00    +0.000 A 
ENDBRANCH  20  22
ENDBRANCH  19  20
ENDBRANCH  16  19
ENDBRANCH  15  16
ENDBRANCH  10  15
TORSDOF 6
ENDMDL
MODEL 7
REMARK VINA RESULT:      -7.7      0.684      1.171
REMARK  Name = 
REMARK  7 active torsions:
REMARK  status: ('A' for Active; 'I' for Inactive)
REMARK    1  A    between atoms: C_1  and  C_2
REMARK    2  A    between atoms: N_10  and  C_11
REMARK    3  A    between atoms: C_11  and  C_12
REMARK    4  A    between atoms: C_12  and  O_13
REMARK    5  A    between atoms: C_12  and  C_14
REMARK    6  A    between atoms: C_14  and  N_15
REMARK    7  A    between atoms: N_15  and  C_16
REMARK                            x       y       z     vdW  Elec       q    Type
REMARK                         _______ _______ _______ _____ _____    ______ ____
ROOT
ATOM      1  C   UNL     1       0.738   9.978  20.285  0.00  0.00    +0.000 C 
ATOM      2  C   UNL     1       1.463   8.828  19.656  0.00  0.00    +0.000 A 
ATOM      3  C   UNL     1       2.083   8.976  18.424  0.00  0.00    +0.000 A 
ATOM      4  C   UNL     1       2.782   7.919  17.837  0.00  0.00    +0.000 A 
ATOM      5  C   UNL     1       2.881   6.681  18.501  0.00  0.00    +0.000 A 
ATOM      6  C   UNL     1       2.231   6.510  19.734  0.00  0.00    +0.000 A 
ATOM      7  C   UNL     1       1.522   7.590  20.306  0.00  0.00    +0.000 A 
ATOM      8  C   UNL     1       2.451   5.175  20.151  0.00  0.00    +0.000 A 
ATOM      9  C   UNL     1       3.263   4.572  19.211  0.00  0.00    +0.000 A 
ATOM     10  N   UNL     1       3.534   5.488  18.208  0.00  0.00    +0.000 N 
ATOM     11  C   UNL     1       3.723   3.145  19.279  0.00  0.00    +0.000 C 
ATOM     12  C   UNL     1       3.488   2.574  20.695  0.00  0.00    +0.000 C 
ATOM     13  C   UNL     1       2.109   2.960  21.255  0.00  0.00    +0.000 C 
ATOM     14  C   UNL     1       1.958   4.484  21.378  0.00  0.00    +0.000 C 
ENDROOT
BRANCH  10  15
ATOM     15  C   UNL     1       4.403   5.155  17.075  0.00  0.00    +0.000 C 
BRANCH  15  16
ATOM     16  C   UNL     1       5.865   5.630  17.095  0.00  0.00    +0.000 C 
BRANCH  16  17
ATOM     17  O   UNL     1       6.305   5.977  18.418  0.00  0.00    +0.000 OA
ATOM     18  H   UNL     1       6.455   6.937  18.463  0.00  0.00    +0.000 HD
ENDBRANCH  16  17
BRANCH  16  19
ATOM     19  C   UNL     1       6.850   4.565  16.602  0.00  0.00    +0.000 C 
BRANCH  19  20
ATOM     20  N   UNL     1       6.250   3.660  15.621  0.00  0.00    +0.000 N 
ATOM     21  H   UNL     1       5.236   3.599  15.726  0.00  0.00    +0.000 HD
BRANCH  20  22
ATOM     22  C   UNL     1       6.566   3.923  14.273  0.00  0.00    +0.000 A 
ATOM     23  C   UNL     1       5.862   3.372  13.194  0.00  0.00    +0.000 A 
ATOM     24  C   UNL     1       6.186   3.699  11.875  0.00  0.00    +0.000 A 
ATOM     25  C   UNL     1       7.198   4.615  11.615  0.00  0.00    +0.000 A 
ATOM     26  C   UNL     1       7.872   5.215  12.674  0.00  0.00    +0.000 A 
ATOM     27  C   UNL     1       7.545   4.884  13.992  0.00  0.00    +0.000 A 
ENDBRANCH  20  22
ENDBRANCH  19  20
ENDBRANCH  16  19
ENDBRANCH  15  16
ENDBRANCH  10  15
TORSDOF 6
ENDMDL
MODEL 8
REMARK VINA RESULT:      -7.6      0.642      3.584
REMARK  Name = 
REMARK  7 active torsions:
REMARK  status: ('A' for Active; 'I' for Inactive)
REMARK    1  A    between atoms: C_1  and  C_2
REMARK    2  A    between atoms: N_10  and  C_11
REMARK    3  A    between atoms: C_11  and  C_12
REMARK    4  A    between atoms: C_12  and  O_13
REMARK    5  A    between atoms: C_12  and  C_14
REMARK    6  A    between atoms: C_14  and  N_15
REMARK    7  A    between atoms: N_15  and  C_16
REMARK                            x       y       z     vdW  Elec       q    Type
REMARK                         _______ _______ _______ _____ _____    ______ ____
ROOT
ATOM      1  C   UNL     1       1.347   2.251  22.311  0.00  0.00    +0.000 C 
ATOM      2  C   UNL     1       2.081   3.025  21.260  0.00  0.00    +0.000 A 
ATOM      3  C   UNL     1       3.110   2.434  20.540  0.00  0.00    +0.000 A 
ATOM      4  C   UNL     1       3.788   3.136  19.542  0.00  0.00    +0.000 A 
ATOM      5  C   UNL     1       3.423   4.462  19.236  0.00  0.00    +0.000 A 
ATOM      6  C   UNL     1       2.405   5.081  19.979  0.00  0.00    +0.000 A 
ATOM      7  C   UNL     1       1.737   4.355  20.991  0.00  0.00    +0.000 A 
ATOM      8  C   UNL     1       2.275   6.408  19.502  0.00  0.00    +0.000 A 
ATOM      9  C   UNL     1       3.164   6.565  18.458  0.00  0.00    +0.000 A 
ATOM     10  N   UNL     1       3.860   5.380  18.287  0.00  0.00    +0.000 N 
ATOM     11  C   UNL     1       3.345   7.838  17.685  0.00  0.00    +0.000 C 
ATOM     12  C   UNL     1       2.168   8.801  17.955  0.00  0.00    +0.000 C 
ATOM     13  C   UNL     1       1.797   8.859  19.446  0.00  0.00    +0.000 C 
ATOM     14  C   UNL     1       1.354   7.484  19.969  0.00  0.00    +0.000 C 
ENDROOT
BRANCH  10  15
ATOM     15  C   UNL     1       4.861   5.220  17.227  0.00  0.00    +0.000 C 
BRANCH  15  16
ATOM     16  C   UNL     1       6.347   5.144  17.613  0.00  0.00    +0.000 C 
BRANCH  16  17
ATOM     17  O   UNL     1       6.650   3.964  18.377  0.00  0.00    +0.000 OA
ATOM     18  H   UNL     1       5.929   3.798  19.007  0.00  0.00    +0.000 HD
ENDBRANCH  16  17
BRANCH  16  19
ATOM     19  C   UNL     1       7.282   5.098  16.400  0.00  0.00    +0.000 C 
BRANCH  19  20
ATOM     20  N   UNL     1       6.723   5.788  15.238  0.00  0.00    +0.000 N 
ATOM     21  H   UNL     1       7.202   6.669  15.047  0.00  0.00    +0.000 HD
BRANCH  20  22
ATOM     22  C   UNL     1       6.650   5.029  14.053  0.00  0.00    +0.000 A 
ATOM     23  C   UNL     1       7.627   5.069  13.049  0.00  0.00    +0.000 A 
ATOM     24  C   UNL     1       7.532   4.262  11.913  0.00  0.00    +0.000 A 
ATOM     25  C   UNL     1       6.472   3.374  11.778  0.00  0.00    +0.000 A 
ATOM     26  C   UNL     1       5.519   3.281  12.789  0.00  0.00    +0.000 A 
ATOM     27  C   UNL     1       5.620   4.090  13.924  0.00  0.00    +0.000 A 
ENDBRANCH  20  22
ENDBRANCH  19  20
ENDBRANCH  16  19
ENDBRANCH  15  16
ENDBRANCH  10  15
TORSDOF 6
ENDMDL
MODEL 9
REMARK VINA RESULT:      -7.6      0.921      3.791
REMARK  Name = 
REMARK  7 active torsions:
REMARK  status: ('A' for Active; 'I' for Inactive)
REMARK    1  A    between atoms: C_1  and  C_2
REMARK    2  A    between atoms: N_10  and  C_11
REMARK    3  A    between atoms: C_11  and  C_12
REMARK    4  A    between atoms: C_12  and  O_13
REMARK    5  A    between atoms: C_12  and  C_14
REMARK    6  A    between atoms: C_14  and  N_15
REMARK    7  A    between atoms: N_15  and  C_16
REMARK                            x       y       z     vdW  Elec       q    Type
REMARK                         _______ _______ _______ _____ _____    ______ ____
ROOT
ATOM      1  C   UNL     1       1.798   2.474  21.906  0.00  0.00    +0.000 C 
ATOM      2  C   UNL     1       2.308   3.438  20.879  0.00  0.00    +0.000 A 
ATOM      3  C   UNL     1       3.250   3.037  19.944  0.00  0.00    +0.000 A 
ATOM      4  C   UNL     1       3.717   3.919  18.966  0.00  0.00    +0.000 A 
ATOM      5  C   UNL     1       3.221   5.235  18.906  0.00  0.00    +0.000 A 
ATOM      6  C   UNL     1       2.290   5.662  19.867  0.00  0.00    +0.000 A 
ATOM      7  C   UNL     1       1.837   4.756  20.853  0.00  0.00    +0.000 A 
ATOM      8  C   UNL     1       2.000   7.023  19.606  0.00  0.00    +0.000 A 
ATOM      9  C   UNL     1       2.704   7.390  18.477  0.00  0.00    +0.000 A 
ATOM     10  N   UNL     1       3.443   6.303  18.043  0.00  0.00    +0.000 N 
ATOM     11  C   UNL     1       2.678   8.764  17.873  0.00  0.00    +0.000 C 
ATOM     12  C   UNL     1       1.495   9.577  18.443  0.00  0.00    +0.000 C 
ATOM     13  C   UNL     1       1.356   9.410  19.965  0.00  0.00    +0.000 C 
ATOM     14  C   UNL     1       1.092   7.945  20.348  0.00  0.00    +0.000 C 
ENDROOT
BRANCH  10  15
ATOM     15  C   UNL     1       4.276   6.369  16.838  0.00  0.00    +0.000 C 
BRANCH  15  16
ATOM     16  C   UNL     1       5.806   6.335  16.988  0.00  0.00    +0.000 C 
BRANCH  16  17
ATOM     17  O   UNL     1       6.225   6.617  18.334  0.00  0.00    +0.000 OA
ATOM     18  H   UNL     1       6.866   7.349  18.322  0.00  0.00    +0.000 HD
ENDBRANCH  16  17
BRANCH  16  19
ATOM     19  C   UNL     1       6.414   4.970  16.648  0.00  0.00    +0.000 C 
BRANCH  19  20
ATOM     20  N   UNL     1       7.512   5.072  15.687  0.00  0.00    +0.000 N 
ATOM     21  H   UNL     1       8.352   4.589  16.011  0.00  0.00    +0.000 HD
BRANCH  20  22
ATOM     22  C   UNL     1       7.214   4.662  14.372  0.00  0.00    +0.000 A 
ATOM     23  C   UNL     1       6.212   3.732  14.062  0.00  0.00    +0.000 A 
ATOM     24  C   UNL     1       5.924   3.392  12.738  0.00  0.00    +0.000 A 
ATOM     25  C   UNL     1       6.612   4.005  11.698  0.00  0.00    +0.000 A 
ATOM     26  C   UNL     1       7.574   4.970  11.983  0.00  0.00    +0.000 A 
ATOM     27  C   UNL     1       7.857   5.307  13.310  0.00  0.00    +0.000 A 
ENDBRANCH  20  22
ENDBRANCH  19  20
ENDBRANCH  16  19
ENDBRANCH  15  16
ENDBRANCH  10  15
TORSDOF 6
ENDMDL
