MODEL 1
REMARK VINA RESULT:      -7.9      0.000      0.000
REMARK  Name = 
REMARK  5 active torsions:
REMARK  status: ('A' for Active; 'I' for Inactive)
REMARK    1  A    between atoms: N_1  and  C_2
REMARK    2  A    between atoms: C_2  and  C_3
REMARK    3  A    between atoms: C_5  and  C_6
REMARK    4  A    between atoms: C_21  and  O_22
REMARK    5  A    between atoms: C_23  and  O_24
REMARK                            x       y       z     vdW  Elec       q    Type
REMARK                         _______ _______ _______ _____ _____    ______ ____
ROOT
ATOM      1  C   UNL     1       0.444   8.675  21.397  0.00  0.00    +0.000 C 
ATOM      2  O   UNL     1       0.758   7.403  20.799  0.00  0.00    +0.000 OA
ATOM      3  C   UNL     1       2.007   7.365  20.093  0.00  0.00    +0.000 C 
ATOM      4  C   UNL     1       1.970   8.352  18.912  0.00  0.00    +0.000 C 
ATOM      5  C   UNL     1       1.393   9.691  19.276  0.00  0.00    +0.000 A 
ATOM      6  C   UNL     1       0.615   9.833  20.435  0.00  0.00    +0.000 A 
ATOM      7  C   UNL     1      -0.004  11.072  20.702  0.00  0.00    +0.000 A 
ATOM      8  C   UNL     1       0.141  12.153  19.829  0.00  0.00    +0.000 A 
ATOM      9  C   UNL     1       0.906  11.997  18.683  0.00  0.00    +0.000 A 
ATOM     10  C   UNL     1       1.520  10.777  18.406  0.00  0.00    +0.000 A 
ENDROOT
BRANCH   3  11
ATOM     11  C   UNL     1       2.277   5.888  19.652  0.00  0.00    +0.000 C 
ATOM     12  C   UNL     1       3.786   5.522  19.761  0.00  0.00    +0.000 C 
ATOM     13  C   UNL     1       4.037   4.071  19.331  0.00  0.00    +0.000 C 
ATOM     14  C   UNL     1       3.212   3.134  20.228  0.00  0.00    +0.000 C 
ATOM     15  C   UNL     1       1.714   3.439  20.070  0.00  0.00    +0.000 C 
ATOM     16  C   UNL     1       1.450   4.890  20.506  0.00  0.00    +0.000 C 
ATOM     17  C   UNL     1       1.307   3.267  18.600  0.00  0.00    +0.000 C 
ATOM     18  C   UNL     1       2.118   4.227  17.716  0.00  0.00    +0.000 C 
ATOM     19  C   UNL     1       1.862   5.681  18.164  0.00  0.00    +0.000 C 
ATOM     20  C   UNL     1       3.611   3.900  17.867  0.00  0.00    +0.000 C 
ENDBRANCH   3  11
BRANCH   9  21
ATOM     21  O   UNL     1       1.076  13.010  17.781  0.00  0.00    +0.000 OA
ATOM     22  H   UNL     1       2.007  13.007  17.496  0.00  0.00    +0.000 HD
ENDBRANCH   9  21
BRANCH  10  23
ATOM     23  O   UNL     1       2.243  10.647  17.251  0.00  0.00    +0.000 OA
ATOM     24  H   UNL     1       1.580  10.398  16.575  0.00  0.00    +0.000 HD
ENDBRANCH  10  23
BRANCH   1  25
ATOM     25  C   UNL     1       1.241   8.900  22.711  0.00  0.00    +0.000 C 
BRANCH  25  26
ATOM     26  N   UNL     1       0.453   9.583  23.745  0.00  0.00    +0.000 NA
ATOM     27  H   UNL     1       0.988  10.364  24.120  0.00  0.00    +0.000 HD
ATOM     28  H   UNL     1       0.304   8.927  24.515  0.00  0.00    +0.000 HD
ENDBRANCH  25  26
ENDBRANCH   1  25
TORSDOF 5
ENDMDL
MODEL 2
REMARK VINA RESULT:      -7.8      0.022      1.536
REMARK  Name = 
REMARK  5 active torsions:
REMARK  status: ('A' for Active; 'I' for Inactive)
REMARK    1  A    between atoms: N_1  and  C_2
REMARK    2  A    between atoms: C_2  and  C_3
REMARK    3  A    between atoms: C_5  and  C_6
REMARK    4  A    between atoms: C_21  and  O_22
REMARK    5  A    between atoms: C_23  and  O_24
REMARK                            x       y       z     vdW  Elec       q    Type
REMARK                         _______ _______ _______ _____ _____    ______ ____
ROOT
ATOM      1  C   UNL     1       0.449   8.688  21.400  0.00  0.00    +0.000 C 
ATOM      2  O   UNL     1       0.750   7.415  20.797  0.00  0.00    +0.000 OA
ATOM      3  C   UNL     1       1.996   7.368  20.087  0.00  0.00    +0.000 C 
ATOM      4  C   UNL     1       1.962   8.357  18.908  0.00  0.00    +0.000 C 
ATOM      5  C   UNL     1       1.399   9.700  19.276  0.00  0.00    +0.000 A 
ATOM      6  C   UNL     1       0.627   9.848  20.439  0.00  0.00    +0.000 A 
ATOM      7  C   UNL     1       0.020  11.091  20.711  0.00  0.00    +0.000 A 
ATOM      8  C   UNL     1       0.171  12.173  19.839  0.00  0.00    +0.000 A 
ATOM      9  C   UNL     1       0.930  12.012  18.690  0.00  0.00    +0.000 A 
ATOM     10  C   UNL     1       1.533  10.787  18.408  0.00  0.00    +0.000 A 
ENDROOT
BRANCH   3  11
ATOM     11  C   UNL     1       2.251   5.889  19.641  0.00  0.00    +0.000 C 
ATOM     12  C   UNL     1       1.468   4.878  20.527  0.00  0.00    +0.000 C 
ATOM     13  C   UNL     1       1.722   3.433  20.077  0.00  0.00    +0.000 C 
ATOM     14  C   UNL     1       1.285   3.282  18.611  0.00  0.00    +0.000 C 
ATOM     15  C   UNL     1       2.107   4.226  17.717  0.00  0.00    +0.000 C 
ATOM     16  C   UNL     1       1.852   5.678  18.156  0.00  0.00    +0.000 C 
ATOM     17  C   UNL     1       3.600   3.902  17.866  0.00  0.00    +0.000 C 
ATOM     18  C   UNL     1       4.031   4.082  19.329  0.00  0.00    +0.000 C 
ATOM     19  C   UNL     1       3.763   5.536  19.771  0.00  0.00    +0.000 C 
ATOM     20  C   UNL     1       3.218   3.121  20.210  0.00  0.00    +0.000 C 
ENDBRANCH   3  11
BRANCH   9  21
ATOM     21  O   UNL     1       1.106  13.025  17.789  0.00  0.00    +0.000 OA
ATOM     22  H   UNL     1       0.339  13.030  17.189  0.00  0.00    +0.000 HD
ENDBRANCH   9  21
BRANCH  10  23
ATOM     23  O   UNL     1       2.249  10.653  17.249  0.00  0.00    +0.000 OA
ATOM     24  H   UNL     1       1.742  11.165  16.588  0.00  0.00    +0.000 HD
ENDBRANCH  10  23
BRANCH   1  25
ATOM     25  C   UNL     1       1.254   8.904  22.710  0.00  0.00    +0.000 C 
BRANCH  25  26
ATOM     26  N   UNL     1       0.471   9.577  23.755  0.00  0.00    +0.000 NA
ATOM     27  H   UNL     1       0.633   9.119  24.650  0.00  0.00    +0.000 HD
ATOM     28  H   UNL     1      -0.521   9.458  23.535  0.00  0.00    +0.000 HD
ENDBRANCH  25  26
ENDBRANCH   1  25
TORSDOF 5
ENDMDL
MODEL 3
REMARK VINA RESULT:      -7.8      0.030      1.540
REMARK  Name = 
REMARK  5 active torsions:
REMARK  status: ('A' for Active; 'I' for Inactive)
REMARK    1  A    between atoms: N_1  and  C_2
REMARK    2  A    between atoms: C_2  and  C_3
REMARK    3  A    between atoms: C_5  and  C_6
REMARK    4  A    between atoms: C_21  and  O_22
REMARK    5  A    between atoms: C_23  and  O_24
REMARK                            x       y       z     vdW  Elec       q    Type
REMARK                         _______ _______ _______ _____ _____    ______ ____
ROOT
ATOM      1  C   UNL     1       0.453   8.682  21.386  0.00  0.00    +0.000 C 
ATOM      2  O   UNL     1       0.756   7.409  20.784  0.00  0.00    +0.000 OA
ATOM      3  C   UNL     1       2.003   7.363  20.075  0.00  0.00    +0.000 C 
ATOM      4  C   UNL     1       1.971   8.353  18.896  0.00  0.00    +0.000 C 
ATOM      5  C   UNL     1       1.406   9.695  19.264  0.00  0.00    +0.000 A 
ATOM      6  C   UNL     1       0.632   9.841  20.426  0.00  0.00    +0.000 A 
ATOM      7  C   UNL     1       0.023  11.084  20.696  0.00  0.00    +0.000 A 
ATOM      8  C   UNL     1       0.175  12.166  19.826  0.00  0.00    +0.000 A 
ATOM      9  C   UNL     1       0.936  12.006  18.678  0.00  0.00    +0.000 A 
ATOM     10  C   UNL     1       1.540  10.782  18.396  0.00  0.00    +0.000 A 
ENDROOT
BRANCH   3  11
ATOM     11  C   UNL     1       2.261   5.885  19.630  0.00  0.00    +0.000 C 
ATOM     12  C   UNL     1       1.824   5.644  18.156  0.00  0.00    +0.000 C 
ATOM     13  C   UNL     1       2.087   4.193  17.729  0.00  0.00    +0.000 C 
ATOM     14  C   UNL     1       3.587   3.892  17.880  0.00  0.00    +0.000 C 
ATOM     15  C   UNL     1       4.011   4.056  19.348  0.00  0.00    +0.000 C 
ATOM     16  C   UNL     1       3.759   5.509  19.783  0.00  0.00    +0.000 C 
ATOM     17  C   UNL     1       3.185   3.109  20.230  0.00  0.00    +0.000 C 
ATOM     18  C   UNL     1       1.691   3.437  20.093  0.00  0.00    +0.000 C 
ATOM     19  C   UNL     1       1.442   4.899  20.517  0.00  0.00    +0.000 C 
ATOM     20  C   UNL     1       1.273   3.251  18.626  0.00  0.00    +0.000 C 
ENDBRANCH   3  11
BRANCH   9  21
ATOM     21  O   UNL     1       1.112  13.020  17.777  0.00  0.00    +0.000 OA
ATOM     22  H   UNL     1       0.240  13.253  17.412  0.00  0.00    +0.000 HD
ENDBRANCH   9  21
BRANCH  10  23
ATOM     23  O   UNL     1       2.258  10.649  17.239  0.00  0.00    +0.000 OA
ATOM     24  H   UNL     1       2.863   9.900  17.412  0.00  0.00    +0.000 HD
ENDBRANCH  10  23
BRANCH   1  25
ATOM     25  C   UNL     1       1.256   8.898  22.697  0.00  0.00    +0.000 C 
BRANCH  25  26
ATOM     26  N   UNL     1       0.472   9.576  23.739  0.00  0.00    +0.000 NA
ATOM     27  H   UNL     1      -0.521   9.440  23.559  0.00  0.00    +0.000 HD
ATOM     28  H   UNL     1       0.653  10.580  23.670  0.00  0.00    +0.000 HD
ENDBRANCH  25  26
ENDBRANCH   1  25
TORSDOF 5
ENDMDL
MODEL 4
REMARK VINA RESULT:      -7.2      4.837      7.151
REMARK  Name = 
REMARK  5 active torsions:
REMARK  status: ('A' for Active; 'I' for Inactive)
REMARK    1  A    between atoms: N_1  and  C_2
REMARK    2  A    between atoms: C_2  and  C_3
REMARK    3  A    between atoms: C_5  and  C_6
REMARK    4  A    between atoms: C_21  and  O_22
REMARK    5  A    between atoms: C_23  and  O_24
REMARK                            x       y       z     vdW  Elec       q    Type
REMARK                         _______ _______ _______ _____ _____    ______ ____
ROOT
ATOM      1  C   UNL     1       6.532   5.680  17.494  0.00  0.00    +0.000 C 
ATOM      2  O   UNL     1       5.254   5.317  18.049  0.00  0.00    +0.000 OA
ATOM      3  C   UNL     1       4.865   3.955  17.818  0.00  0.00    +0.000 C 
ATOM      4  C   UNL     1       4.717   3.703  16.307  0.00  0.00    +0.000 C 
ATOM      5  C   UNL     1       5.849   4.272  15.498  0.00  0.00    +0.000 A 
ATOM      6  C   UNL     1       6.682   5.258  16.046  0.00  0.00    +0.000 A 
ATOM      7  C   UNL     1       7.671   5.854  15.235  0.00  0.00    +0.000 A 
ATOM      8  C   UNL     1       7.827   5.481  13.897  0.00  0.00    +0.000 A 
ATOM      9  C   UNL     1       6.991   4.510  13.366  0.00  0.00    +0.000 A 
ATOM     10  C   UNL     1       6.008   3.916  14.156  0.00  0.00    +0.000 A 
ENDROOT
BRANCH   3  11
ATOM     11  C   UNL     1       3.549   3.678  18.619  0.00  0.00    +0.000 C 
ATOM     12  C   UNL     1       2.290   4.153  17.838  0.00  0.00    +0.000 C 
ATOM     13  C   UNL     1       1.006   3.870  18.630  0.00  0.00    +0.000 C 
ATOM     14  C   UNL     1       0.907   2.360  18.899  0.00  0.00    +0.000 C 
ATOM     15  C   UNL     1       2.111   1.895  19.735  0.00  0.00    +0.000 C 
ATOM     16  C   UNL     1       3.403   2.167  18.945  0.00  0.00    +0.000 C 
ATOM     17  C   UNL     1       2.149   2.673  21.058  0.00  0.00    +0.000 C 
ATOM     18  C   UNL     1       2.275   4.178  20.777  0.00  0.00    +0.000 C 
ATOM     19  C   UNL     1       3.564   4.447  19.974  0.00  0.00    +0.000 C 
ATOM     20  C   UNL     1       1.057   4.635  19.959  0.00  0.00    +0.000 C 
ENDBRANCH   3  11
BRANCH   9  21
ATOM     21  O   UNL     1       7.081   4.110  12.062  0.00  0.00    +0.000 OA
ATOM     22  H   UNL     1       7.901   3.596  11.960  0.00  0.00    +0.000 HD
ENDBRANCH   9  21
BRANCH  10  23
ATOM     23  O   UNL     1       5.180   2.984  13.592  0.00  0.00    +0.000 OA
ATOM     24  H   UNL     1       4.301   3.175  13.975  0.00  0.00    +0.000 HD
ENDBRANCH  10  23
BRANCH   1  25
ATOM     25  C   UNL     1       7.704   5.152  18.367  0.00  0.00    +0.000 C 
BRANCH  25  26
ATOM     26  N   UNL     1       7.585   5.546  19.777  0.00  0.00    +0.000 NA
ATOM     27  H   UNL     1       7.818   4.753  20.372  0.00  0.00    +0.000 HD
ATOM     28  H   UNL     1       6.607   5.779  19.961  0.00  0.00    +0.000 HD
ENDBRANCH  25  26
ENDBRANCH   1  25
TORSDOF 5
ENDMDL
MODEL 5
REMARK VINA RESULT:      -7.2      4.827      7.069
REMARK  Name = 
REMARK  5 active torsions:
REMARK  status: ('A' for Active; 'I' for Inactive)
REMARK    1  A    between atoms: N_1  and  C_2
REMARK    2  A    between atoms: C_2  and  C_3
REMARK    3  A    between atoms: C_5  and  C_6
REMARK    4  A    between atoms: C_21  and  O_22
REMARK    5  A    between atoms: C_23  and  O_24
REMARK                            x       y       z     vdW  Elec       q    Type
REMARK                         _______ _______ _______ _____ _____    ______ ____
ROOT
ATOM      1  C   UNL     1       6.564   5.701  17.497  0.00  0.00    +0.000 C 
ATOM      2  O   UNL     1       5.288   5.336  18.056  0.00  0.00    +0.000 OA
ATOM      3  C   UNL     1       4.901   3.974  17.827  0.00  0.00    +0.000 C 
ATOM      4  C   UNL     1       4.750   3.721  16.315  0.00  0.00    +0.000 C 
ATOM      5  C   UNL     1       5.878   4.290  15.503  0.00  0.00    +0.000 A 
ATOM      6  C   UNL     1       6.712   5.279  16.048  0.00  0.00    +0.000 A 
ATOM      7  C   UNL     1       7.697   5.876  15.234  0.00  0.00    +0.000 A 
ATOM      8  C   UNL     1       7.850   5.502  13.897  0.00  0.00    +0.000 A 
ATOM      9  C   UNL     1       7.015   4.529  13.369  0.00  0.00    +0.000 A 
ATOM     10  C   UNL     1       6.035   3.934  14.162  0.00  0.00    +0.000 A 
ENDROOT
BRANCH   3  11
ATOM     11  C   UNL     1       3.587   3.695  18.631  0.00  0.00    +0.000 C 
ATOM     12  C   UNL     1       3.395   2.176  18.909  0.00  0.00    +0.000 C 
ATOM     13  C   UNL     1       2.107   1.916  19.703  0.00  0.00    +0.000 C 
ATOM     14  C   UNL     1       2.178   2.681  21.034  0.00  0.00    +0.000 C 
ATOM     15  C   UNL     1       2.294   4.191  20.769  0.00  0.00    +0.000 C 
ATOM     16  C   UNL     1       3.586   4.462  19.981  0.00  0.00    +0.000 C 
ATOM     17  C   UNL     1       1.086   4.661  19.946  0.00  0.00    +0.000 C 
ATOM     18  C   UNL     1       1.041   3.910  18.606  0.00  0.00    +0.000 C 
ATOM     19  C   UNL     1       2.343   4.174  17.823  0.00  0.00    +0.000 C 
ATOM     20  C   UNL     1       0.906   2.405  18.884  0.00  0.00    +0.000 C 
ENDBRANCH   3  11
BRANCH   9  21
ATOM     21  O   UNL     1       7.102   4.128  12.064  0.00  0.00    +0.000 OA
ATOM     22  H   UNL     1       6.247   4.309  11.636  0.00  0.00    +0.000 HD
ENDBRANCH   9  21
BRANCH  10  23
ATOM     23  O   UNL     1       5.207   3.000  13.600  0.00  0.00    +0.000 OA
ATOM     24  H   UNL     1       4.657   3.508  12.971  0.00  0.00    +0.000 HD
ENDBRANCH  10  23
BRANCH   1  25
ATOM     25  C   UNL     1       7.739   5.176  18.367  0.00  0.00    +0.000 C 
BRANCH  25  26
ATOM     26  N   UNL     1       7.602   5.534  19.784  0.00  0.00    +0.000 NA
ATOM     27  H   UNL     1       8.254   4.984  20.339  0.00  0.00    +0.000 HD
ATOM     28  H   UNL     1       6.660   5.275  20.088  0.00  0.00    +0.000 HD
ENDBRANCH  25  26
ENDBRANCH   1  25
TORSDOF 5
ENDMDL
MODEL 6
REMARK VINA RESULT:      -7.2      4.837      7.108
REMARK  Name = 
REMARK  5 active torsions:
REMARK  status: ('A' for Active; 'I' for Inactive)
REMARK    1  A    between atoms: N_1  and  C_2
REMARK    2  A    between atoms: C_2  and  C_3
REMARK    3  A    between atoms: C_5  and  C_6
REMARK    4  A    between atoms: C_21  and  O_22
REMARK    5  A    between atoms: C_23  and  O_24
REMARK                            x       y       z     vdW  Elec       q    Type
REMARK                         _______ _______ _______ _____ _____    ______ ____
ROOT
ATOM      1  C   UNL     1       6.536   5.685  17.506  0.00  0.00    +0.000 C 
ATOM      2  O   UNL     1       5.259   5.326  18.066  0.00  0.00    +0.000 OA
ATOM      3  C   UNL     1       4.866   3.966  17.838  0.00  0.00    +0.000 C 
ATOM      4  C   UNL     1       4.714   3.711  16.327  0.00  0.00    +0.000 C 
ATOM      5  C   UNL     1       5.844   4.275  15.514  0.00  0.00    +0.000 A 
ATOM      6  C   UNL     1       6.682   5.261  16.058  0.00  0.00    +0.000 A 
ATOM      7  C   UNL     1       7.669   5.853  15.243  0.00  0.00    +0.000 A 
ATOM      8  C   UNL     1       7.821   5.477  13.906  0.00  0.00    +0.000 A 
ATOM      9  C   UNL     1       6.982   4.508  13.379  0.00  0.00    +0.000 A 
ATOM     10  C   UNL     1       6.000   3.917  14.173  0.00  0.00    +0.000 A 
ENDROOT
BRANCH   3  11
ATOM     11  C   UNL     1       3.551   3.693  18.642  0.00  0.00    +0.000 C 
ATOM     12  C   UNL     1       3.551   4.430  20.012  0.00  0.00    +0.000 C 
ATOM     13  C   UNL     1       2.255   4.160  20.789  0.00  0.00    +0.000 C 
ATOM     14  C   UNL     1       1.060   4.634  19.946  0.00  0.00    +0.000 C 
ATOM     15  C   UNL     1       1.009   3.857  18.621  0.00  0.00    +0.000 C 
ATOM     16  C   UNL     1       2.301   4.129  17.831  0.00  0.00    +0.000 C 
ATOM     17  C   UNL     1       0.895   2.354  18.911  0.00  0.00    +0.000 C 
ATOM     18  C   UNL     1       2.107   1.886  19.729  0.00  0.00    +0.000 C 
ATOM     19  C   UNL     1       3.403   2.170  18.942  0.00  0.00    +0.000 C 
ATOM     20  C   UNL     1       2.137   2.654  21.059  0.00  0.00    +0.000 C 
ENDBRANCH   3  11
BRANCH   9  21
ATOM     21  O   UNL     1       7.067   4.105  12.075  0.00  0.00    +0.000 OA
ATOM     22  H   UNL     1       6.304   4.473  11.596  0.00  0.00    +0.000 HD
ENDBRANCH   9  21
BRANCH  10  23
ATOM     23  O   UNL     1       5.168   2.986  13.612  0.00  0.00    +0.000 OA
ATOM     24  H   UNL     1       5.245   3.138  12.649  0.00  0.00    +0.000 HD
ENDBRANCH  10  23
BRANCH   1  25
ATOM     25  C   UNL     1       7.709   5.156  18.377  0.00  0.00    +0.000 C 
BRANCH  25  26
ATOM     26  N   UNL     1       7.595   5.553  19.786  0.00  0.00    +0.000 NA
ATOM     27  H   UNL     1       7.126   6.455  19.849  0.00  0.00    +0.000 HD
ATOM     28  H   UNL     1       8.539   5.681  20.158  0.00  0.00    +0.000 HD
ENDBRANCH  25  26
ENDBRANCH   1  25
TORSDOF 5
ENDMDL
MODEL 7
REMARK VINA RESULT:      -6.6      2.144      3.049
REMARK  Name = 
REMARK  5 active torsions:
REMARK  status: ('A' for Active; 'I' for Inactive)
REMARK    1  A    between atoms: N_1  and  C_2
REMARK    2  A    between atoms: C_2  and  C_3
REMARK    3  A    between atoms: C_5  and  C_6
REMARK    4  A    between atoms: C_21  and  O_22
REMARK    5  A    between atoms: C_23  and  O_24
REMARK                            x       y       z     vdW  Elec       q    Type
REMARK                         _______ _______ _______ _____ _____    ______ ____
ROOT
ATOM      1  C   UNL     1       2.055   8.959  18.969  0.00  0.00    +0.000 C 
ATOM      2  O   UNL     1       2.424   7.576  19.134  0.00  0.00    +0.000 OA
ATOM      3  C   UNL     1       1.343   6.708  19.504  0.00  0.00    +0.000 C 
ATOM      4  C   UNL     1       0.782   7.126  20.875  0.00  0.00    +0.000 C 
ATOM      5  C   UNL     1       0.586   8.610  21.008  0.00  0.00    +0.000 A 
ATOM      6  C   UNL     1       1.239   9.490  20.132  0.00  0.00    +0.000 A 
ATOM      7  C   UNL     1       1.126  10.880  20.340  0.00  0.00    +0.000 A 
ATOM      8  C   UNL     1       0.379  11.391  21.404  0.00  0.00    +0.000 A 
ATOM      9  C   UNL     1      -0.255  10.511  22.267  0.00  0.00    +0.000 A 
ATOM     10  C   UNL     1      -0.148   9.134  22.075  0.00  0.00    +0.000 A 
ENDROOT
BRANCH   3  11
ATOM     11  C   UNL     1       1.868   5.233  19.478  0.00  0.00    +0.000 C 
ATOM     12  C   UNL     1       3.381   5.155  19.830  0.00  0.00    +0.000 C 
ATOM     13  C   UNL     1       3.882   3.704  19.807  0.00  0.00    +0.000 C 
ATOM     14  C   UNL     1       3.072   2.880  20.822  0.00  0.00    +0.000 C 
ATOM     15  C   UNL     1       1.583   2.891  20.439  0.00  0.00    +0.000 C 
ATOM     16  C   UNL     1       1.070   4.341  20.467  0.00  0.00    +0.000 C 
ATOM     17  C   UNL     1       1.412   2.317  19.026  0.00  0.00    +0.000 C 
ATOM     18  C   UNL     1       2.203   3.163  18.017  0.00  0.00    +0.000 C 
ATOM     19  C   UNL     1       1.696   4.619  18.056  0.00  0.00    +0.000 C 
ATOM     20  C   UNL     1       3.691   3.129  18.398  0.00  0.00    +0.000 C 
ENDBRANCH   3  11
BRANCH   9  21
ATOM     21  O   UNL     1      -0.989  10.944  23.336  0.00  0.00    +0.000 OA
ATOM     22  H   UNL     1      -1.878  10.555  23.269  0.00  0.00    +0.000 HD
ENDBRANCH   9  21
BRANCH  10  23
ATOM     23  O   UNL     1      -0.761   8.292  22.963  0.00  0.00    +0.000 OA
ATOM     24  H   UNL     1      -1.134   7.580  22.407  0.00  0.00    +0.000 HD
ENDBRANCH  10  23
BRANCH   1  25
ATOM     25  C   UNL     1       1.339   9.201  17.612  0.00  0.00    +0.000 C 
BRANCH  25  26
ATOM     26  N   UNL     1       0.036   9.861  17.766  0.00  0.00    +0.000 NA
ATOM     27  H   UNL     1       0.122  10.844  17.516  0.00  0.00    +0.000 HD
ATOM     28  H   UNL     1      -0.224   9.826  18.754  0.00  0.00    +0.000 HD
ENDBRANCH  25  26
ENDBRANCH   1  25
TORSDOF 5
ENDMDL
MODEL 8
REMARK VINA RESULT:      -6.5      2.147      3.403
REMARK  Name = 
REMARK  5 active torsions:
REMARK  status: ('A' for Active; 'I' for Inactive)
REMARK    1  A    between atoms: N_1  and  C_2
REMARK    2  A    between atoms: C_2  and  C_3
REMARK    3  A    between atoms: C_5  and  C_6
REMARK    4  A    between atoms: C_21  and  O_22
REMARK    5  A    between atoms: C_23  and  O_24
REMARK                            x       y       z     vdW  Elec       q    Type
REMARK                         _______ _______ _______ _____ _____    ______ ____
ROOT
ATOM      1  C   UNL     1       2.054   8.954  18.965  0.00  0.00    +0.000 C 
ATOM      2  O   UNL     1       2.421   7.570  19.121  0.00  0.00    +0.000 OA
ATOM      3  C   UNL     1       1.340   6.701  19.484  0.00  0.00    +0.000 C 
ATOM      4  C   UNL     1       0.779   7.111  20.858  0.00  0.00    +0.000 C 
ATOM      5  C   UNL     1       0.584   8.594  21.000  0.00  0.00    +0.000 A 
ATOM      6  C   UNL     1       1.239   9.479  20.130  0.00  0.00    +0.000 A 
ATOM      7  C   UNL     1       1.128  10.868  20.347  0.00  0.00    +0.000 A 
ATOM      8  C   UNL     1       0.381  11.374  21.415  0.00  0.00    +0.000 A 
ATOM      9  C   UNL     1      -0.255  10.488  22.272  0.00  0.00    +0.000 A 
ATOM     10  C   UNL     1      -0.149   9.113  22.070  0.00  0.00    +0.000 A 
ENDROOT
BRANCH   3  11
ATOM     11  C   UNL     1       1.862   5.226  19.449  0.00  0.00    +0.000 C 
ATOM     12  C   UNL     1       1.691   4.588  18.041  0.00  0.00    +0.000 C 
ATOM     13  C   UNL     1       2.212   3.145  18.018  0.00  0.00    +0.000 C 
ATOM     14  C   UNL     1       3.699   3.144  18.408  0.00  0.00    +0.000 C 
ATOM     15  C   UNL     1       3.869   3.704  19.830  0.00  0.00    +0.000 C 
ATOM     16  C   UNL     1       3.358   5.154  19.861  0.00  0.00    +0.000 C 
ATOM     17  C   UNL     1       3.057   2.855  20.817  0.00  0.00    +0.000 C 
ATOM     18  C   UNL     1       1.570   2.886  20.433  0.00  0.00    +0.000 C 
ATOM     19  C   UNL     1       1.061   4.342  20.453  0.00  0.00    +0.000 C 
ATOM     20  C   UNL     1       1.409   2.306  19.020  0.00  0.00    +0.000 C 
ENDBRANCH   3  11
BRANCH   9  21
ATOM     21  O   UNL     1      -0.988  10.916  23.344  0.00  0.00    +0.000 OA
ATOM     22  H   UNL     1      -1.899  11.077  23.040  0.00  0.00    +0.000 HD
ENDBRANCH   9  21
BRANCH  10  23
ATOM     23  O   UNL     1      -0.764   8.266  22.953  0.00  0.00    +0.000 OA
ATOM     24  H   UNL     1      -0.043   7.958  23.539  0.00  0.00    +0.000 HD
ENDBRANCH  10  23
BRANCH   1  25
ATOM     25  C   UNL     1       1.340   9.206  17.609  0.00  0.00    +0.000 C 
BRANCH  25  26
ATOM     26  N   UNL     1       0.029   9.848  17.768  0.00  0.00    +0.000 NA
ATOM     27  H   UNL     1       0.141  10.860  17.748  0.00  0.00    +0.000 HD
ATOM     28  H   UNL     1      -0.334   9.607  18.693  0.00  0.00    +0.000 HD
ENDBRANCH  25  26
ENDBRANCH   1  25
TORSDOF 5
ENDMDL
MODEL 9
REMARK VINA RESULT:      -6.5      2.142      3.413
REMARK  Name = 
REMARK  5 active torsions:
REMARK  status: ('A' for Active; 'I' for Inactive)
REMARK    1  A    between atoms: N_1  and  C_2
REMARK    2  A    between atoms: C_2  and  C_3
REMARK    3  A    between atoms: C_5  and  C_6
REMARK    4  A    between atoms: C_21  and  O_22
REMARK    5  A    between atoms: C_23  and  O_24
REMARK                            x       y       z     vdW  Elec       q    Type
REMARK                         _______ _______ _______ _____ _____    ______ ____
ROOT
ATOM      1  C   UNL     1       2.032   8.965  18.975  0.00  0.00    +0.000 C 
ATOM      2  O   UNL     1       2.396   7.581  19.140  0.00  0.00    +0.000 OA
ATOM      3  C   UNL     1       1.313   6.717  19.514  0.00  0.00    +0.000 C 
ATOM      4  C   UNL     1       0.758   7.139  20.887  0.00  0.00    +0.000 C 
ATOM      5  C   UNL     1       0.568   8.624  21.019  0.00  0.00    +0.000 A 
ATOM      6  C   UNL     1       1.222   9.500  20.140  0.00  0.00    +0.000 A 
ATOM      7  C   UNL     1       1.116  10.891  20.347  0.00  0.00    +0.000 A 
ATOM      8  C   UNL     1       0.375  11.407  21.413  0.00  0.00    +0.000 A 
ATOM      9  C   UNL     1      -0.261  10.529  22.279  0.00  0.00    +0.000 A 
ATOM     10  C   UNL     1      -0.160   9.152  22.088  0.00  0.00    +0.000 A 
ENDROOT
BRANCH   3  11
ATOM     11  C   UNL     1       1.831   5.241  19.488  0.00  0.00    +0.000 C 
ATOM     12  C   UNL     1       1.077   4.348  20.515  0.00  0.00    +0.000 C 
ATOM     13  C   UNL     1       1.590   2.902  20.476  0.00  0.00    +0.000 C 
ATOM     14  C   UNL     1       1.391   2.340  19.060  0.00  0.00    +0.000 C 
ATOM     15  C   UNL     1       2.193   3.172  18.046  0.00  0.00    +0.000 C 
ATOM     16  C   UNL     1       1.681   4.622  18.072  0.00  0.00    +0.000 C 
ATOM     17  C   UNL     1       3.680   3.150  18.427  0.00  0.00    +0.000 C 
ATOM     18  C   UNL     1       3.870   3.739  19.832  0.00  0.00    +0.000 C 
ATOM     19  C   UNL     1       3.344   5.189  19.860  0.00  0.00    +0.000 C 
ATOM     20  C   UNL     1       3.080   2.888  20.839  0.00  0.00    +0.000 C 
ENDBRANCH   3  11
BRANCH   9  21
ATOM     21  O   UNL     1      -0.989  10.967  23.350  0.00  0.00    +0.000 OA
ATOM     22  H   UNL     1      -0.394  11.016  24.119  0.00  0.00    +0.000 HD
ENDBRANCH   9  21
BRANCH  10  23
ATOM     23  O   UNL     1      -0.773   8.314  22.979  0.00  0.00    +0.000 OA
ATOM     24  H   UNL     1      -0.438   7.424  22.748  0.00  0.00    +0.000 HD
ENDBRANCH  10  23
BRANCH   1  25
ATOM     25  C   UNL     1       1.313   9.209  17.621  0.00  0.00    +0.000 C 
BRANCH  25  26
ATOM     26  N   UNL     1       0.043   9.930  17.772  0.00  0.00    +0.000 NA
ATOM     27  H   UNL     1       0.176  10.727  18.392  0.00  0.00    +0.000 HD
ATOM     28  H   UNL     1      -0.625   9.306  18.229  0.00  0.00    +0.000 HD
ENDBRANCH  25  26
ENDBRANCH   1  25
TORSDOF 5
ENDMDL
