MODEL 1
REMARK VINA RESULT:      -7.2      0.000      0.000
REMARK  Name = 
REMARK  7 active torsions:
REMARK  status: ('A' for Active; 'I' for Inactive)
REMARK    1  A    between atoms: C_1  and  S_2
REMARK    2  A    between atoms: S_2  and  N_5
REMARK    3  A    between atoms: N_5  and  C_6
REMARK    4  A    between atoms: N_5  and  C_16
REMARK    5  A    between atoms: C_6  and  C_7
REMARK    6  A    between atoms: N_9  and  C_10
REMARK    7  A    between atoms: C_16  and  C_17
REMARK                            x       y       z     vdW  Elec       q    Type
REMARK                         _______ _______ _______ _____ _____    ______ ____
ROOT
ATOM      1  N   UNL     1       6.302   5.676  16.861  0.00  0.00    +0.000 NA
ENDROOT
BRANCH   1   3
ATOM      2  C   UNL     1       7.929   6.284  18.963  0.00  0.00    +0.000 C 
ATOM      3  S   UNL     1       7.210   4.916  18.090  0.00  0.00    +0.000 S 
ATOM      4  O   UNL     1       8.277   4.165  17.471  0.00  0.00    +0.000 OA
ATOM      5  O   UNL     1       6.285   4.304  19.026  0.00  0.00    +0.000 OA
ENDBRANCH   1   3
BRANCH   1   6
ATOM      6  C   UNL     1       5.581   6.918  17.295  0.00  0.00    +0.000 C 
BRANCH   6   7
ATOM      7  C   UNL     1       4.104   6.691  17.614  0.00  0.00    +0.000 C 
ATOM      8  O   UNL     1       3.292   7.609  17.673  0.00  0.00    +0.000 OA
ATOM      9  N   UNL     1       3.757   5.368  17.808  0.00  0.00    +0.000 N 
ATOM     10  H   UNL     1       4.502   4.683  17.817  0.00  0.00    +0.000 HD
BRANCH   9  11
ATOM     11  C   UNL     1       2.377   4.933  18.017  0.00  0.00    +0.000 C 
ATOM     12  C   UNL     1       2.140   3.575  17.343  0.00  0.00    +0.000 C 
ATOM     13  C   UNL     1       2.845   2.431  18.072  0.00  0.00    +0.000 C 
ATOM     14  C   UNL     1       2.467   2.388  19.548  0.00  0.00    +0.000 C 
ATOM     15  C   UNL     1       2.700   3.728  20.239  0.00  0.00    +0.000 C 
ATOM     16  C   UNL     1       2.006   4.876  19.505  0.00  0.00    +0.000 C 
ENDBRANCH   9  11
ENDBRANCH   6   7
ENDBRANCH   1   6
BRANCH   1  17
ATOM     17  C   UNL     1       7.047   5.833  15.566  0.00  0.00    +0.000 C 
BRANCH  17  18
ATOM     18  C   UNL     1       6.613   4.944  14.420  0.00  0.00    +0.000 A 
ATOM     19  C   UNL     1       5.386   4.265  14.474  0.00  0.00    +0.000 A 
ATOM     20  C   UNL     1       4.986   3.417  13.439  0.00  0.00    +0.000 A 
ATOM     21  C   UNL     1       5.804   3.257  12.327  0.00  0.00    +0.000 A 
ATOM     22 CL   UNL     1       5.307   2.226  11.042  0.00  0.00    +0.000 Cl
ATOM     23  C   UNL     1       7.018   3.935  12.243  0.00  0.00    +0.000 A 
ATOM     24  C   UNL     1       7.421   4.774  13.286  0.00  0.00    +0.000 A 
ENDBRANCH  17  18
ENDBRANCH   1  17
TORSDOF 6
ENDMDL
MODEL 2
REMARK VINA RESULT:      -7.1      3.070      6.448
REMARK  Name = 
REMARK  7 active torsions:
REMARK  status: ('A' for Active; 'I' for Inactive)
REMARK    1  A    between atoms: C_1  and  S_2
REMARK    2  A    between atoms: S_2  and  N_5
REMARK    3  A    between atoms: N_5  and  C_6
REMARK    4  A    between atoms: N_5  and  C_16
REMARK    5  A    between atoms: C_6  and  C_7
REMARK    6  A    between atoms: N_9  and  C_10
REMARK    7  A    between atoms: C_16  and  C_17
REMARK                            x       y       z     vdW  Elec       q    Type
REMARK                         _______ _______ _______ _____ _____    ______ ____
ROOT
ATOM      1  N   UNL     1       5.848   4.794  17.361  0.00  0.00    +0.000 NA
ENDROOT
BRANCH   1   3
ATOM      2  C   UNL     1       7.681   6.741  17.891  0.00  0.00    +0.000 C 
ATOM      3  S   UNL     1       7.255   5.065  18.289  0.00  0.00    +0.000 S 
ATOM      4  O   UNL     1       8.303   4.203  17.791  0.00  0.00    +0.000 OA
ATOM      5  O   UNL     1       6.880   5.083  19.690  0.00  0.00    +0.000 OA
ENDBRANCH   1   3
BRANCH   1   6
ATOM      6  C   UNL     1       6.019   3.814  16.239  0.00  0.00    +0.000 C 
BRANCH   6   7
ATOM      7  C   UNL     1       5.871   4.437  14.852  0.00  0.00    +0.000 C 
ATOM      8  O   UNL     1       5.850   5.651  14.671  0.00  0.00    +0.000 OA
ATOM      9  N   UNL     1       5.784   3.524  13.820  0.00  0.00    +0.000 N 
ATOM     10  H   UNL     1       5.733   2.543  14.063  0.00  0.00    +0.000 HD
BRANCH   9  11
ATOM     11  C   UNL     1       5.746   3.919  12.413  0.00  0.00    +0.000 C 
ATOM     12  C   UNL     1       7.165   3.943  11.829  0.00  0.00    +0.000 C 
ATOM     13  C   UNL     1       7.746   2.541  11.649  0.00  0.00    +0.000 C 
ATOM     14  C   UNL     1       6.824   1.652  10.821  0.00  0.00    +0.000 C 
ATOM     15  C   UNL     1       5.408   1.610  11.389  0.00  0.00    +0.000 C 
ATOM     16  C   UNL     1       4.829   3.012  11.581  0.00  0.00    +0.000 C 
ENDBRANCH   9  11
ENDBRANCH   6   7
ENDBRANCH   1   6
BRANCH   1  17
ATOM     17  C   UNL     1       4.615   4.556  18.186  0.00  0.00    +0.000 C 
BRANCH  17  18
ATOM     18  C   UNL     1       3.752   5.765  18.483  0.00  0.00    +0.000 A 
ATOM     19  C   UNL     1       2.988   5.820  19.659  0.00  0.00    +0.000 A 
ATOM     20  C   UNL     1       2.164   6.914  19.932  0.00  0.00    +0.000 A 
ATOM     21  C   UNL     1       2.114   7.976  19.038  0.00  0.00    +0.000 A 
ATOM     22 CL   UNL     1       1.113   9.334  19.379  0.00  0.00    +0.000 Cl
ATOM     23  C   UNL     1       2.878   7.952  17.873  0.00  0.00    +0.000 A 
ATOM     24  C   UNL     1       3.693   6.850  17.597  0.00  0.00    +0.000 A 
ENDBRANCH  17  18
ENDBRANCH   1  17
TORSDOF 6
ENDMDL
MODEL 3
REMARK VINA RESULT:      -7.1      0.386      1.077
REMARK  Name = 
REMARK  7 active torsions:
REMARK  status: ('A' for Active; 'I' for Inactive)
REMARK    1  A    between atoms: C_1  and  S_2
REMARK    2  A    between atoms: S_2  and  N_5
REMARK    3  A    between atoms: N_5  and  C_6
REMARK    4  A    between atoms: N_5  and  C_16
REMARK    5  A    between atoms: C_6  and  C_7
REMARK    6  A    between atoms: N_9  and  C_10
REMARK    7  A    between atoms: C_16  and  C_17
REMARK                            x       y       z     vdW  Elec       q    Type
REMARK                         _______ _______ _______ _____ _____    ______ ____
ROOT
ATOM      1  N   UNL     1       6.309   5.652  16.986  0.00  0.00    +0.000 NA
ENDROOT
BRANCH   1   3
ATOM      2  C   UNL     1       7.909   6.183  19.130  0.00  0.00    +0.000 C 
ATOM      3  S   UNL     1       7.192   4.848  18.205  0.00  0.00    +0.000 S 
ATOM      4  O   UNL     1       8.263   4.106  17.580  0.00  0.00    +0.000 OA
ATOM      5  O   UNL     1       6.248   4.215  19.108  0.00  0.00    +0.000 OA
ENDBRANCH   1   3
BRANCH   1   6
ATOM      6  C   UNL     1       5.638   6.917  17.433  0.00  0.00    +0.000 C 
BRANCH   6   7
ATOM      7  C   UNL     1       4.148   6.749  17.731  0.00  0.00    +0.000 C 
ATOM      8  O   UNL     1       3.313   7.592  17.417  0.00  0.00    +0.000 OA
ATOM      9  N   UNL     1       3.820   5.565  18.360  0.00  0.00    +0.000 N 
ATOM     10  H   UNL     1       4.578   4.960  18.651  0.00  0.00    +0.000 HD
BRANCH   9  11
ATOM     11  C   UNL     1       2.440   5.169  18.634  0.00  0.00    +0.000 C 
ATOM     12  C   UNL     1       1.924   4.239  17.527  0.00  0.00    +0.000 C 
ATOM     13  C   UNL     1       2.567   2.853  17.583  0.00  0.00    +0.000 C 
ATOM     14  C   UNL     1       2.407   2.215  18.959  0.00  0.00    +0.000 C 
ATOM     15  C   UNL     1       2.918   3.123  20.074  0.00  0.00    +0.000 C 
ATOM     16  C   UNL     1       2.286   4.513  20.012  0.00  0.00    +0.000 C 
ENDBRANCH   9  11
ENDBRANCH   6   7
ENDBRANCH   1   6
BRANCH   1  17
ATOM     17  C   UNL     1       7.055   5.792  15.689  0.00  0.00    +0.000 C 
BRANCH  17  18
ATOM     18  C   UNL     1       6.595   4.915  14.543  0.00  0.00    +0.000 A 
ATOM     19  C   UNL     1       7.392   4.770  13.397  0.00  0.00    +0.000 A 
ATOM     20  C   UNL     1       6.967   3.990  12.320  0.00  0.00    +0.000 A 
ATOM     21  C   UNL     1       5.746   3.330  12.388  0.00  0.00    +0.000 A 
ATOM     22 CL   UNL     1       5.228   2.355  11.068  0.00  0.00    +0.000 Cl
ATOM     23  C   UNL     1       4.947   3.445  13.522  0.00  0.00    +0.000 A 
ATOM     24  C   UNL     1       5.370   4.235  14.595  0.00  0.00    +0.000 A 
ENDBRANCH  17  18
ENDBRANCH   1  17
TORSDOF 6
ENDMDL
MODEL 4
REMARK VINA RESULT:      -7.1      3.073      6.508
REMARK  Name = 
REMARK  7 active torsions:
REMARK  status: ('A' for Active; 'I' for Inactive)
REMARK    1  A    between atoms: C_1  and  S_2
REMARK    2  A    between atoms: S_2  and  N_5
REMARK    3  A    between atoms: N_5  and  C_6
REMARK    4  A    between atoms: N_5  and  C_16
REMARK    5  A    between atoms: C_6  and  C_7
REMARK    6  A    between atoms: N_9  and  C_10
REMARK    7  A    between atoms: C_16  and  C_17
REMARK                            x       y       z     vdW  Elec       q    Type
REMARK                         _______ _______ _______ _____ _____    ______ ____
ROOT
ATOM      1  N   UNL     1       5.831   4.878  17.395  0.00  0.00    +0.000 NA
ENDROOT
BRANCH   1   3
ATOM      2  C   UNL     1       7.632   6.854  17.931  0.00  0.00    +0.000 C 
ATOM      3  S   UNL     1       7.208   5.184  18.357  0.00  0.00    +0.000 S 
ATOM      4  O   UNL     1       8.277   4.319  17.913  0.00  0.00    +0.000 OA
ATOM      5  O   UNL     1       6.790   5.233  19.746  0.00  0.00    +0.000 OA
ENDBRANCH   1   3
BRANCH   1   6
ATOM      6  C   UNL     1       6.056   3.905  16.276  0.00  0.00    +0.000 C 
BRANCH   6   7
ATOM      7  C   UNL     1       5.850   4.509  14.887  0.00  0.00    +0.000 C 
ATOM      8  O   UNL     1       5.684   5.711  14.708  0.00  0.00    +0.000 OA
ATOM      9  N   UNL     1       5.888   3.594  13.854  0.00  0.00    +0.000 N 
ATOM     10  H   UNL     1       5.954   2.613  14.096  0.00  0.00    +0.000 HD
BRANCH   9  11
ATOM     11  C   UNL     1       5.820   3.984  12.447  0.00  0.00    +0.000 C 
ATOM     12  C   UNL     1       7.220   3.959  11.820  0.00  0.00    +0.000 C 
ATOM     13  C   UNL     1       7.749   2.537  11.629  0.00  0.00    +0.000 C 
ATOM     14  C   UNL     1       6.773   1.677  10.834  0.00  0.00    +0.000 C 
ATOM     15  C   UNL     1       5.375   1.684  11.445  0.00  0.00    +0.000 C 
ATOM     16  C   UNL     1       4.849   3.105  11.648  0.00  0.00    +0.000 C 
ENDBRANCH   9  11
ENDBRANCH   6   7
ENDBRANCH   1   6
BRANCH   1  17
ATOM     17  C   UNL     1       4.585   4.606  18.189  0.00  0.00    +0.000 C 
BRANCH  17  18
ATOM     18  C   UNL     1       3.699   5.796  18.491  0.00  0.00    +0.000 A 
ATOM     19  C   UNL     1       3.644   6.883  17.605  0.00  0.00    +0.000 A 
ATOM     20  C   UNL     1       2.855   8.001  17.885  0.00  0.00    +0.000 A 
ATOM     21  C   UNL     1       2.095   8.032  19.048  0.00  0.00    +0.000 A 
ATOM     22 CL   UNL     1       1.109   9.401  19.388  0.00  0.00    +0.000 Cl
ATOM     23  C   UNL     1       2.120   6.957  19.933  0.00  0.00    +0.000 A 
ATOM     24  C   UNL     1       2.919   5.844  19.656  0.00  0.00    +0.000 A 
ENDBRANCH  17  18
ENDBRANCH   1  17
TORSDOF 6
ENDMDL
MODEL 5
REMARK VINA RESULT:      -6.8      3.836      6.785
REMARK  Name = 
REMARK  7 active torsions:
REMARK  status: ('A' for Active; 'I' for Inactive)
REMARK    1  A    between atoms: C_1  and  S_2
REMARK    2  A    between atoms: S_2  and  N_5
REMARK    3  A    between atoms: N_5  and  C_6
REMARK    4  A    between atoms: N_5  and  C_16
REMARK    5  A    between atoms: C_6  and  C_7
REMARK    6  A    between atoms: N_9  and  C_10
REMARK    7  A    between atoms: C_16  and  C_17
REMARK                            x       y       z     vdW  Elec       q    Type
REMARK                         _______ _______ _______ _____ _____    ______ ____
ROOT
ATOM      1  N   UNL     1       3.173   4.191  19.972  0.00  0.00    +0.000 NA
ENDROOT
BRANCH   1   3
ATOM      2  C   UNL     1       1.917   1.851  19.355  0.00  0.00    +0.000 C 
ATOM      3  S   UNL     1       1.937   3.165  20.549  0.00  0.00    +0.000 S 
ATOM      4  O   UNL     1       0.680   3.871  20.463  0.00  0.00    +0.000 OA
ATOM      5  O   UNL     1       2.391   2.557  21.786  0.00  0.00    +0.000 OA
ENDBRANCH   1   3
BRANCH   1   6
ATOM      6  C   UNL     1       4.524   3.549  19.876  0.00  0.00    +0.000 C 
BRANCH   6   7
ATOM      7  C   UNL     1       5.577   4.429  19.203  0.00  0.00    +0.000 C 
ATOM      8  O   UNL     1       6.242   5.252  19.823  0.00  0.00    +0.000 OA
ATOM      9  N   UNL     1       5.730   4.205  17.850  0.00  0.00    +0.000 N 
ATOM     10  H   UNL     1       5.088   3.561  17.404  0.00  0.00    +0.000 HD
BRANCH   9  11
ATOM     11  C   UNL     1       6.757   4.867  17.048  0.00  0.00    +0.000 C 
ATOM     12  C   UNL     1       7.061   4.045  15.788  0.00  0.00    +0.000 C 
ATOM     13  C   UNL     1       5.922   4.094  14.770  0.00  0.00    +0.000 C 
ATOM     14  C   UNL     1       5.546   5.529  14.416  0.00  0.00    +0.000 C 
ATOM     15  C   UNL     1       5.235   6.362  15.655  0.00  0.00    +0.000 C 
ATOM     16  C   UNL     1       6.368   6.305  16.680  0.00  0.00    +0.000 C 
ENDBRANCH   9  11
ENDBRANCH   6   7
ENDBRANCH   1   6
BRANCH   1  17
ATOM     17  C   UNL     1       2.789   4.974  18.748  0.00  0.00    +0.000 C 
BRANCH  17  18
ATOM     18  C   UNL     1       2.350   6.406  18.966  0.00  0.00    +0.000 A 
ATOM     19  C   UNL     1       2.330   7.314  17.895  0.00  0.00    +0.000 A 
ATOM     20  C   UNL     1       1.958   8.645  18.087  0.00  0.00    +0.000 A 
ATOM     21  C   UNL     1       1.581   9.078  19.353  0.00  0.00    +0.000 A 
ATOM     22 CL   UNL     1       1.105  10.715  19.590  0.00  0.00    +0.000 Cl
ATOM     23  C   UNL     1       1.575   8.191  20.427  0.00  0.00    +0.000 A 
ATOM     24  C   UNL     1       1.959   6.861  20.234  0.00  0.00    +0.000 A 
ENDBRANCH  17  18
ENDBRANCH   1  17
TORSDOF 6
ENDMDL
MODEL 6
REMARK VINA RESULT:      -6.8      3.987      7.010
REMARK  Name = 
REMARK  7 active torsions:
REMARK  status: ('A' for Active; 'I' for Inactive)
REMARK    1  A    between atoms: C_1  and  S_2
REMARK    2  A    between atoms: S_2  and  N_5
REMARK    3  A    between atoms: N_5  and  C_6
REMARK    4  A    between atoms: N_5  and  C_16
REMARK    5  A    between atoms: C_6  and  C_7
REMARK    6  A    between atoms: N_9  and  C_10
REMARK    7  A    between atoms: C_16  and  C_17
REMARK                            x       y       z     vdW  Elec       q    Type
REMARK                         _______ _______ _______ _____ _____    ______ ____
ROOT
ATOM      1  N   UNL     1       2.509   4.921  18.938  0.00  0.00    +0.000 NA
ENDROOT
BRANCH   1   3
ATOM      2  C   UNL     1       1.626   2.362  18.612  0.00  0.00    +0.000 C 
ATOM      3  S   UNL     1       2.079   3.820  17.706  0.00  0.00    +0.000 S 
ATOM      4  O   UNL     1       3.260   3.519  16.930  0.00  0.00    +0.000 OA
ATOM      5  O   UNL     1       0.853   4.287  17.086  0.00  0.00    +0.000 OA
ENDBRANCH   1   3
BRANCH   1   6
ATOM      6  C   UNL     1       3.325   4.328  20.047  0.00  0.00    +0.000 C 
BRANCH   6   7
ATOM      7  C   UNL     1       4.716   3.872  19.610  0.00  0.00    +0.000 C 
ATOM      8  O   UNL     1       5.120   2.726  19.783  0.00  0.00    +0.000 OA
ATOM      9  N   UNL     1       5.469   4.847  18.987  0.00  0.00    +0.000 N 
ATOM     10  H   UNL     1       5.090   5.785  18.953  0.00  0.00    +0.000 HD
BRANCH   9  11
ATOM     11  C   UNL     1       6.782   4.581  18.401  0.00  0.00    +0.000 C 
ATOM     12  C   UNL     1       6.691   4.588  16.869  0.00  0.00    +0.000 C 
ATOM     13  C   UNL     1       6.478   5.992  16.303  0.00  0.00    +0.000 C 
ATOM     14  C   UNL     1       7.542   6.966  16.798  0.00  0.00    +0.000 C 
ATOM     15  C   UNL     1       7.645   6.977  18.320  0.00  0.00    +0.000 C 
ATOM     16  C   UNL     1       7.847   5.573  18.889  0.00  0.00    +0.000 C 
ENDBRANCH   9  11
ENDBRANCH   6   7
ENDBRANCH   1   6
BRANCH   1  17
ATOM     17  C   UNL     1       3.048   6.226  18.423  0.00  0.00    +0.000 C 
BRANCH  17  18
ATOM     18  C   UNL     1       2.283   7.475  18.804  0.00  0.00    +0.000 A 
ATOM     19  C   UNL     1       2.009   8.461  17.843  0.00  0.00    +0.000 A 
ATOM     20  C   UNL     1       1.331   9.632  18.186  0.00  0.00    +0.000 A 
ATOM     21  C   UNL     1       0.901   9.820  19.494  0.00  0.00    +0.000 A 
ATOM     22 CL   UNL     1       0.051  11.255  19.917  0.00  0.00    +0.000 Cl
ATOM     23  C   UNL     1       1.146   8.847  20.461  0.00  0.00    +0.000 A 
ATOM     24  C   UNL     1       1.834   7.680  20.117  0.00  0.00    +0.000 A 
ENDBRANCH  17  18
ENDBRANCH   1  17
TORSDOF 6
ENDMDL
MODEL 7
REMARK VINA RESULT:      -6.8      3.882      6.807
REMARK  Name = 
REMARK  7 active torsions:
REMARK  status: ('A' for Active; 'I' for Inactive)
REMARK    1  A    between atoms: C_1  and  S_2
REMARK    2  A    between atoms: S_2  and  N_5
REMARK    3  A    between atoms: N_5  and  C_6
REMARK    4  A    between atoms: N_5  and  C_16
REMARK    5  A    between atoms: C_6  and  C_7
REMARK    6  A    between atoms: N_9  and  C_10
REMARK    7  A    between atoms: C_16  and  C_17
REMARK                            x       y       z     vdW  Elec       q    Type
REMARK                         _______ _______ _______ _____ _____    ______ ____
ROOT
ATOM      1  N   UNL     1       3.011   4.045  19.736  0.00  0.00    +0.000 NA
ENDROOT
BRANCH   1   3
ATOM      2  C   UNL     1       1.764   2.556  21.649  0.00  0.00    +0.000 C 
ATOM      3  S   UNL     1       1.800   2.854  19.900  0.00  0.00    +0.000 S 
ATOM      4  O   UNL     1       2.254   1.648  19.247  0.00  0.00    +0.000 OA
ATOM      5  O   UNL     1       0.519   3.460  19.584  0.00  0.00    +0.000 OA
ENDBRANCH   1   3
BRANCH   1   6
ATOM      6  C   UNL     1       4.414   3.520  19.792  0.00  0.00    +0.000 C 
BRANCH   6   7
ATOM      7  C   UNL     1       5.440   4.437  19.127  0.00  0.00    +0.000 C 
ATOM      8  O   UNL     1       5.973   5.370  19.719  0.00  0.00    +0.000 OA
ATOM      9  N   UNL     1       5.731   4.115  17.816  0.00  0.00    +0.000 N 
ATOM     10  H   UNL     1       5.192   3.378  17.381  0.00  0.00    +0.000 HD
BRANCH   9  11
ATOM     11  C   UNL     1       6.763   4.803  17.042  0.00  0.00    +0.000 C 
ATOM     12  C   UNL     1       7.055   4.036  15.745  0.00  0.00    +0.000 C 
ATOM     13  C   UNL     1       5.913   4.142  14.734  0.00  0.00    +0.000 C 
ATOM     14  C   UNL     1       5.551   5.596  14.447  0.00  0.00    +0.000 C 
ATOM     15  C   UNL     1       5.252   6.375  15.724  0.00  0.00    +0.000 C 
ATOM     16  C   UNL     1       6.388   6.260  16.741  0.00  0.00    +0.000 C 
ENDBRANCH   9  11
ENDBRANCH   6   7
ENDBRANCH   1   6
BRANCH   1  17
ATOM     17  C   UNL     1       2.770   5.002  18.603  0.00  0.00    +0.000 C 
BRANCH  17  18
ATOM     18  C   UNL     1       2.313   6.397  18.977  0.00  0.00    +0.000 A 
ATOM     19  C   UNL     1       2.330   7.428  18.025  0.00  0.00    +0.000 A 
ATOM     20  C   UNL     1       1.941   8.726  18.362  0.00  0.00    +0.000 A 
ATOM     21  C   UNL     1       1.510   9.000  19.655  0.00  0.00    +0.000 A 
ATOM     22 CL   UNL     1       1.014  10.594  20.070  0.00  0.00    +0.000 Cl
ATOM     23  C   UNL     1       1.467   7.988  20.611  0.00  0.00    +0.000 A 
ATOM     24  C   UNL     1       1.868   6.692  20.273  0.00  0.00    +0.000 A 
ENDBRANCH  17  18
ENDBRANCH   1  17
TORSDOF 6
ENDMDL
MODEL 8
REMARK VINA RESULT:      -6.7      3.577      5.286
REMARK  Name = 
REMARK  7 active torsions:
REMARK  status: ('A' for Active; 'I' for Inactive)
REMARK    1  A    between atoms: C_1  and  S_2
REMARK    2  A    between atoms: S_2  and  N_5
REMARK    3  A    between atoms: N_5  and  C_6
REMARK    4  A    between atoms: N_5  and  C_16
REMARK    5  A    between atoms: C_6  and  C_7
REMARK    6  A    between atoms: N_9  and  C_10
REMARK    7  A    between atoms: C_16  and  C_17
REMARK                            x       y       z     vdW  Elec       q    Type
REMARK                         _______ _______ _______ _____ _____    ______ ____
ROOT
ATOM      1  N   UNL     1       5.213   5.509  17.286  0.00  0.00    +0.000 NA
ENDROOT
BRANCH   1   3
ATOM      2  C   UNL     1       7.523   6.853  17.829  0.00  0.00    +0.000 C 
ATOM      3  S   UNL     1       6.899   5.255  17.374  0.00  0.00    +0.000 S 
ATOM      4  O   UNL     1       7.383   4.942  16.050  0.00  0.00    +0.000 OA
ATOM      5  O   UNL     1       7.171   4.396  18.512  0.00  0.00    +0.000 OA
ENDBRANCH   1   3
BRANCH   1   6
ATOM      6  C   UNL     1       4.489   4.578  16.360  0.00  0.00    +0.000 C 
BRANCH   6   7
ATOM      7  C   UNL     1       4.010   3.292  17.033  0.00  0.00    +0.000 C 
ATOM      8  O   UNL     1       4.719   2.297  17.135  0.00  0.00    +0.000 OA
ATOM      9  N   UNL     1       2.724   3.353  17.533  0.00  0.00    +0.000 N 
ATOM     10  H   UNL     1       2.182   4.186  17.339  0.00  0.00    +0.000 HD
BRANCH   9  11
ATOM     11  C   UNL     1       2.122   2.267  18.304  0.00  0.00    +0.000 C 
ATOM     12  C   UNL     1       3.024   1.891  19.487  0.00  0.00    +0.000 C 
ATOM     13  C   UNL     1       3.029   2.961  20.580  0.00  0.00    +0.000 C 
ATOM     14  C   UNL     1       1.616   3.295  21.046  0.00  0.00    +0.000 C 
ATOM     15  C   UNL     1       0.705   3.676  19.884  0.00  0.00    +0.000 C 
ATOM     16  C   UNL     1       0.707   2.613  18.785  0.00  0.00    +0.000 C 
ENDBRANCH   9  11
ENDBRANCH   6   7
ENDBRANCH   1   6
BRANCH   1  17
ATOM     17  C   UNL     1       4.552   5.660  18.628  0.00  0.00    +0.000 C 
BRANCH  17  18
ATOM     18  C   UNL     1       3.482   6.725  18.742  0.00  0.00    +0.000 A 
ATOM     19  C   UNL     1       3.291   7.653  17.706  0.00  0.00    +0.000 A 
ATOM     20  C   UNL     1       2.329   8.660  17.810  0.00  0.00    +0.000 A 
ATOM     21  C   UNL     1       1.534   8.736  18.947  0.00  0.00    +0.000 A 
ATOM     22 CL   UNL     1       0.337   9.965  19.071  0.00  0.00    +0.000 Cl
ATOM     23  C   UNL     1       1.694   7.815  19.980  0.00  0.00    +0.000 A 
ATOM     24  C   UNL     1       2.665   6.815  19.878  0.00  0.00    +0.000 A 
ENDBRANCH  17  18
ENDBRANCH   1  17
TORSDOF 6
ENDMDL
MODEL 9
REMARK VINA RESULT:      -6.7      3.982      6.840
REMARK  Name = 
REMARK  7 active torsions:
REMARK  status: ('A' for Active; 'I' for Inactive)
REMARK    1  A    between atoms: C_1  and  S_2
REMARK    2  A    between atoms: S_2  and  N_5
REMARK    3  A    between atoms: N_5  and  C_6
REMARK    4  A    between atoms: N_5  and  C_16
REMARK    5  A    between atoms: C_6  and  C_7
REMARK    6  A    between atoms: N_9  and  C_10
REMARK    7  A    between atoms: C_16  and  C_17
REMARK                            x       y       z     vdW  Elec       q    Type
REMARK                         _______ _______ _______ _____ _____    ______ ____
ROOT
ATOM      1  N   UNL     1       2.838   4.363  19.384  0.00  0.00    +0.000 NA
ENDROOT
BRANCH   1   3
ATOM      2  C   UNL     1       2.628   1.782  18.529  0.00  0.00    +0.000 C 
ATOM      3  S   UNL     1       1.668   3.241  18.849  0.00  0.00    +0.000 S 
ATOM      4  O   UNL     1       1.127   3.709  17.594  0.00  0.00    +0.000 OA
ATOM      5  O   UNL     1       0.814   2.903  19.972  0.00  0.00    +0.000 OA
ENDBRANCH   1   3
BRANCH   1   6
ATOM      6  C   UNL     1       4.141   3.752  19.807  0.00  0.00    +0.000 C 
BRANCH   6   7
ATOM      7  C   UNL     1       5.359   4.372  19.124  0.00  0.00    +0.000 C 
ATOM      8  O   UNL     1       6.175   5.062  19.727  0.00  0.00    +0.000 OA
ATOM      9  N   UNL     1       5.477   4.071  17.782  0.00  0.00    +0.000 N 
ATOM     10  H   UNL     1       4.721   3.558  17.346  0.00  0.00    +0.000 HD
BRANCH   9  11
ATOM     11  C   UNL     1       6.628   4.478  16.977  0.00  0.00    +0.000 C 
ATOM     12  C   UNL     1       6.593   3.781  15.609  0.00  0.00    +0.000 C 
ATOM     13  C   UNL     1       5.487   4.326  14.705  0.00  0.00    +0.000 C 
ATOM     14  C   UNL     1       5.582   5.840  14.551  0.00  0.00    +0.000 C 
ATOM     15  C   UNL     1       5.613   6.552  15.900  0.00  0.00    +0.000 C 
ATOM     16  C   UNL     1       6.710   6.001  16.810  0.00  0.00    +0.000 C 
ENDBRANCH   9  11
ENDBRANCH   6   7
ENDBRANCH   1   6
BRANCH   1  17
ATOM     17  C   UNL     1       2.995   5.553  18.480  0.00  0.00    +0.000 C 
BRANCH  17  18
ATOM     18  C   UNL     1       2.379   6.853  18.955  0.00  0.00    +0.000 A 
ATOM     19  C   UNL     1       1.979   7.002  20.292  0.00  0.00    +0.000 A 
ATOM     20  C   UNL     1       1.382   8.183  20.737  0.00  0.00    +0.000 A 
ATOM     21  C   UNL     1       1.198   9.237  19.850  0.00  0.00    +0.000 A 
ATOM     22 CL   UNL     1       0.478  10.700  20.399  0.00  0.00    +0.000 Cl
ATOM     23  C   UNL     1       1.604   9.118  18.523  0.00  0.00    +0.000 A 
ATOM     24  C   UNL     1       2.191   7.930  18.077  0.00  0.00    +0.000 A 
ENDBRANCH  17  18
ENDBRANCH   1  17
TORSDOF 6
ENDMDL
