MODEL 1
REMARK VINA RESULT:      -8.6      0.000      0.000
REMARK  Name = 
REMARK  3 active torsions:
REMARK  status: ('A' for Active; 'I' for Inactive)
REMARK    1  A    between atoms: C_9  and  O_10
REMARK    2  A    between atoms: C_14  and  C_15
REMARK    3  A    between atoms: C_15  and  C_16
REMARK                            x       y       z     vdW  Elec       q    Type
REMARK                         _______ _______ _______ _____ _____    ______ ____
ROOT
ATOM      1  O   UNL     1       0.800   2.454  18.358  0.00  0.00    +0.000 OA
ATOM      2  C   UNL     1       2.004   2.726  18.297  0.00  0.00    +0.000 C 
ATOM      3  C   UNL     1       2.530   3.430  17.117  0.00  0.00    +0.000 C 
ATOM      4  C   UNL     1       3.731   4.025  17.223  0.00  0.00    +0.000 C 
ATOM      5  C   UNL     1       4.545   4.196  15.961  0.00  0.00    +0.000 C 
ATOM      6  C   UNL     1       5.238   5.533  15.931  0.00  0.00    +0.000 C 
ATOM      7  C   UNL     1       6.062   5.728  17.170  0.00  0.00    +0.000 A 
ATOM      8  C   UNL     1       7.028   6.746  17.130  0.00  0.00    +0.000 A 
ATOM      9  C   UNL     1       7.774   7.033  18.258  0.00  0.00    +0.000 A 
ATOM     10  C   UNL     1       7.637   6.257  19.400  0.00  0.00    +0.000 A 
ATOM     11  C   UNL     1       6.685   5.224  19.447  0.00  0.00    +0.000 A 
ATOM     12  C   UNL     1       5.818   4.990  18.362  0.00  0.00    +0.000 A 
ATOM     13  C   UNL     1       4.450   4.260  18.572  0.00  0.00    +0.000 C 
ATOM     14  C   UNL     1       4.457   2.799  19.131  0.00  0.00    +0.000 C 
ATOM     15  C   UNL     1       3.002   2.281  19.358  0.00  0.00    +0.000 C 
ENDROOT
BRANCH   9  16
ATOM     16  O   UNL     1       8.632   8.092  18.280  0.00  0.00    +0.000 OA
ATOM     17  H   UNL     1       8.631   8.466  19.179  0.00  0.00    +0.000 HD
ENDBRANCH   9  16
BRANCH  13  18
ATOM     18  C   UNL     1       3.686   5.106  19.670  0.00  0.00    +0.000 C 
BRANCH  18  19
ATOM     19  C   UNL     1       2.979   6.378  19.283  0.00  0.00    +0.000 A 
ATOM     20  C   UNL     1       2.133   7.011  20.197  0.00  0.00    +0.000 A 
ATOM     21  C   UNL     1       1.526   8.220  19.869  0.00  0.00    +0.000 A 
ATOM     22  C   UNL     1       1.764   8.808  18.628  0.00  0.00    +0.000 A 
ATOM     23  C   UNL     1       2.614   8.190  17.711  0.00  0.00    +0.000 A 
ATOM     24  C   UNL     1       3.224   6.981  18.040  0.00  0.00    +0.000 A 
ENDBRANCH  18  19
ENDBRANCH  13  18
TORSDOF 3
ENDMDL
MODEL 2
REMARK VINA RESULT:      -8.6      1.471      5.927
REMARK  Name = 
REMARK  3 active torsions:
REMARK  status: ('A' for Active; 'I' for Inactive)
REMARK    1  A    between atoms: C_9  and  O_10
REMARK    2  A    between atoms: C_14  and  C_15
REMARK    3  A    between atoms: C_15  and  C_16
REMARK                            x       y       z     vdW  Elec       q    Type
REMARK                         _______ _______ _______ _____ _____    ______ ____
ROOT
ATOM      1  O   UNL     1       8.262   7.761  16.853  0.00  0.00    +0.000 OA
ATOM      2  C   UNL     1       7.404   7.175  17.523  0.00  0.00    +0.000 C 
ATOM      3  C   UNL     1       5.980   7.376  17.213  0.00  0.00    +0.000 C 
ATOM      4  C   UNL     1       5.100   6.480  17.692  0.00  0.00    +0.000 C 
ATOM      5  C   UNL     1       3.683   6.947  17.934  0.00  0.00    +0.000 C 
ATOM      6  C   UNL     1       2.682   5.898  17.525  0.00  0.00    +0.000 C 
ATOM      7  C   UNL     1       2.975   4.594  18.206  0.00  0.00    +0.000 A 
ATOM      8  C   UNL     1       1.947   3.638  18.206  0.00  0.00    +0.000 A 
ATOM      9  C   UNL     1       2.169   2.386  18.749  0.00  0.00    +0.000 A 
ATOM     10  C   UNL     1       3.374   2.103  19.378  0.00  0.00    +0.000 A 
ATOM     11  C   UNL     1       4.405   3.058  19.400  0.00  0.00    +0.000 A 
ATOM     12  C   UNL     1       4.259   4.294  18.742  0.00  0.00    +0.000 A 
ATOM     13  C   UNL     1       5.513   5.115  18.291  0.00  0.00    +0.000 C 
ATOM     14  C   UNL     1       6.527   5.596  19.381  0.00  0.00    +0.000 C 
ATOM     15  C   UNL     1       7.751   6.310  18.727  0.00  0.00    +0.000 C 
ENDROOT
BRANCH   9  16
ATOM     16  O   UNL     1       1.229   1.404  18.654  0.00  0.00    +0.000 OA
ATOM     17  H   UNL     1       0.350   1.823  18.665  0.00  0.00    +0.000 HD
ENDBRANCH   9  16
BRANCH  13  18
ATOM     18  C   UNL     1       6.348   4.136  17.370  0.00  0.00    +0.000 C 
BRANCH  18  19
ATOM     19  C   UNL     1       6.248   4.244  15.872  0.00  0.00    +0.000 A 
ATOM     20  C   UNL     1       7.322   4.752  15.136  0.00  0.00    +0.000 A 
ATOM     21  C   UNL     1       7.261   4.796  13.747  0.00  0.00    +0.000 A 
ATOM     22  C   UNL     1       6.129   4.328  13.080  0.00  0.00    +0.000 A 
ATOM     23  C   UNL     1       5.056   3.810  13.803  0.00  0.00    +0.000 A 
ATOM     24  C   UNL     1       5.116   3.764  15.194  0.00  0.00    +0.000 A 
ENDBRANCH  18  19
ENDBRANCH  13  18
TORSDOF 3
ENDMDL
MODEL 3
REMARK VINA RESULT:      -8.5      0.075      1.010
REMARK  Name = 
REMARK  3 active torsions:
REMARK  status: ('A' for Active; 'I' for Inactive)
REMARK    1  A    between atoms: C_9  and  O_10
REMARK    2  A    between atoms: C_14  and  C_15
REMARK    3  A    between atoms: C_15  and  C_16
REMARK                            x       y       z     vdW  Elec       q    Type
REMARK                         _______ _______ _______ _____ _____    ______ ____
ROOT
ATOM      1  O   UNL     1       0.715   2.480  18.391  0.00  0.00    +0.000 OA
ATOM      2  C   UNL     1       1.923   2.737  18.329  0.00  0.00    +0.000 C 
ATOM      3  C   UNL     1       2.456   3.432  17.147  0.00  0.00    +0.000 C 
ATOM      4  C   UNL     1       3.664   4.013  17.251  0.00  0.00    +0.000 C 
ATOM      5  C   UNL     1       4.480   4.170  15.988  0.00  0.00    +0.000 C 
ATOM      6  C   UNL     1       5.189   5.499  15.954  0.00  0.00    +0.000 C 
ATOM      7  C   UNL     1       6.015   5.687  17.192  0.00  0.00    +0.000 A 
ATOM      8  C   UNL     1       6.993   6.694  17.148  0.00  0.00    +0.000 A 
ATOM      9  C   UNL     1       7.743   6.975  18.276  0.00  0.00    +0.000 A 
ATOM     10  C   UNL     1       7.597   6.205  19.420  0.00  0.00    +0.000 A 
ATOM     11  C   UNL     1       6.633   5.183  19.471  0.00  0.00    +0.000 A 
ATOM     12  C   UNL     1       5.763   4.956  18.386  0.00  0.00    +0.000 A 
ATOM     13  C   UNL     1       4.386   4.243  18.599  0.00  0.00    +0.000 C 
ATOM     14  C   UNL     1       4.377   2.783  19.162  0.00  0.00    +0.000 C 
ATOM     15  C   UNL     1       2.915   2.284  19.391  0.00  0.00    +0.000 C 
ENDROOT
BRANCH   9  16
ATOM     16  O   UNL     1       8.613   8.025  18.294  0.00  0.00    +0.000 OA
ATOM     17  H   UNL     1       8.882   8.213  17.377  0.00  0.00    +0.000 HD
ENDBRANCH   9  16
BRANCH  13  18
ATOM     18  C   UNL     1       3.633   5.101  19.694  0.00  0.00    +0.000 C 
BRANCH  18  19
ATOM     19  C   UNL     1       3.007   6.418  19.319  0.00  0.00    +0.000 A 
ATOM     20  C   UNL     1       3.197   6.940  18.036  0.00  0.00    +0.000 A 
ATOM     21  C   UNL     1       2.570   8.124  17.662  0.00  0.00    +0.000 A 
ATOM     22  C   UNL     1       1.745   8.795  18.564  0.00  0.00    +0.000 A 
ATOM     23  C   UNL     1       1.541   8.280  19.843  0.00  0.00    +0.000 A 
ATOM     24  C   UNL     1       2.166   7.092  20.218  0.00  0.00    +0.000 A 
ENDBRANCH  18  19
ENDBRANCH  13  18
TORSDOF 3
ENDMDL
MODEL 4
REMARK VINA RESULT:      -8.4      1.471      5.862
REMARK  Name = 
REMARK  3 active torsions:
REMARK  status: ('A' for Active; 'I' for Inactive)
REMARK    1  A    between atoms: C_9  and  O_10
REMARK    2  A    between atoms: C_14  and  C_15
REMARK    3  A    between atoms: C_15  and  C_16
REMARK                            x       y       z     vdW  Elec       q    Type
REMARK                         _______ _______ _______ _____ _____    ______ ____
ROOT
ATOM      1  O   UNL     1       8.278   7.749  16.809  0.00  0.00    +0.000 OA
ATOM      2  C   UNL     1       7.429   7.169  17.495  0.00  0.00    +0.000 C 
ATOM      3  C   UNL     1       6.002   7.342  17.183  0.00  0.00    +0.000 C 
ATOM      4  C   UNL     1       5.135   6.447  17.687  0.00  0.00    +0.000 C 
ATOM      5  C   UNL     1       3.712   6.900  17.920  0.00  0.00    +0.000 C 
ATOM      6  C   UNL     1       2.725   5.828  17.541  0.00  0.00    +0.000 C 
ATOM      7  C   UNL     1       3.037   4.546  18.256  0.00  0.00    +0.000 A 
ATOM      8  C   UNL     1       2.023   3.577  18.282  0.00  0.00    +0.000 A 
ATOM      9  C   UNL     1       2.263   2.343  18.858  0.00  0.00    +0.000 A 
ATOM     10  C   UNL     1       3.472   2.093  19.491  0.00  0.00    +0.000 A 
ATOM     11  C   UNL     1       4.490   3.062  19.487  0.00  0.00    +0.000 A 
ATOM     12  C   UNL     1       4.326   4.279  18.796  0.00  0.00    +0.000 A 
ATOM     13  C   UNL     1       5.568   5.104  18.321  0.00  0.00    +0.000 C 
ATOM     14  C   UNL     1       6.577   5.627  19.396  0.00  0.00    +0.000 C 
ATOM     15  C   UNL     1       7.790   6.341  18.721  0.00  0.00    +0.000 C 
ENDROOT
BRANCH   9  16
ATOM     16  O   UNL     1       1.336   1.345  18.791  0.00  0.00    +0.000 OA
ATOM     17  H   UNL     1       0.483   1.702  19.094  0.00  0.00    +0.000 HD
ENDBRANCH   9  16
BRANCH  13  18
ATOM     18  C   UNL     1       6.415   4.112  17.425  0.00  0.00    +0.000 C 
BRANCH  18  19
ATOM     19  C   UNL     1       6.304   4.174  15.924  0.00  0.00    +0.000 A 
ATOM     20  C   UNL     1       5.127   3.760  15.294  0.00  0.00    +0.000 A 
ATOM     21  C   UNL     1       4.995   3.873  13.914  0.00  0.00    +0.000 A 
ATOM     22  C   UNL     1       6.034   4.406  13.152  0.00  0.00    +0.000 A 
ATOM     23  C   UNL     1       7.208   4.831  13.771  0.00  0.00    +0.000 A 
ATOM     24  C   UNL     1       7.342   4.720  15.153  0.00  0.00    +0.000 A 
ENDBRANCH  18  19
ENDBRANCH  13  18
TORSDOF 3
ENDMDL
MODEL 5
REMARK VINA RESULT:      -8.4      1.572      2.041
REMARK  Name = 
REMARK  3 active torsions:
REMARK  status: ('A' for Active; 'I' for Inactive)
REMARK    1  A    between atoms: C_9  and  O_10
REMARK    2  A    between atoms: C_14  and  C_15
REMARK    3  A    between atoms: C_15  and  C_16
REMARK                            x       y       z     vdW  Elec       q    Type
REMARK                         _______ _______ _______ _____ _____    ______ ____
ROOT
ATOM      1  O   UNL     1       0.790   3.019  21.382  0.00  0.00    +0.000 OA
ATOM      2  C   UNL     1       1.784   2.897  20.658  0.00  0.00    +0.000 C 
ATOM      3  C   UNL     1       1.627   2.939  19.196  0.00  0.00    +0.000 C 
ATOM      4  C   UNL     1       2.723   3.167  18.452  0.00  0.00    +0.000 C 
ATOM      5  C   UNL     1       2.741   2.624  17.041  0.00  0.00    +0.000 C 
ATOM      6  C   UNL     1       3.370   3.602  16.084  0.00  0.00    +0.000 C 
ATOM      7  C   UNL     1       4.737   3.999  16.558  0.00  0.00    +0.000 A 
ATOM      8  C   UNL     1       5.576   4.613  15.615  0.00  0.00    +0.000 A 
ATOM      9  C   UNL     1       6.823   5.073  15.998  0.00  0.00    +0.000 A 
ATOM     10  C   UNL     1       7.284   4.846  17.287  0.00  0.00    +0.000 A 
ATOM     11  C   UNL     1       6.460   4.216  18.235  0.00  0.00    +0.000 A 
ATOM     12  C   UNL     1       5.137   3.853  17.916  0.00  0.00    +0.000 A 
ATOM     13  C   UNL     1       4.063   3.669  19.039  0.00  0.00    +0.000 C 
ATOM     14  C   UNL     1       4.303   2.578  20.135  0.00  0.00    +0.000 C 
ATOM     15  C   UNL     1       3.174   2.613  21.213  0.00  0.00    +0.000 C 
ENDROOT
BRANCH   9  16
ATOM     16  O   UNL     1       7.606   5.778  15.132  0.00  0.00    +0.000 OA
ATOM     17  H   UNL     1       8.536   5.645  15.386  0.00  0.00    +0.000 HD
ENDBRANCH   9  16
BRANCH  13  18
ATOM     18  C   UNL     1       4.046   5.038  19.833  0.00  0.00    +0.000 C 
BRANCH  18  19
ATOM     19  C   UNL     1       3.295   6.219  19.278  0.00  0.00    +0.000 A 
ATOM     20  C   UNL     1       2.310   6.844  20.049  0.00  0.00    +0.000 A 
ATOM     21  C   UNL     1       1.657   7.974  19.568  0.00  0.00    +0.000 A 
ATOM     22  C   UNL     1       1.985   8.494  18.317  0.00  0.00    +0.000 A 
ATOM     23  C   UNL     1       2.972   7.885  17.543  0.00  0.00    +0.000 A 
ATOM     24  C   UNL     1       3.629   6.755  18.024  0.00  0.00    +0.000 A 
ENDBRANCH  18  19
ENDBRANCH  13  18
TORSDOF 3
ENDMDL
MODEL 6
REMARK VINA RESULT:      -8.2      1.651      2.335
REMARK  Name = 
REMARK  3 active torsions:
REMARK  status: ('A' for Active; 'I' for Inactive)
REMARK    1  A    between atoms: C_9  and  O_10
REMARK    2  A    between atoms: C_14  and  C_15
REMARK    3  A    between atoms: C_15  and  C_16
REMARK                            x       y       z     vdW  Elec       q    Type
REMARK                         _______ _______ _______ _____ _____    ______ ____
ROOT
ATOM      1  O   UNL     1       0.916   3.181  21.455  0.00  0.00    +0.000 OA
ATOM      2  C   UNL     1       1.871   3.023  20.687  0.00  0.00    +0.000 C 
ATOM      3  C   UNL     1       1.650   3.079  19.234  0.00  0.00    +0.000 C 
ATOM      4  C   UNL     1       2.720   3.267  18.442  0.00  0.00    +0.000 C 
ATOM      5  C   UNL     1       2.652   2.731  17.030  0.00  0.00    +0.000 C 
ATOM      6  C   UNL     1       3.277   3.688  16.049  0.00  0.00    +0.000 C 
ATOM      7  C   UNL     1       4.679   4.027  16.462  0.00  0.00    +0.000 A 
ATOM      8  C   UNL     1       5.500   4.612  15.485  0.00  0.00    +0.000 A 
ATOM      9  C   UNL     1       6.780   5.019  15.813  0.00  0.00    +0.000 A 
ATOM     10  C   UNL     1       7.289   4.765  17.079  0.00  0.00    +0.000 A 
ATOM     11  C   UNL     1       6.484   4.164  18.061  0.00  0.00    +0.000 A 
ATOM     12  C   UNL     1       5.134   3.857  17.800  0.00  0.00    +0.000 A 
ATOM     13  C   UNL     1       4.104   3.710  18.970  0.00  0.00    +0.000 C 
ATOM     14  C   UNL     1       4.348   2.605  20.049  0.00  0.00    +0.000 C 
ATOM     15  C   UNL     1       3.271   2.680  21.177  0.00  0.00    +0.000 C 
ENDROOT
BRANCH   9  16
ATOM     16  O   UNL     1       7.551   5.696  14.916  0.00  0.00    +0.000 OA
ATOM     17  H   UNL     1       8.398   5.224  14.824  0.00  0.00    +0.000 HD
ENDBRANCH   9  16
BRANCH  13  18
ATOM     18  C   UNL     1       4.179   5.075  19.769  0.00  0.00    +0.000 C 
BRANCH  18  19
ATOM     19  C   UNL     1       3.425   6.280  19.271  0.00  0.00    +0.000 A 
ATOM     20  C   UNL     1       3.754   6.847  18.037  0.00  0.00    +0.000 A 
ATOM     21  C   UNL     1       3.021   7.921  17.543  0.00  0.00    +0.000 A 
ATOM     22  C   UNL     1       1.950   8.434  18.273  0.00  0.00    +0.000 A 
ATOM     23  C   UNL     1       1.607   7.870  19.501  0.00  0.00    +0.000 A 
ATOM     24  C   UNL     1       2.338   6.793  19.996  0.00  0.00    +0.000 A 
ENDBRANCH  18  19
ENDBRANCH  13  18
TORSDOF 3
ENDMDL
MODEL 7
REMARK VINA RESULT:      -7.8      2.196      5.001
REMARK  Name = 
REMARK  3 active torsions:
REMARK  status: ('A' for Active; 'I' for Inactive)
REMARK    1  A    between atoms: C_9  and  O_10
REMARK    2  A    between atoms: C_14  and  C_15
REMARK    3  A    between atoms: C_15  and  C_16
REMARK                            x       y       z     vdW  Elec       q    Type
REMARK                         _______ _______ _______ _____ _____    ______ ____
ROOT
ATOM      1  O   UNL     1       2.030   9.044  17.956  0.00  0.00    +0.000 OA
ATOM      2  C   UNL     1       2.017   7.901  18.428  0.00  0.00    +0.000 C 
ATOM      3  C   UNL     1       1.743   6.756  17.546  0.00  0.00    +0.000 C 
ATOM      4  C   UNL     1       2.083   5.531  17.983  0.00  0.00    +0.000 C 
ATOM      5  C   UNL     1       1.304   4.352  17.447  0.00  0.00    +0.000 C 
ATOM      6  C   UNL     1       2.205   3.177  17.170  0.00  0.00    +0.000 C 
ATOM      7  C   UNL     1       3.001   2.824  18.392  0.00  0.00    +0.000 A 
ATOM      8  C   UNL     1       3.611   1.560  18.403  0.00  0.00    +0.000 A 
ATOM      9  C   UNL     1       4.421   1.194  19.462  0.00  0.00    +0.000 A 
ATOM     10  C   UNL     1       4.558   2.035  20.557  0.00  0.00    +0.000 A 
ATOM     11  C   UNL     1       3.939   3.296  20.566  0.00  0.00    +0.000 A 
ATOM     12  C   UNL     1       3.216   3.754  19.448  0.00  0.00    +0.000 A 
ATOM     13  C   UNL     1       2.994   5.285  19.208  0.00  0.00    +0.000 C 
ATOM     14  C   UNL     1       2.220   6.109  20.289  0.00  0.00    +0.000 C 
ATOM     15  C   UNL     1       2.186   7.625  19.916  0.00  0.00    +0.000 C 
ENDROOT
BRANCH   9  16
ATOM     16  O   UNL     1       5.117   0.022  19.440  0.00  0.00    +0.000 OA
ATOM     17  H   UNL     1       5.719   0.040  18.675  0.00  0.00    +0.000 HD
ENDBRANCH   9  16
BRANCH  13  18
ATOM     18  C   UNL     1       4.443   5.920  19.180  0.00  0.00    +0.000 C 
BRANCH  18  19
ATOM     19  C   UNL     1       5.383   5.600  18.048  0.00  0.00    +0.000 A 
ATOM     20  C   UNL     1       6.567   4.902  18.302  0.00  0.00    +0.000 A 
ATOM     21  C   UNL     1       7.409   4.548  17.252  0.00  0.00    +0.000 A 
ATOM     22  C   UNL     1       7.074   4.882  15.941  0.00  0.00    +0.000 A 
ATOM     23  C   UNL     1       5.891   5.570  15.676  0.00  0.00    +0.000 A 
ATOM     24  C   UNL     1       5.045   5.923  16.725  0.00  0.00    +0.000 A 
ENDBRANCH  18  19
ENDBRANCH  13  18
TORSDOF 3
ENDMDL
MODEL 8
REMARK VINA RESULT:      -7.7      2.200      5.014
REMARK  Name = 
REMARK  3 active torsions:
REMARK  status: ('A' for Active; 'I' for Inactive)
REMARK    1  A    between atoms: C_9  and  O_10
REMARK    2  A    between atoms: C_14  and  C_15
REMARK    3  A    between atoms: C_15  and  C_16
REMARK                            x       y       z     vdW  Elec       q    Type
REMARK                         _______ _______ _______ _____ _____    ______ ____
ROOT
ATOM      1  O   UNL     1       1.993   8.950  18.042  0.00  0.00    +0.000 OA
ATOM      2  C   UNL     1       1.988   7.801  18.496  0.00  0.00    +0.000 C 
ATOM      3  C   UNL     1       1.766   6.664  17.590  0.00  0.00    +0.000 C 
ATOM      4  C   UNL     1       2.116   5.439  18.020  0.00  0.00    +0.000 C 
ATOM      5  C   UNL     1       1.379   4.253  17.442  0.00  0.00    +0.000 C 
ATOM      6  C   UNL     1       2.313   3.101  17.179  0.00  0.00    +0.000 C 
ATOM      7  C   UNL     1       3.076   2.746  18.420  0.00  0.00    +0.000 A 
ATOM      8  C   UNL     1       3.711   1.494  18.433  0.00  0.00    +0.000 A 
ATOM      9  C   UNL     1       4.493   1.128  19.513  0.00  0.00    +0.000 A 
ATOM     10  C   UNL     1       4.579   1.955  20.624  0.00  0.00    +0.000 A 
ATOM     11  C   UNL     1       3.934   3.204  20.630  0.00  0.00    +0.000 A 
ATOM     12  C   UNL     1       3.238   3.664  19.496  0.00  0.00    +0.000 A 
ATOM     13  C   UNL     1       2.992   5.193  19.271  0.00  0.00    +0.000 C 
ATOM     14  C   UNL     1       2.167   5.986  20.338  0.00  0.00    +0.000 C 
ATOM     15  C   UNL     1       2.114   7.506  19.985  0.00  0.00    +0.000 C 
ENDROOT
BRANCH   9  16
ATOM     16  O   UNL     1       5.214  -0.030  19.496  0.00  0.00    +0.000 OA
ATOM     17  H   UNL     1       5.425  -0.243  18.570  0.00  0.00    +0.000 HD
ENDBRANCH   9  16
BRANCH  13  18
ATOM     18  C   UNL     1       4.429   5.858  19.299  0.00  0.00    +0.000 C 
BRANCH  18  19
ATOM     19  C   UNL     1       5.423   5.547  18.211  0.00  0.00    +0.000 A 
ATOM     20  C   UNL     1       5.217   6.036  16.918  0.00  0.00    +0.000 A 
ATOM     21  C   UNL     1       6.162   5.806  15.924  0.00  0.00    +0.000 A 
ATOM     22  C   UNL     1       7.324   5.092  16.214  0.00  0.00    +0.000 A 
ATOM     23  C   UNL     1       7.545   4.608  17.502  0.00  0.00    +0.000 A 
ATOM     24  C   UNL     1       6.600   4.839  18.499  0.00  0.00    +0.000 A 
ENDBRANCH  18  19
ENDBRANCH  13  18
TORSDOF 3
ENDMDL
MODEL 9
REMARK VINA RESULT:      -7.5      2.245      4.980
REMARK  Name = 
REMARK  3 active torsions:
REMARK  status: ('A' for Active; 'I' for Inactive)
REMARK    1  A    between atoms: C_9  and  O_10
REMARK    2  A    between atoms: C_14  and  C_15
REMARK    3  A    between atoms: C_15  and  C_16
REMARK                            x       y       z     vdW  Elec       q    Type
REMARK                         _______ _______ _______ _____ _____    ______ ____
ROOT
ATOM      1  O   UNL     1       4.887   1.705  20.023  0.00  0.00    +0.000 OA
ATOM      2  C   UNL     1       4.131   2.591  19.611  0.00  0.00    +0.000 C 
ATOM      3  C   UNL     1       3.267   3.307  20.562  0.00  0.00    +0.000 C 
ATOM      4  C   UNL     1       2.736   4.478  20.171  0.00  0.00    +0.000 C 
ATOM      5  C   UNL     1       1.433   4.907  20.806  0.00  0.00    +0.000 C 
ATOM      6  C   UNL     1       1.423   6.386  21.094  0.00  0.00    +0.000 C 
ATOM      7  C   UNL     1       1.734   7.167  19.851  0.00  0.00    +0.000 A 
ATOM      8  C   UNL     1       1.419   8.535  19.873  0.00  0.00    +0.000 A 
ATOM      9  C   UNL     1       1.745   9.334  18.792  0.00  0.00    +0.000 A 
ATOM     10  C   UNL     1       2.297   8.772  17.650  0.00  0.00    +0.000 A 
ATOM     11  C   UNL     1       2.601   7.401  17.610  0.00  0.00    +0.000 A 
ATOM     12  C   UNL     1       2.404   6.583  18.740  0.00  0.00    +0.000 A 
ATOM     13  C   UNL     1       3.204   5.248  18.913  0.00  0.00    +0.000 C 
ATOM     14  C   UNL     1       3.037   4.128  17.834  0.00  0.00    +0.000 C 
ATOM     15  C   UNL     1       3.982   2.922  18.132  0.00  0.00    +0.000 C 
ENDROOT
BRANCH   9  16
ATOM     16  O   UNL     1       1.557  10.684  18.838  0.00  0.00    +0.000 OA
ATOM     17  H   UNL     1       1.427  10.942  19.767  0.00  0.00    +0.000 HD
ENDBRANCH   9  16
BRANCH  13  18
ATOM     18  C   UNL     1       4.730   5.659  18.834  0.00  0.00    +0.000 C 
BRANCH  18  19
ATOM     19  C   UNL     1       5.503   5.436  17.561  0.00  0.00    +0.000 A 
ATOM     20  C   UNL     1       6.712   4.735  17.593  0.00  0.00    +0.000 A 
ATOM     21  C   UNL     1       7.400   4.471  16.413  0.00  0.00    +0.000 A 
ATOM     22  C   UNL     1       6.884   4.899  15.191  0.00  0.00    +0.000 A 
ATOM     23  C   UNL     1       5.675   5.591  15.145  0.00  0.00    +0.000 A 
ATOM     24  C   UNL     1       4.984   5.854  16.326  0.00  0.00    +0.000 A 
ENDBRANCH  18  19
ENDBRANCH  13  18
TORSDOF 3
ENDMDL
