MODEL 1
REMARK VINA RESULT:      -6.2      0.000      0.000
REMARK  Name = 
REMARK  21 active torsions:
REMARK  status: ('A' for Active; 'I' for Inactive)
REMARK    1  A    between atoms: C_1  and  C_2
REMARK    2  A    between atoms: C_2  and  C_3
REMARK    3  A    between atoms: C_3  and  C_4
REMARK    4  A    between atoms: C_4  and  C_5
REMARK    5  A    between atoms: C_5  and  C_6
REMARK    6  A    between atoms: C_6  and  C_7
REMARK    7  A    between atoms: C_7  and  C_8
REMARK    8  A    between atoms: C_8  and  C_9
REMARK    9  A    between atoms: C_9  and  C_10
REMARK   10  A    between atoms: C_10  and  O_11
REMARK   11  A    between atoms: O_11  and  C_12
REMARK   12  A    between atoms: C_15  and  O_16
REMARK   13  A    between atoms: O_16  and  C_17
REMARK   14  A    between atoms: C_17  and  C_18
REMARK   15  A    between atoms: C_18  and  C_20
REMARK   16  A    between atoms: C_20  and  O_21
REMARK   17  A    between atoms: O_21  and  C_22
REMARK   18  A    between atoms: C_22  and  C_23
REMARK   19  A    between atoms: C_23  and  C_24
REMARK   20  A    between atoms: C_24  and  C_25
REMARK   21  A    between atoms: C_25  and  O_27
REMARK                            x       y       z     vdW  Elec       q    Type
REMARK                         _______ _______ _______ _____ _____    ______ ____
ROOT
ATOM      1  C   UNL     1       7.645   7.660  17.672  0.00  0.00    +0.000 A 
ATOM      2  C   UNL     1       8.249   6.940  18.693  0.00  0.00    +0.000 A 
ATOM      3  C   UNL     1       7.736   5.727  19.116  0.00  0.00    +0.000 A 
ATOM      4  C   UNL     1       6.527   5.252  18.601  0.00  0.00    +0.000 A 
ATOM      5  C   UNL     1       5.901   5.969  17.584  0.00  0.00    +0.000 A 
ATOM      6  C   UNL     1       6.457   7.172  17.113  0.00  0.00    +0.000 A 
ENDROOT
BRANCH   1   7
ATOM      7  O   UNL     1       8.227   8.810  17.194  0.00  0.00    +0.000 OA
BRANCH   7   8
ATOM      8  C   UNL     1       7.962   9.967  18.016  0.00  0.00    +0.000 C 
BRANCH   8   9
ATOM      9  C   UNL     1       9.223  10.355  18.760  0.00  0.00    +0.000 C 
BRANCH   9  10
ATOM     10  C   UNL     1      10.074  11.301  17.926  0.00  0.00    +0.000 C 
BRANCH  10  11
ATOM     11  C   UNL     1      10.065  12.696  18.532  0.00  0.00    +0.000 C 
BRANCH  11  12
ATOM     12  C   UNL     1      11.151  12.820  19.590  0.00  0.00    +0.000 C 
BRANCH  12  13
ATOM     13  C   UNL     1      10.607  13.520  20.824  0.00  0.00    +0.000 C 
BRANCH  13  14
ATOM     14  C   UNL     1       9.711  12.577  21.612  0.00  0.00    +0.000 C 
BRANCH  14  15
ATOM     15  C   UNL     1       8.370  13.236  21.892  0.00  0.00    +0.000 C 
BRANCH  15  17
ATOM     16  C   UNL     1       7.185  14.705  20.261  0.00  0.00    +0.000 C 
ATOM     17  C   UNL     1       8.316  14.623  21.267  0.00  0.00    +0.000 C 
ENDBRANCH  15  17
ENDBRANCH  14  15
ENDBRANCH  13  14
ENDBRANCH  12  13
ENDBRANCH  11  12
ENDBRANCH  10  11
ENDBRANCH   9  10
ENDBRANCH   8   9
ENDBRANCH   7   8
ENDBRANCH   1   7
BRANCH   4  18
ATOM     18  O   UNL     1       6.077   4.084  19.147  0.00  0.00    +0.000 OA
BRANCH  18  19
ATOM     19  C   UNL     1       4.711   3.750  18.926  0.00  0.00    +0.000 C 
BRANCH  19  20
ATOM     20  C   UNL     1       4.452   2.337  19.455  0.00  0.00    +0.000 C 
ATOM     21  O   UNL     1       4.786   1.967  20.561  0.00  0.00    +0.000 OA
BRANCH  20  22
ATOM     22  C   UNL     1       3.786   1.364  18.471  0.00  0.00    +0.000 C 
BRANCH  22  23
ATOM     23  O   UNL     1       2.530   1.829  17.980  0.00  0.00    +0.000 OA
BRANCH  23  24
ATOM     24  C   UNL     1       1.592   2.026  19.041  0.00  0.00    +0.000 C 
BRANCH  24  25
ATOM     25  C   UNL     1       1.116   3.469  19.010  0.00  0.00    +0.000 C 
BRANCH  25  26
ATOM     26  C   UNL     1       0.681   3.945  20.392  0.00  0.00    +0.000 C 
BRANCH  26  27
ATOM     27  C   UNL     1       1.866   4.038  21.314  0.00  0.00    +0.000 C 
ATOM     28  O   UNL     1       2.165   3.177  22.132  0.00  0.00    +0.000 OA
BRANCH  27  29
ATOM     29  O   UNL     1       2.597   5.150  21.127  0.00  0.00    +0.000 OA
ATOM     30  H   UNL     1       2.205   5.801  20.514  0.00  0.00    +0.000 HD
ENDBRANCH  27  29
ENDBRANCH  26  27
ENDBRANCH  25  26
ENDBRANCH  24  25
ENDBRANCH  23  24
ENDBRANCH  22  23
ENDBRANCH  20  22
ENDBRANCH  19  20
ENDBRANCH  18  19
ENDBRANCH   4  18
TORSDOF 20
ENDMDL
MODEL 2
REMARK VINA RESULT:      -6.0      2.451      3.818
REMARK  Name = 
REMARK  21 active torsions:
REMARK  status: ('A' for Active; 'I' for Inactive)
REMARK    1  A    between atoms: C_1  and  C_2
REMARK    2  A    between atoms: C_2  and  C_3
REMARK    3  A    between atoms: C_3  and  C_4
REMARK    4  A    between atoms: C_4  and  C_5
REMARK    5  A    between atoms: C_5  and  C_6
REMARK    6  A    between atoms: C_6  and  C_7
REMARK    7  A    between atoms: C_7  and  C_8
REMARK    8  A    between atoms: C_8  and  C_9
REMARK    9  A    between atoms: C_9  and  C_10
REMARK   10  A    between atoms: C_10  and  O_11
REMARK   11  A    between atoms: O_11  and  C_12
REMARK   12  A    between atoms: C_15  and  O_16
REMARK   13  A    between atoms: O_16  and  C_17
REMARK   14  A    between atoms: C_17  and  C_18
REMARK   15  A    between atoms: C_18  and  C_20
REMARK   16  A    between atoms: C_20  and  O_21
REMARK   17  A    between atoms: O_21  and  C_22
REMARK   18  A    between atoms: C_22  and  C_23
REMARK   19  A    between atoms: C_23  and  C_24
REMARK   20  A    between atoms: C_24  and  C_25
REMARK   21  A    between atoms: C_25  and  O_27
REMARK                            x       y       z     vdW  Elec       q    Type
REMARK                         _______ _______ _______ _____ _____    ______ ____
ROOT
ATOM      1  C   UNL     1       5.329   5.585  17.524  0.00  0.00    +0.000 A 
ATOM      2  C   UNL     1       5.527   5.060  18.795  0.00  0.00    +0.000 A 
ATOM      3  C   UNL     1       4.946   3.864  19.174  0.00  0.00    +0.000 A 
ATOM      4  C   UNL     1       4.050   3.211  18.322  0.00  0.00    +0.000 A 
ATOM      5  C   UNL     1       3.833   3.731  17.049  0.00  0.00    +0.000 A 
ATOM      6  C   UNL     1       4.471   4.916  16.644  0.00  0.00    +0.000 A 
ENDROOT
BRANCH   1   7
ATOM      7  O   UNL     1       5.997   6.720  17.131  0.00  0.00    +0.000 OA
BRANCH   7   8
ATOM      8  C   UNL     1       7.433   6.577  17.163  0.00  0.00    +0.000 C 
BRANCH   8   9
ATOM      9  C   UNL     1       7.999   7.423  18.284  0.00  0.00    +0.000 C 
BRANCH   9  10
ATOM     10  C   UNL     1       8.039   8.892  17.886  0.00  0.00    +0.000 C 
BRANCH  10  11
ATOM     11  C   UNL     1       8.937   9.674  18.834  0.00  0.00    +0.000 C 
BRANCH  11  12
ATOM     12  C   UNL     1       9.555  10.863  18.115  0.00  0.00    +0.000 C 
BRANCH  12  13
ATOM     13  C   UNL     1       9.243  12.149  18.861  0.00  0.00    +0.000 C 
BRANCH  13  14
ATOM     14  C   UNL     1       9.937  12.153  20.214  0.00  0.00    +0.000 C 
BRANCH  14  15
ATOM     15  C   UNL     1       9.318  13.207  21.119  0.00  0.00    +0.000 C 
BRANCH  15  17
ATOM     16  C   UNL     1      10.071  15.219  22.387  0.00  0.00    +0.000 C 
ATOM     17  C   UNL     1      10.115  14.503  21.052  0.00  0.00    +0.000 C 
ENDBRANCH  15  17
ENDBRANCH  14  15
ENDBRANCH  13  14
ENDBRANCH  12  13
ENDBRANCH  11  12
ENDBRANCH  10  11
ENDBRANCH   9  10
ENDBRANCH   8   9
ENDBRANCH   7   8
ENDBRANCH   1   7
BRANCH   4  18
ATOM     18  O   UNL     1       3.479   2.079  18.831  0.00  0.00    +0.000 OA
BRANCH  18  19
ATOM     19  C   UNL     1       2.655   2.231  19.981  0.00  0.00    +0.000 C 
BRANCH  19  20
ATOM     20  C   UNL     1       1.289   2.771  19.547  0.00  0.00    +0.000 C 
ATOM     21  O   UNL     1       0.553   2.183  18.783  0.00  0.00    +0.000 OA
BRANCH  20  22
ATOM     22  C   UNL     1       0.911   4.155  20.093  0.00  0.00    +0.000 C 
BRANCH  22  23
ATOM     23  O   UNL     1       2.041   4.965  20.413  0.00  0.00    +0.000 OA
BRANCH  23  24
ATOM     24  C   UNL     1       1.685   6.346  20.515  0.00  0.00    +0.000 C 
BRANCH  24  25
ATOM     25  C   UNL     1       2.456   7.128  19.464  0.00  0.00    +0.000 C 
BRANCH  25  26
ATOM     26  C   UNL     1       1.740   8.422  19.092  0.00  0.00    +0.000 C 
BRANCH  26  27
ATOM     27  C   UNL     1       2.274   8.966  17.796  0.00  0.00    +0.000 C 
ATOM     28  O   UNL     1       2.944   8.315  17.005  0.00  0.00    +0.000 OA
BRANCH  27  29
ATOM     29  O   UNL     1       1.909  10.239  17.565  0.00  0.00    +0.000 OA
ATOM     30  H   UNL     1       2.343  10.901  18.138  0.00  0.00    +0.000 HD
ENDBRANCH  27  29
ENDBRANCH  26  27
ENDBRANCH  25  26
ENDBRANCH  24  25
ENDBRANCH  23  24
ENDBRANCH  22  23
ENDBRANCH  20  22
ENDBRANCH  19  20
ENDBRANCH  18  19
ENDBRANCH   4  18
TORSDOF 20
ENDMDL
MODEL 3
REMARK VINA RESULT:      -5.9      5.165      7.996
REMARK  Name = 
REMARK  21 active torsions:
REMARK  status: ('A' for Active; 'I' for Inactive)
REMARK    1  A    between atoms: C_1  and  C_2
REMARK    2  A    between atoms: C_2  and  C_3
REMARK    3  A    between atoms: C_3  and  C_4
REMARK    4  A    between atoms: C_4  and  C_5
REMARK    5  A    between atoms: C_5  and  C_6
REMARK    6  A    between atoms: C_6  and  C_7
REMARK    7  A    between atoms: C_7  and  C_8
REMARK    8  A    between atoms: C_8  and  C_9
REMARK    9  A    between atoms: C_9  and  C_10
REMARK   10  A    between atoms: C_10  and  O_11
REMARK   11  A    between atoms: O_11  and  C_12
REMARK   12  A    between atoms: C_15  and  O_16
REMARK   13  A    between atoms: O_16  and  C_17
REMARK   14  A    between atoms: C_17  and  C_18
REMARK   15  A    between atoms: C_18  and  C_20
REMARK   16  A    between atoms: C_20  and  O_21
REMARK   17  A    between atoms: O_21  and  C_22
REMARK   18  A    between atoms: C_22  and  C_23
REMARK   19  A    between atoms: C_23  and  C_24
REMARK   20  A    between atoms: C_24  and  C_25
REMARK   21  A    between atoms: C_25  and  O_27
REMARK                            x       y       z     vdW  Elec       q    Type
REMARK                         _______ _______ _______ _____ _____    ______ ____
ROOT
ATOM      1  C   UNL     1       2.345   7.141  18.816  0.00  0.00    +0.000 A 
ATOM      2  C   UNL     1       2.075   6.798  20.134  0.00  0.00    +0.000 A 
ATOM      3  C   UNL     1       1.693   5.514  20.476  0.00  0.00    +0.000 A 
ATOM      4  C   UNL     1       1.457   4.558  19.484  0.00  0.00    +0.000 A 
ATOM      5  C   UNL     1       1.712   4.890  18.156  0.00  0.00    +0.000 A 
ATOM      6  C   UNL     1       2.158   6.179  17.816  0.00  0.00    +0.000 A 
ENDROOT
BRANCH   1   7
ATOM      7  O   UNL     1       2.824   8.392  18.508  0.00  0.00    +0.000 OA
BRANCH   7   8
ATOM      8  C   UNL     1       1.990   9.108  17.572  0.00  0.00    +0.000 C 
BRANCH   8   9
ATOM      9  C   UNL     1       0.706   9.525  18.259  0.00  0.00    +0.000 C 
BRANCH   9  10
ATOM     10  C   UNL     1       0.968  10.636  19.266  0.00  0.00    +0.000 C 
BRANCH  10  11
ATOM     11  C   UNL     1       0.081  11.837  18.975  0.00  0.00    +0.000 C 
BRANCH  11  12
ATOM     12  C   UNL     1      -1.023  11.943  20.016  0.00  0.00    +0.000 C 
BRANCH  12  13
ATOM     13  C   UNL     1      -2.368  12.149  19.338  0.00  0.00    +0.000 C 
BRANCH  13  14
ATOM     14  C   UNL     1      -2.356  11.533  17.948  0.00  0.00    +0.000 C 
BRANCH  14  15
ATOM     15  C   UNL     1      -3.740  11.014  17.591  0.00  0.00    +0.000 C 
BRANCH  15  17
ATOM     16  C   UNL     1      -6.171  11.119  18.135  0.00  0.00    +0.000 C 
ATOM     17  C   UNL     1      -4.794  11.635  18.498  0.00  0.00    +0.000 C 
ENDBRANCH  15  17
ENDBRANCH  14  15
ENDBRANCH  13  14
ENDBRANCH  12  13
ENDBRANCH  11  12
ENDBRANCH  10  11
ENDBRANCH   9  10
ENDBRANCH   8   9
ENDBRANCH   7   8
ENDBRANCH   1   7
BRANCH   4  18
ATOM     18  O   UNL     1       1.009   3.348  19.933  0.00  0.00    +0.000 OA
BRANCH  18  19
ATOM     19  C   UNL     1       1.870   2.231  19.750  0.00  0.00    +0.000 C 
BRANCH  19  20
ATOM     20  C   UNL     1       3.053   2.350  20.716  0.00  0.00    +0.000 C 
ATOM     21  O   UNL     1       2.924   2.465  21.916  0.00  0.00    +0.000 OA
BRANCH  20  22
ATOM     22  C   UNL     1       4.446   2.377  20.070  0.00  0.00    +0.000 C 
BRANCH  22  23
ATOM     23  O   UNL     1       4.532   3.255  18.950  0.00  0.00    +0.000 OA
BRANCH  23  24
ATOM     24  C   UNL     1       5.285   4.430  19.261  0.00  0.00    +0.000 C 
BRANCH  24  25
ATOM     25  C   UNL     1       5.459   5.249  17.992  0.00  0.00    +0.000 C 
BRANCH  25  26
ATOM     26  C   UNL     1       5.708   4.358  16.781  0.00  0.00    +0.000 C 
BRANCH  26  27
ATOM     27  C   UNL     1       7.113   4.536  16.275  0.00  0.00    +0.000 C 
ATOM     28  O   UNL     1       7.392   4.866  15.130  0.00  0.00    +0.000 OA
BRANCH  27  29
ATOM     29  O   UNL     1       8.046   4.333  17.222  0.00  0.00    +0.000 OA
ATOM     30  H   UNL     1       8.431   3.436  17.234  0.00  0.00    +0.000 HD
ENDBRANCH  27  29
ENDBRANCH  26  27
ENDBRANCH  25  26
ENDBRANCH  24  25
ENDBRANCH  23  24
ENDBRANCH  22  23
ENDBRANCH  20  22
ENDBRANCH  19  20
ENDBRANCH  18  19
ENDBRANCH   4  18
TORSDOF 20
ENDMDL
MODEL 4
REMARK VINA RESULT:      -5.8      5.093      7.997
REMARK  Name = 
REMARK  21 active torsions:
REMARK  status: ('A' for Active; 'I' for Inactive)
REMARK    1  A    between atoms: C_1  and  C_2
REMARK    2  A    between atoms: C_2  and  C_3
REMARK    3  A    between atoms: C_3  and  C_4
REMARK    4  A    between atoms: C_4  and  C_5
REMARK    5  A    between atoms: C_5  and  C_6
REMARK    6  A    between atoms: C_6  and  C_7
REMARK    7  A    between atoms: C_7  and  C_8
REMARK    8  A    between atoms: C_8  and  C_9
REMARK    9  A    between atoms: C_9  and  C_10
REMARK   10  A    between atoms: C_10  and  O_11
REMARK   11  A    between atoms: O_11  and  C_12
REMARK   12  A    between atoms: C_15  and  O_16
REMARK   13  A    between atoms: O_16  and  C_17
REMARK   14  A    between atoms: C_17  and  C_18
REMARK   15  A    between atoms: C_18  and  C_20
REMARK   16  A    between atoms: C_20  and  O_21
REMARK   17  A    between atoms: O_21  and  C_22
REMARK   18  A    between atoms: C_22  and  C_23
REMARK   19  A    between atoms: C_23  and  C_24
REMARK   20  A    between atoms: C_24  and  C_25
REMARK   21  A    between atoms: C_25  and  O_27
REMARK                            x       y       z     vdW  Elec       q    Type
REMARK                         _______ _______ _______ _____ _____    ______ ____
ROOT
ATOM      1  C   UNL     1       2.412   5.118  18.300  0.00  0.00    +0.000 A 
ATOM      2  C   UNL     1       2.545   6.430  17.865  0.00  0.00    +0.000 A 
ATOM      3  C   UNL     1       2.381   7.494  18.733  0.00  0.00    +0.000 A 
ATOM      4  C   UNL     1       1.962   7.275  20.048  0.00  0.00    +0.000 A 
ATOM      5  C   UNL     1       1.812   5.965  20.497  0.00  0.00    +0.000 A 
ATOM      6  C   UNL     1       2.038   4.883  19.628  0.00  0.00    +0.000 A 
ENDROOT
BRANCH   1   7
ATOM      7  O   UNL     1       2.681   4.073  17.448  0.00  0.00    +0.000 OA
BRANCH   7   8
ATOM      8  C   UNL     1       3.830   3.296  17.846  0.00  0.00    +0.000 C 
BRANCH   8   9
ATOM      9  C   UNL     1       5.093   3.975  17.356  0.00  0.00    +0.000 C 
BRANCH   9  10
ATOM     10  C   UNL     1       5.012   4.252  15.862  0.00  0.00    +0.000 C 
BRANCH  10  11
ATOM     11  C   UNL     1       5.781   5.518  15.515  0.00  0.00    +0.000 C 
BRANCH  11  12
ATOM     12  C   UNL     1       6.893   5.755  16.527  0.00  0.00    +0.000 C 
BRANCH  12  13
ATOM     13  C   UNL     1       6.597   6.997  17.351  0.00  0.00    +0.000 C 
BRANCH  13  14
ATOM     14  C   UNL     1       7.873   7.516  17.994  0.00  0.00    +0.000 C 
BRANCH  14  15
ATOM     15  C   UNL     1       8.024   9.007  17.735  0.00  0.00    +0.000 C 
BRANCH  15  17
ATOM     16  C   UNL     1       9.507  10.931  18.298  0.00  0.00    +0.000 C 
ATOM     17  C   UNL     1       8.879   9.654  18.817  0.00  0.00    +0.000 C 
ENDBRANCH  15  17
ENDBRANCH  14  15
ENDBRANCH  13  14
ENDBRANCH  12  13
ENDBRANCH  11  12
ENDBRANCH  10  11
ENDBRANCH   9  10
ENDBRANCH   8   9
ENDBRANCH   7   8
ENDBRANCH   1   7
BRANCH   4  18
ATOM     18  O   UNL     1       1.757   8.402  20.792  0.00  0.00    +0.000 OA
BRANCH  18  19
ATOM     19  C   UNL     1       0.815   8.314  21.855  0.00  0.00    +0.000 C 
BRANCH  19  20
ATOM     20  C   UNL     1       0.243   9.707  22.130  0.00  0.00    +0.000 C 
ATOM     21  O   UNL     1       0.370  10.283  23.190  0.00  0.00    +0.000 OA
BRANCH  20  22
ATOM     22  C   UNL     1      -0.572  10.334  20.989  0.00  0.00    +0.000 C 
BRANCH  22  23
ATOM     23  O   UNL     1       0.017  11.521  20.460  0.00  0.00    +0.000 OA
BRANCH  23  24
ATOM     24  C   UNL     1      -0.961  12.542  20.246  0.00  0.00    +0.000 C 
BRANCH  24  25
ATOM     25  C   UNL     1      -2.043  11.996  19.329  0.00  0.00    +0.000 C 
BRANCH  25  26
ATOM     26  C   UNL     1      -1.507  11.733  17.926  0.00  0.00    +0.000 C 
BRANCH  26  27
ATOM     27  C   UNL     1      -2.638  11.456  16.973  0.00  0.00    +0.000 C 
ATOM     28  O   UNL     1      -2.521  10.801  15.945  0.00  0.00    +0.000 OA
BRANCH  27  29
ATOM     29  O   UNL     1      -3.812  11.967  17.381  0.00  0.00    +0.000 OA
ATOM     30  H   UNL     1      -4.051  11.762  18.305  0.00  0.00    +0.000 HD
ENDBRANCH  27  29
ENDBRANCH  26  27
ENDBRANCH  25  26
ENDBRANCH  24  25
ENDBRANCH  23  24
ENDBRANCH  22  23
ENDBRANCH  20  22
ENDBRANCH  19  20
ENDBRANCH  18  19
ENDBRANCH   4  18
TORSDOF 20
ENDMDL
MODEL 5
REMARK VINA RESULT:      -5.7      6.511     10.539
REMARK  Name = 
REMARK  21 active torsions:
REMARK  status: ('A' for Active; 'I' for Inactive)
REMARK    1  A    between atoms: C_1  and  C_2
REMARK    2  A    between atoms: C_2  and  C_3
REMARK    3  A    between atoms: C_3  and  C_4
REMARK    4  A    between atoms: C_4  and  C_5
REMARK    5  A    between atoms: C_5  and  C_6
REMARK    6  A    between atoms: C_6  and  C_7
REMARK    7  A    between atoms: C_7  and  C_8
REMARK    8  A    between atoms: C_8  and  C_9
REMARK    9  A    between atoms: C_9  and  C_10
REMARK   10  A    between atoms: C_10  and  O_11
REMARK   11  A    between atoms: O_11  and  C_12
REMARK   12  A    between atoms: C_15  and  O_16
REMARK   13  A    between atoms: O_16  and  C_17
REMARK   14  A    between atoms: C_17  and  C_18
REMARK   15  A    between atoms: C_18  and  C_20
REMARK   16  A    between atoms: C_20  and  O_21
REMARK   17  A    between atoms: O_21  and  C_22
REMARK   18  A    between atoms: C_22  and  C_23
REMARK   19  A    between atoms: C_23  and  C_24
REMARK   20  A    between atoms: C_24  and  C_25
REMARK   21  A    between atoms: C_25  and  O_27
REMARK                            x       y       z     vdW  Elec       q    Type
REMARK                         _______ _______ _______ _____ _____    ______ ____
ROOT
ATOM      1  C   UNL     1       2.274   7.170  19.529  0.00  0.00    +0.000 A 
ATOM      2  C   UNL     1       1.606   7.938  20.473  0.00  0.00    +0.000 A 
ATOM      3  C   UNL     1       1.000   9.132  20.128  0.00  0.00    +0.000 A 
ATOM      4  C   UNL     1       1.147   9.653  18.839  0.00  0.00    +0.000 A 
ATOM      5  C   UNL     1       1.825   8.901  17.883  0.00  0.00    +0.000 A 
ATOM      6  C   UNL     1       2.389   7.658  18.222  0.00  0.00    +0.000 A 
ENDROOT
BRANCH   1   7
ATOM      7  O   UNL     1       2.779   5.938  19.868  0.00  0.00    +0.000 OA
BRANCH   7   8
ATOM      8  C   UNL     1       2.006   5.265  20.884  0.00  0.00    +0.000 C 
BRANCH   8   9
ATOM      9  C   UNL     1       1.063   4.277  20.228  0.00  0.00    +0.000 C 
BRANCH   9  10
ATOM     10  C   UNL     1       1.779   2.973  19.911  0.00  0.00    +0.000 C 
BRANCH  10  11
ATOM     11  C   UNL     1       1.459   2.522  18.494  0.00  0.00    +0.000 C 
BRANCH  11  12
ATOM     12  C   UNL     1       2.737   2.152  17.756  0.00  0.00    +0.000 C 
BRANCH  12  13
ATOM     13  C   UNL     1       3.845   3.135  18.096  0.00  0.00    +0.000 C 
BRANCH  13  14
ATOM     14  C   UNL     1       3.954   4.198  17.015  0.00  0.00    +0.000 C 
BRANCH  14  15
ATOM     15  C   UNL     1       5.185   3.951  16.157  0.00  0.00    +0.000 C 
BRANCH  15  17
ATOM     16  C   UNL     1       5.142   6.445  16.171  0.00  0.00    +0.000 C 
ATOM     17  C   UNL     1       5.569   5.214  15.397  0.00  0.00    +0.000 C 
ENDBRANCH  15  17
ENDBRANCH  14  15
ENDBRANCH  13  14
ENDBRANCH  12  13
ENDBRANCH  11  12
ENDBRANCH  10  11
ENDBRANCH   9  10
ENDBRANCH   8   9
ENDBRANCH   7   8
ENDBRANCH   1   7
BRANCH   4  18
ATOM     18  O   UNL     1       0.572  10.875  18.633  0.00  0.00    +0.000 OA
BRANCH  18  19
ATOM     19  C   UNL     1      -0.560  11.200  19.431  0.00  0.00    +0.000 C 
BRANCH  19  20
ATOM     20  C   UNL     1      -0.440  12.655  19.895  0.00  0.00    +0.000 C 
ATOM     21  O   UNL     1      -0.877  13.594  19.264  0.00  0.00    +0.000 OA
BRANCH  20  22
ATOM     22  C   UNL     1       0.331  12.880  21.204  0.00  0.00    +0.000 C 
BRANCH  22  23
ATOM     23  O   UNL     1      -0.116  12.049  22.274  0.00  0.00    +0.000 OA
BRANCH  23  24
ATOM     24  C   UNL     1      -1.443  12.391  22.683  0.00  0.00    +0.000 C 
BRANCH  24  25
ATOM     25  C   UNL     1      -1.386  13.668  23.506  0.00  0.00    +0.000 C 
BRANCH  25  26
ATOM     26  C   UNL     1      -2.775  14.258  23.720  0.00  0.00    +0.000 C 
BRANCH  26  27
ATOM     27  C   UNL     1      -2.821  15.048  25.000  0.00  0.00    +0.000 C 
ATOM     28  O   UNL     1      -1.872  15.168  25.763  0.00  0.00    +0.000 OA
BRANCH  27  29
ATOM     29  O   UNL     1      -4.005  15.648  25.209  0.00  0.00    +0.000 OA
ATOM     30  H   UNL     1      -3.999  16.619  25.102  0.00  0.00    +0.000 HD
ENDBRANCH  27  29
ENDBRANCH  26  27
ENDBRANCH  25  26
ENDBRANCH  24  25
ENDBRANCH  23  24
ENDBRANCH  22  23
ENDBRANCH  20  22
ENDBRANCH  19  20
ENDBRANCH  18  19
ENDBRANCH   4  18
TORSDOF 20
ENDMDL
MODEL 6
REMARK VINA RESULT:      -5.7      5.605      8.153
REMARK  Name = 
REMARK  21 active torsions:
REMARK  status: ('A' for Active; 'I' for Inactive)
REMARK    1  A    between atoms: C_1  and  C_2
REMARK    2  A    between atoms: C_2  and  C_3
REMARK    3  A    between atoms: C_3  and  C_4
REMARK    4  A    between atoms: C_4  and  C_5
REMARK    5  A    between atoms: C_5  and  C_6
REMARK    6  A    between atoms: C_6  and  C_7
REMARK    7  A    between atoms: C_7  and  C_8
REMARK    8  A    between atoms: C_8  and  C_9
REMARK    9  A    between atoms: C_9  and  C_10
REMARK   10  A    between atoms: C_10  and  O_11
REMARK   11  A    between atoms: O_11  and  C_12
REMARK   12  A    between atoms: C_15  and  O_16
REMARK   13  A    between atoms: O_16  and  C_17
REMARK   14  A    between atoms: C_17  and  C_18
REMARK   15  A    between atoms: C_18  and  C_20
REMARK   16  A    between atoms: C_20  and  O_21
REMARK   17  A    between atoms: O_21  and  C_22
REMARK   18  A    between atoms: C_22  and  C_23
REMARK   19  A    between atoms: C_23  and  C_24
REMARK   20  A    between atoms: C_24  and  C_25
REMARK   21  A    between atoms: C_25  and  O_27
REMARK                            x       y       z     vdW  Elec       q    Type
REMARK                         _______ _______ _______ _____ _____    ______ ____
ROOT
ATOM      1  C   UNL     1       1.242   8.796  19.677  0.00  0.00    +0.000 A 
ATOM      2  C   UNL     1       1.668   9.177  18.411  0.00  0.00    +0.000 A 
ATOM      3  C   UNL     1       2.569   8.409  17.697  0.00  0.00    +0.000 A 
ATOM      4  C   UNL     1       3.163   7.287  18.282  0.00  0.00    +0.000 A 
ATOM      5  C   UNL     1       2.755   6.899  19.556  0.00  0.00    +0.000 A 
ATOM      6  C   UNL     1       1.794   7.648  20.257  0.00  0.00    +0.000 A 
ENDROOT
BRANCH   1   7
ATOM      7  O   UNL     1       0.269   9.516  20.328  0.00  0.00    +0.000 OA
BRANCH   7   8
ATOM      8  C   UNL     1       0.792  10.622  21.093  0.00  0.00    +0.000 C 
BRANCH   8   9
ATOM      9  C   UNL     1       0.326  11.925  20.477  0.00  0.00    +0.000 C 
BRANCH   9  10
ATOM     10  C   UNL     1      -1.080  12.271  20.944  0.00  0.00    +0.000 C 
BRANCH  10  11
ATOM     11  C   UNL     1      -1.830  13.025  19.855  0.00  0.00    +0.000 C 
BRANCH  11  12
ATOM     12  C   UNL     1      -3.052  12.235  19.412  0.00  0.00    +0.000 C 
BRANCH  12  13
ATOM     13  C   UNL     1      -2.667  11.223  18.346  0.00  0.00    +0.000 C 
BRANCH  13  14
ATOM     14  C   UNL     1      -3.911  10.569  17.767  0.00  0.00    +0.000 C 
BRANCH  14  15
ATOM     15  C   UNL     1      -4.117  11.012  16.328  0.00  0.00    +0.000 C 
BRANCH  15  17
ATOM     16  C   UNL     1      -3.278  10.107  14.160  0.00  0.00    +0.000 C 
ATOM     17  C   UNL     1      -2.880  10.708  15.493  0.00  0.00    +0.000 C 
ENDBRANCH  15  17
ENDBRANCH  14  15
ENDBRANCH  13  14
ENDBRANCH  12  13
ENDBRANCH  11  12
ENDBRANCH  10  11
ENDBRANCH   9  10
ENDBRANCH   8   9
ENDBRANCH   7   8
ENDBRANCH   1   7
BRANCH   4  18
ATOM     18  O   UNL     1       4.094   6.650  17.513  0.00  0.00    +0.000 OA
BRANCH  18  19
ATOM     19  C   UNL     1       3.991   5.235  17.412  0.00  0.00    +0.000 C 
BRANCH  19  20
ATOM     20  C   UNL     1       5.155   4.595  18.174  0.00  0.00    +0.000 C 
ATOM     21  O   UNL     1       6.320   4.851  17.950  0.00  0.00    +0.000 OA
BRANCH  20  22
ATOM     22  C   UNL     1       4.771   3.541  19.222  0.00  0.00    +0.000 C 
BRANCH  22  23
ATOM     23  O   UNL     1       3.474   3.746  19.781  0.00  0.00    +0.000 OA
BRANCH  23  24
ATOM     24  C   UNL     1       3.167   2.760  20.770  0.00  0.00    +0.000 C 
BRANCH  24  25
ATOM     25  C   UNL     1       1.686   2.846  21.101  0.00  0.00    +0.000 C 
BRANCH  25  26
ATOM     26  C   UNL     1       0.940   3.729  20.107  0.00  0.00    +0.000 C 
BRANCH  26  27
ATOM     27  C   UNL     1       0.723   2.997  18.811  0.00  0.00    +0.000 C 
ATOM     28  O   UNL     1       0.170   1.908  18.725  0.00  0.00    +0.000 OA
BRANCH  27  29
ATOM     29  O   UNL     1       1.163   3.677  17.738  0.00  0.00    +0.000 OA
ATOM     30  H   UNL     1       0.765   4.561  17.620  0.00  0.00    +0.000 HD
ENDBRANCH  27  29
ENDBRANCH  26  27
ENDBRANCH  25  26
ENDBRANCH  24  25
ENDBRANCH  23  24
ENDBRANCH  22  23
ENDBRANCH  20  22
ENDBRANCH  19  20
ENDBRANCH  18  19
ENDBRANCH   4  18
TORSDOF 20
ENDMDL
MODEL 7
REMARK VINA RESULT:      -5.7      1.704      2.288
REMARK  Name = 
REMARK  21 active torsions:
REMARK  status: ('A' for Active; 'I' for Inactive)
REMARK    1  A    between atoms: C_1  and  C_2
REMARK    2  A    between atoms: C_2  and  C_3
REMARK    3  A    between atoms: C_3  and  C_4
REMARK    4  A    between atoms: C_4  and  C_5
REMARK    5  A    between atoms: C_5  and  C_6
REMARK    6  A    between atoms: C_6  and  C_7
REMARK    7  A    between atoms: C_7  and  C_8
REMARK    8  A    between atoms: C_8  and  C_9
REMARK    9  A    between atoms: C_9  and  C_10
REMARK   10  A    between atoms: C_10  and  O_11
REMARK   11  A    between atoms: O_11  and  C_12
REMARK   12  A    between atoms: C_15  and  O_16
REMARK   13  A    between atoms: O_16  and  C_17
REMARK   14  A    between atoms: C_17  and  C_18
REMARK   15  A    between atoms: C_18  and  C_20
REMARK   16  A    between atoms: C_20  and  O_21
REMARK   17  A    between atoms: O_21  and  C_22
REMARK   18  A    between atoms: C_22  and  C_23
REMARK   19  A    between atoms: C_23  and  C_24
REMARK   20  A    between atoms: C_24  and  C_25
REMARK   21  A    between atoms: C_25  and  O_27
REMARK                            x       y       z     vdW  Elec       q    Type
REMARK                         _______ _______ _______ _____ _____    ______ ____
ROOT
ATOM      1  C   UNL     1       7.306   6.528  18.057  0.00  0.00    +0.000 A 
ATOM      2  C   UNL     1       7.549   5.164  18.138  0.00  0.00    +0.000 A 
ATOM      3  C   UNL     1       6.673   4.246  17.588  0.00  0.00    +0.000 A 
ATOM      4  C   UNL     1       5.460   4.668  17.037  0.00  0.00    +0.000 A 
ATOM      5  C   UNL     1       5.196   6.033  16.958  0.00  0.00    +0.000 A 
ATOM      6  C   UNL     1       6.116   6.968  17.464  0.00  0.00    +0.000 A 
ENDROOT
BRANCH   1   7
ATOM      7  O   UNL     1       8.238   7.428  18.517  0.00  0.00    +0.000 OA
BRANCH   7   8
ATOM      8  C   UNL     1       8.108   8.737  17.923  0.00  0.00    +0.000 C 
BRANCH   8   9
ATOM      9  C   UNL     1       8.806   9.758  18.798  0.00  0.00    +0.000 C 
BRANCH   9  10
ATOM     10  C   UNL     1       9.403  10.875  17.954  0.00  0.00    +0.000 C 
BRANCH  10  11
ATOM     11  C   UNL     1      10.493  11.600  18.729  0.00  0.00    +0.000 C 
BRANCH  11  12
ATOM     12  C   UNL     1      10.316  11.378  20.224  0.00  0.00    +0.000 C 
BRANCH  12  13
ATOM     13  C   UNL     1      10.273  12.711  20.952  0.00  0.00    +0.000 C 
BRANCH  13  14
ATOM     14  C   UNL     1       8.873  13.300  20.890  0.00  0.00    +0.000 C 
BRANCH  14  15
ATOM     15  C   UNL     1       8.416  13.717  22.279  0.00  0.00    +0.000 C 
BRANCH  15  17
ATOM     16  C   UNL     1       7.410  11.695  23.337  0.00  0.00    +0.000 C 
ATOM     17  C   UNL     1       8.634  12.586  23.275  0.00  0.00    +0.000 C 
ENDBRANCH  15  17
ENDBRANCH  14  15
ENDBRANCH  13  14
ENDBRANCH  12  13
ENDBRANCH  11  12
ENDBRANCH  10  11
ENDBRANCH   9  10
ENDBRANCH   8   9
ENDBRANCH   7   8
ENDBRANCH   1   7
BRANCH   4  18
ATOM     18  O   UNL     1       4.640   3.670  16.594  0.00  0.00    +0.000 OA
BRANCH  18  19
ATOM     19  C   UNL     1       3.431   3.458  17.314  0.00  0.00    +0.000 C 
BRANCH  19  20
ATOM     20  C   UNL     1       3.628   2.293  18.287  0.00  0.00    +0.000 C 
ATOM     21  O   UNL     1       3.898   1.165  17.931  0.00  0.00    +0.000 OA
BRANCH  20  22
ATOM     22  C   UNL     1       3.405   2.614  19.772  0.00  0.00    +0.000 C 
BRANCH  22  23
ATOM     23  O   UNL     1       2.065   2.385  20.204  0.00  0.00    +0.000 OA
BRANCH  23  24
ATOM     24  C   UNL     1       1.651   3.356  21.169  0.00  0.00    +0.000 C 
BRANCH  24  25
ATOM     25  C   UNL     1       1.099   4.568  20.436  0.00  0.00    +0.000 C 
BRANCH  25  26
ATOM     26  C   UNL     1       1.985   5.792  20.632  0.00  0.00    +0.000 C 
BRANCH  26  27
ATOM     27  C   UNL     1       2.201   6.503  19.324  0.00  0.00    +0.000 C 
ATOM     28  O   UNL     1       2.660   7.633  19.227  0.00  0.00    +0.000 OA
BRANCH  27  29
ATOM     29  O   UNL     1       1.875   5.755  18.256  0.00  0.00    +0.000 OA
ATOM     30  H   UNL     1       2.515   5.790  17.519  0.00  0.00    +0.000 HD
ENDBRANCH  27  29
ENDBRANCH  26  27
ENDBRANCH  25  26
ENDBRANCH  24  25
ENDBRANCH  23  24
ENDBRANCH  22  23
ENDBRANCH  20  22
ENDBRANCH  19  20
ENDBRANCH  18  19
ENDBRANCH   4  18
TORSDOF 20
ENDMDL
MODEL 8
REMARK VINA RESULT:      -5.7      6.240     10.170
REMARK  Name = 
REMARK  21 active torsions:
REMARK  status: ('A' for Active; 'I' for Inactive)
REMARK    1  A    between atoms: C_1  and  C_2
REMARK    2  A    between atoms: C_2  and  C_3
REMARK    3  A    between atoms: C_3  and  C_4
REMARK    4  A    between atoms: C_4  and  C_5
REMARK    5  A    between atoms: C_5  and  C_6
REMARK    6  A    between atoms: C_6  and  C_7
REMARK    7  A    between atoms: C_7  and  C_8
REMARK    8  A    between atoms: C_8  and  C_9
REMARK    9  A    between atoms: C_9  and  C_10
REMARK   10  A    between atoms: C_10  and  O_11
REMARK   11  A    between atoms: O_11  and  C_12
REMARK   12  A    between atoms: C_15  and  O_16
REMARK   13  A    between atoms: O_16  and  C_17
REMARK   14  A    between atoms: C_17  and  C_18
REMARK   15  A    between atoms: C_18  and  C_20
REMARK   16  A    between atoms: C_20  and  O_21
REMARK   17  A    between atoms: O_21  and  C_22
REMARK   18  A    between atoms: C_22  and  C_23
REMARK   19  A    between atoms: C_23  and  C_24
REMARK   20  A    between atoms: C_24  and  C_25
REMARK   21  A    between atoms: C_25  and  O_27
REMARK                            x       y       z     vdW  Elec       q    Type
REMARK                         _______ _______ _______ _____ _____    ______ ____
ROOT
ATOM      1  C   UNL     1       2.017   7.906  19.419  0.00  0.00    +0.000 A 
ATOM      2  C   UNL     1       1.863   8.851  18.414  0.00  0.00    +0.000 A 
ATOM      3  C   UNL     1       1.179  10.032  18.638  0.00  0.00    +0.000 A 
ATOM      4  C   UNL     1       0.525  10.250  19.854  0.00  0.00    +0.000 A 
ATOM      5  C   UNL     1       0.660   9.307  20.869  0.00  0.00    +0.000 A 
ATOM      6  C   UNL     1       1.407   8.134  20.659  0.00  0.00    +0.000 A 
ENDROOT
BRANCH   1   7
ATOM      7  O   UNL     1       2.789   6.788  19.209  0.00  0.00    +0.000 OA
BRANCH   7   8
ATOM      8  C   UNL     1       3.189   6.622  17.832  0.00  0.00    +0.000 C 
BRANCH   8   9
ATOM      9  C   UNL     1       4.685   6.395  17.767  0.00  0.00    +0.000 C 
BRANCH   9  10
ATOM     10  C   UNL     1       4.999   4.984  17.292  0.00  0.00    +0.000 C 
BRANCH  10  11
ATOM     11  C   UNL     1       4.214   3.965  18.104  0.00  0.00    +0.000 C 
BRANCH  11  12
ATOM     12  C   UNL     1       3.482   3.003  17.180  0.00  0.00    +0.000 C 
BRANCH  12  13
ATOM     13  C   UNL     1       2.286   2.396  17.893  0.00  0.00    +0.000 C 
BRANCH  13  14
ATOM     14  C   UNL     1       1.416   3.492  18.487  0.00  0.00    +0.000 C 
BRANCH  14  15
ATOM     15  C   UNL     1       0.640   2.959  19.681  0.00  0.00    +0.000 C 
BRANCH  15  17
ATOM     16  C   UNL     1       2.159   4.059  21.325  0.00  0.00    +0.000 C 
ATOM     17  C   UNL     1       1.569   2.740  20.867  0.00  0.00    +0.000 C 
ENDBRANCH  15  17
ENDBRANCH  14  15
ENDBRANCH  13  14
ENDBRANCH  12  13
ENDBRANCH  11  12
ENDBRANCH  10  11
ENDBRANCH   9  10
ENDBRANCH   8   9
ENDBRANCH   7   8
ENDBRANCH   1   7
BRANCH   4  18
ATOM     18  O   UNL     1      -0.183  11.415  19.936  0.00  0.00    +0.000 OA
BRANCH  18  19
ATOM     19  C   UNL     1      -0.533  11.869  21.238  0.00  0.00    +0.000 C 
BRANCH  19  20
ATOM     20  C   UNL     1      -2.015  12.255  21.249  0.00  0.00    +0.000 C 
ATOM     21  O   UNL     1      -2.678  12.328  22.263  0.00  0.00    +0.000 OA
BRANCH  20  22
ATOM     22  C   UNL     1      -2.655  12.496  19.875  0.00  0.00    +0.000 C 
BRANCH  22  23
ATOM     23  O   UNL     1      -4.051  12.782  19.943  0.00  0.00    +0.000 OA
BRANCH  23  24
ATOM     24  C   UNL     1      -4.817  11.843  19.184  0.00  0.00    +0.000 C 
BRANCH  24  25
ATOM     25  C   UNL     1      -4.335  11.874  17.742  0.00  0.00    +0.000 C 
BRANCH  25  26
ATOM     26  C   UNL     1      -3.896  10.493  17.270  0.00  0.00    +0.000 C 
BRANCH  26  27
ATOM     27  C   UNL     1      -2.459  10.520  16.825  0.00  0.00    +0.000 C 
ATOM     28  O   UNL     1      -1.702   9.561  16.899  0.00  0.00    +0.000 OA
BRANCH  27  29
ATOM     29  O   UNL     1      -2.091  11.699  16.297  0.00  0.00    +0.000 OA
ATOM     30  H   UNL     1      -1.561  11.636  15.479  0.00  0.00    +0.000 HD
ENDBRANCH  27  29
ENDBRANCH  26  27
ENDBRANCH  25  26
ENDBRANCH  24  25
ENDBRANCH  23  24
ENDBRANCH  22  23
ENDBRANCH  20  22
ENDBRANCH  19  20
ENDBRANCH  18  19
ENDBRANCH   4  18
TORSDOF 20
ENDMDL
MODEL 9
REMARK VINA RESULT:      -5.6      5.871      9.221
REMARK  Name = 
REMARK  21 active torsions:
REMARK  status: ('A' for Active; 'I' for Inactive)
REMARK    1  A    between atoms: C_1  and  C_2
REMARK    2  A    between atoms: C_2  and  C_3
REMARK    3  A    between atoms: C_3  and  C_4
REMARK    4  A    between atoms: C_4  and  C_5
REMARK    5  A    between atoms: C_5  and  C_6
REMARK    6  A    between atoms: C_6  and  C_7
REMARK    7  A    between atoms: C_7  and  C_8
REMARK    8  A    between atoms: C_8  and  C_9
REMARK    9  A    between atoms: C_9  and  C_10
REMARK   10  A    between atoms: C_10  and  O_11
REMARK   11  A    between atoms: O_11  and  C_12
REMARK   12  A    between atoms: C_15  and  O_16
REMARK   13  A    between atoms: O_16  and  C_17
REMARK   14  A    between atoms: C_17  and  C_18
REMARK   15  A    between atoms: C_18  and  C_20
REMARK   16  A    between atoms: C_20  and  O_21
REMARK   17  A    between atoms: O_21  and  C_22
REMARK   18  A    between atoms: C_22  and  C_23
REMARK   19  A    between atoms: C_23  and  C_24
REMARK   20  A    between atoms: C_24  and  C_25
REMARK   21  A    between atoms: C_25  and  O_27
REMARK                            x       y       z     vdW  Elec       q    Type
REMARK                         _______ _______ _______ _____ _____    ______ ____
ROOT
ATOM      1  C   UNL     1       3.357   5.296  18.673  0.00  0.00    +0.000 A 
ATOM      2  C   UNL     1       2.696   5.385  19.891  0.00  0.00    +0.000 A 
ATOM      3  C   UNL     1       2.033   6.540  20.264  0.00  0.00    +0.000 A 
ATOM      4  C   UNL     1       2.110   7.688  19.470  0.00  0.00    +0.000 A 
ATOM      5  C   UNL     1       2.779   7.619  18.251  0.00  0.00    +0.000 A 
ATOM      6  C   UNL     1       3.402   6.425  17.846  0.00  0.00    +0.000 A 
ENDROOT
BRANCH   1   7
ATOM      7  O   UNL     1       3.921   4.108  18.274  0.00  0.00    +0.000 OA
BRANCH   7   8
ATOM      8  C   UNL     1       5.107   3.761  19.019  0.00  0.00    +0.000 C 
BRANCH   8   9
ATOM      9  C   UNL     1       5.869   5.023  19.368  0.00  0.00    +0.000 C 
BRANCH   9  10
ATOM     10  C   UNL     1       7.140   5.136  18.538  0.00  0.00    +0.000 C 
BRANCH  10  11
ATOM     11  C   UNL     1       7.079   6.361  17.638  0.00  0.00    +0.000 C 
BRANCH  11  12
ATOM     12  C   UNL     1       6.913   5.941  16.185  0.00  0.00    +0.000 C 
BRANCH  12  13
ATOM     13  C   UNL     1       7.181   4.453  16.034  0.00  0.00    +0.000 C 
BRANCH  13  14
ATOM     14  C   UNL     1       5.997   3.771  15.367  0.00  0.00    +0.000 C 
BRANCH  14  15
ATOM     15  C   UNL     1       5.685   4.439  14.037  0.00  0.00    +0.000 C 
BRANCH  15  17
ATOM     16  C   UNL     1       4.997   3.268  11.945  0.00  0.00    +0.000 C 
ATOM     17  C   UNL     1       6.153   3.567  12.879  0.00  0.00    +0.000 C 
ENDBRANCH  15  17
ENDBRANCH  14  15
ENDBRANCH  13  14
ENDBRANCH  12  13
ENDBRANCH  11  12
ENDBRANCH  10  11
ENDBRANCH   9  10
ENDBRANCH   8   9
ENDBRANCH   7   8
ENDBRANCH   1   7
BRANCH   4  18
ATOM     18  O   UNL     1       1.482   8.791  19.974  0.00  0.00    +0.000 OA
BRANCH  18  19
ATOM     19  C   UNL     1       0.587   8.586  21.061  0.00  0.00    +0.000 C 
BRANCH  19  20
ATOM     20  C   UNL     1       0.638   9.805  21.986  0.00  0.00    +0.000 C 
ATOM     21  O   UNL     1       1.271  10.808  21.732  0.00  0.00    +0.000 OA
BRANCH  20  22
ATOM     22  C   UNL     1      -0.121   9.672  23.314  0.00  0.00    +0.000 C 
BRANCH  22  23
ATOM     23  O   UNL     1      -1.360  10.379  23.330  0.00  0.00    +0.000 OA
BRANCH  23  24
ATOM     24  C   UNL     1      -1.351  11.474  22.411  0.00  0.00    +0.000 C 
BRANCH  24  25
ATOM     25  C   UNL     1      -2.033  12.665  23.064  0.00  0.00    +0.000 C 
BRANCH  25  26
ATOM     26  C   UNL     1      -3.542  12.467  23.152  0.00  0.00    +0.000 C 
BRANCH  26  27
ATOM     27  C   UNL     1      -4.108  13.232  24.317  0.00  0.00    +0.000 C 
ATOM     28  O   UNL     1      -4.396  14.421  24.279  0.00  0.00    +0.000 OA
BRANCH  27  29
ATOM     29  O   UNL     1      -4.306  12.470  25.406  0.00  0.00    +0.000 OA
ATOM     30  H   UNL     1      -3.550  11.904  25.655  0.00  0.00    +0.000 HD
ENDBRANCH  27  29
ENDBRANCH  26  27
ENDBRANCH  25  26
ENDBRANCH  24  25
ENDBRANCH  23  24
ENDBRANCH  22  23
ENDBRANCH  20  22
ENDBRANCH  19  20
ENDBRANCH  18  19
ENDBRANCH   4  18
TORSDOF 20
ENDMDL
