MODEL 1
REMARK VINA RESULT:      -8.2      0.000      0.000
REMARK  Name = 
REMARK  5 active torsions:
REMARK  status: ('A' for Active; 'I' for Inactive)
REMARK    1  A    between atoms: N_7  and  C_8
REMARK    2  A    between atoms: C_8  and  C_9
REMARK    3  A    between atoms: C_9  and  O_10
REMARK    4  A    between atoms: C_9  and  C_11
REMARK    5  A    between atoms: C_11  and  N_12
REMARK                            x       y       z     vdW  Elec       q    Type
REMARK                         _______ _______ _______ _____ _____    ______ ____
ROOT
ATOM      1  N   UNL     1       3.336   5.531  17.877  0.00  0.00    +0.000 N 
ATOM      2  C   UNL     1       3.143   4.560  18.846  0.00  0.00    +0.000 A 
ATOM      3  C   UNL     1       3.488   3.196  18.873  0.00  0.00    +0.000 A 
ATOM      4  C   UNL     1       3.161   2.457  20.012  0.00  0.00    +0.000 A 
ATOM      5  C   UNL     1       2.510   3.059  21.078  0.00  0.00    +0.000 A 
ATOM      6  F   UNL     1       2.208   2.327  22.159  0.00  0.00    +0.000 F 
ATOM      7  C   UNL     1       2.158   4.406  21.049  0.00  0.00    +0.000 A 
ATOM      8  C   UNL     1       2.480   5.173  19.910  0.00  0.00    +0.000 A 
ATOM      9  C   UNL     1       2.262   6.539  19.556  0.00  0.00    +0.000 A 
ATOM     10  C   UNL     1       1.614   7.609  20.211  0.00  0.00    +0.000 A 
ATOM     11  C   UNL     1       1.567   8.852  19.582  0.00  0.00    +0.000 A 
ATOM     12  F   UNL     1       0.925   9.860  20.189  0.00  0.00    +0.000 F 
ATOM     13  C   UNL     1       2.166   9.064  18.354  0.00  0.00    +0.000 A 
ATOM     14  C   UNL     1       2.831   8.024  17.693  0.00  0.00    +0.000 A 
ATOM     15  C   UNL     1       2.843   6.752  18.302  0.00  0.00    +0.000 A 
ENDROOT
BRANCH   1  16
ATOM     16  C   UNL     1       3.960   5.275  16.590  0.00  0.00    +0.000 C 
BRANCH  16  17
ATOM     17  C   UNL     1       5.168   6.165  16.286  0.00  0.00    +0.000 C 
BRANCH  17  18
ATOM     18  O   UNL     1       4.840   6.973  15.141  0.00  0.00    +0.000 OA
ATOM     19  H   UNL     1       4.102   7.562  15.384  0.00  0.00    +0.000 HD
ENDBRANCH  17  18
BRANCH  17  20
ATOM     20  C   UNL     1       6.492   5.400  16.054  0.00  0.00    +0.000 C 
BRANCH  20  27
ATOM     21  O   UNL     1       6.489   4.528  18.877  0.00  0.00    +0.000 OA
ATOM     22  S   UNL     1       7.782   4.904  18.361  0.00  0.00    +0.000 S 
ATOM     23  O   UNL     1       8.836   3.968  18.099  0.00  0.00    +0.000 OA
ATOM     24  N   UNL     1       8.386   6.139  19.341  0.00  0.00    +0.000 NA
ATOM     25  C   UNL     1       8.263   7.450  18.674  0.00  0.00    +0.000 C 
ATOM     26  C   UNL     1       7.341   7.274  17.467  0.00  0.00    +0.000 C 
ATOM     27  N   UNL     1       7.553   5.884  16.990  0.00  0.00    +0.000 NA
ATOM     28  H   UNL     1       9.334   5.902  19.637  0.00  0.00    +0.000 HD
ENDBRANCH  20  27
ENDBRANCH  17  20
ENDBRANCH  16  17
ENDBRANCH   1  16
TORSDOF 5
ENDMDL
MODEL 2
REMARK VINA RESULT:      -8.0      4.238      6.714
REMARK  Name = 
REMARK  5 active torsions:
REMARK  status: ('A' for Active; 'I' for Inactive)
REMARK    1  A    between atoms: N_7  and  C_8
REMARK    2  A    between atoms: C_8  and  C_9
REMARK    3  A    between atoms: C_9  and  O_10
REMARK    4  A    between atoms: C_9  and  C_11
REMARK    5  A    between atoms: C_11  and  N_12
REMARK                            x       y       z     vdW  Elec       q    Type
REMARK                         _______ _______ _______ _____ _____    ______ ____
ROOT
ATOM      1  N   UNL     1       3.390   6.599  18.256  0.00  0.00    +0.000 N 
ATOM      2  C   UNL     1       4.132   6.008  17.246  0.00  0.00    +0.000 A 
ATOM      3  C   UNL     1       4.931   6.569  16.232  0.00  0.00    +0.000 A 
ATOM      4  C   UNL     1       5.573   5.702  15.345  0.00  0.00    +0.000 A 
ATOM      5  C   UNL     1       5.415   4.330  15.465  0.00  0.00    +0.000 A 
ATOM      6  F   UNL     1       6.042   3.521  14.601  0.00  0.00    +0.000 F 
ATOM      7  C   UNL     1       4.617   3.773  16.461  0.00  0.00    +0.000 A 
ATOM      8  C   UNL     1       3.960   4.628  17.370  0.00  0.00    +0.000 A 
ATOM      9  C   UNL     1       3.084   4.398  18.472  0.00  0.00    +0.000 A 
ATOM     10  C   UNL     1       2.531   3.225  19.030  0.00  0.00    +0.000 A 
ATOM     11  C   UNL     1       1.684   3.338  20.132  0.00  0.00    +0.000 A 
ATOM     12  F   UNL     1       1.134   2.228  20.643  0.00  0.00    +0.000 F 
ATOM     13  C   UNL     1       1.402   4.566  20.703  0.00  0.00    +0.000 A 
ATOM     14  C   UNL     1       1.953   5.742  20.180  0.00  0.00    +0.000 A 
ATOM     15  C   UNL     1       2.774   5.639  19.038  0.00  0.00    +0.000 A 
ENDROOT
BRANCH   1  16
ATOM     16  C   UNL     1       3.276   8.037  18.438  0.00  0.00    +0.000 C 
BRANCH  16  17
ATOM     17  C   UNL     1       1.875   8.596  18.176  0.00  0.00    +0.000 C 
BRANCH  17  18
ATOM     18  O   UNL     1       1.991   9.607  17.158  0.00  0.00    +0.000 OA
ATOM     19  H   UNL     1       1.397   9.370  16.423  0.00  0.00    +0.000 HD
ENDBRANCH  17  18
BRANCH  17  20
ATOM     20  C   UNL     1       1.160   9.158  19.426  0.00  0.00    +0.000 C 
BRANCH  20  27
ATOM     21  O   UNL     1       1.117  11.366  21.390  0.00  0.00    +0.000 OA
ATOM     22  S   UNL     1       0.973  11.776  20.015  0.00  0.00    +0.000 S 
ATOM     23  O   UNL     1       1.987  12.478  19.284  0.00  0.00    +0.000 OA
ATOM     24  N   UNL     1      -0.478  12.630  19.883  0.00  0.00    +0.000 NA
ATOM     25  C   UNL     1      -1.523  11.800  19.252  0.00  0.00    +0.000 C 
ATOM     26  C   UNL     1      -1.022  10.355  19.231  0.00  0.00    +0.000 C 
ATOM     27  N   UNL     1       0.455  10.437  19.102  0.00  0.00    +0.000 NA
ATOM     28  H   UNL     1      -0.304  13.520  19.414  0.00  0.00    +0.000 HD
ENDBRANCH  20  27
ENDBRANCH  17  20
ENDBRANCH  16  17
ENDBRANCH   1  16
TORSDOF 5
ENDMDL
MODEL 3
REMARK VINA RESULT:      -8.0      4.166      6.345
REMARK  Name = 
REMARK  5 active torsions:
REMARK  status: ('A' for Active; 'I' for Inactive)
REMARK    1  A    between atoms: N_7  and  C_8
REMARK    2  A    between atoms: C_8  and  C_9
REMARK    3  A    between atoms: C_9  and  O_10
REMARK    4  A    between atoms: C_9  and  C_11
REMARK    5  A    between atoms: C_11  and  N_12
REMARK                            x       y       z     vdW  Elec       q    Type
REMARK                         _______ _______ _______ _____ _____    ______ ____
ROOT
ATOM      1  N   UNL     1       3.091   6.192  18.462  0.00  0.00    +0.000 N 
ATOM      2  C   UNL     1       2.450   5.047  18.905  0.00  0.00    +0.000 A 
ATOM      3  C   UNL     1       1.491   4.854  19.918  0.00  0.00    +0.000 A 
ATOM      4  C   UNL     1       1.017   3.559  20.137  0.00  0.00    +0.000 A 
ATOM      5  C   UNL     1       1.487   2.500  19.376  0.00  0.00    +0.000 A 
ATOM      6  F   UNL     1       1.016   1.267  19.606  0.00  0.00    +0.000 F 
ATOM      7  C   UNL     1       2.443   2.686  18.380  0.00  0.00    +0.000 A 
ATOM      8  C   UNL     1       2.936   3.986  18.140  0.00  0.00    +0.000 A 
ATOM      9  C   UNL     1       3.900   4.514  17.229  0.00  0.00    +0.000 A 
ATOM     10  C   UNL     1       4.733   3.917  16.259  0.00  0.00    +0.000 A 
ATOM     11  C   UNL     1       5.590   4.727  15.516  0.00  0.00    +0.000 A 
ATOM     12  F   UNL     1       6.403   4.157  14.617  0.00  0.00    +0.000 F 
ATOM     13  C   UNL     1       5.616   6.100  15.688  0.00  0.00    +0.000 A 
ATOM     14  C   UNL     1       4.785   6.718  16.630  0.00  0.00    +0.000 A 
ATOM     15  C   UNL     1       3.949   5.900  17.417  0.00  0.00    +0.000 A 
ENDROOT
BRANCH   1  16
ATOM     16  C   UNL     1       2.885   7.509  19.042  0.00  0.00    +0.000 C 
BRANCH  16  17
ATOM     17  C   UNL     1       1.776   8.326  18.373  0.00  0.00    +0.000 C 
BRANCH  17  18
ATOM     18  O   UNL     1       2.370   9.068  17.293  0.00  0.00    +0.000 OA
ATOM     19  H   UNL     1       3.031   9.678  17.668  0.00  0.00    +0.000 HD
ENDBRANCH  17  18
BRANCH  17  20
ATOM     20  C   UNL     1       1.005   9.269  19.325  0.00  0.00    +0.000 C 
BRANCH  20  27
ATOM     21  O   UNL     1       1.428  11.967  20.454  0.00  0.00    +0.000 OA
ATOM     22  S   UNL     1       1.293  11.926  19.020  0.00  0.00    +0.000 S 
ATOM     23  O   UNL     1       2.376  12.163  18.112  0.00  0.00    +0.000 OA
ATOM     24  N   UNL     1       0.003  12.931  18.597  0.00  0.00    +0.000 NA
ATOM     25  C   UNL     1      -1.196  12.138  18.260  0.00  0.00    +0.000 C 
ATOM     26  C   UNL     1      -0.949  10.701  18.721  0.00  0.00    +0.000 C 
ATOM     27  N   UNL     1       0.514  10.476  18.591  0.00  0.00    +0.000 NA
ATOM     28  H   UNL     1       0.303  13.575  17.864  0.00  0.00    +0.000 HD
ENDBRANCH  20  27
ENDBRANCH  17  20
ENDBRANCH  16  17
ENDBRANCH   1  16
TORSDOF 5
ENDMDL
MODEL 4
REMARK VINA RESULT:      -7.9      4.567      7.192
REMARK  Name = 
REMARK  5 active torsions:
REMARK  status: ('A' for Active; 'I' for Inactive)
REMARK    1  A    between atoms: N_7  and  C_8
REMARK    2  A    between atoms: C_8  and  C_9
REMARK    3  A    between atoms: C_9  and  O_10
REMARK    4  A    between atoms: C_9  and  C_11
REMARK    5  A    between atoms: C_11  and  N_12
REMARK                            x       y       z     vdW  Elec       q    Type
REMARK                         _______ _______ _______ _____ _____    ______ ____
ROOT
ATOM      1  N   UNL     1       2.887   6.644  18.670  0.00  0.00    +0.000 N 
ATOM      2  C   UNL     1       3.751   6.325  17.636  0.00  0.00    +0.000 A 
ATOM      3  C   UNL     1       4.520   7.141  16.784  0.00  0.00    +0.000 A 
ATOM      4  C   UNL     1       5.316   6.520  15.820  0.00  0.00    +0.000 A 
ATOM      5  C   UNL     1       5.337   5.139  15.709  0.00  0.00    +0.000 A 
ATOM      6  F   UNL     1       6.110   4.568  14.775  0.00  0.00    +0.000 F 
ATOM      7  C   UNL     1       4.570   4.329  16.543  0.00  0.00    +0.000 A 
ATOM      8  C   UNL     1       3.759   4.933  17.527  0.00  0.00    +0.000 A 
ATOM      9  C   UNL     1       2.866   4.416  18.512  0.00  0.00    +0.000 A 
ATOM     10  C   UNL     1       2.446   3.108  18.835  0.00  0.00    +0.000 A 
ATOM     11  C   UNL     1       1.536   2.931  19.876  0.00  0.00    +0.000 A 
ATOM     12  F   UNL     1       1.113   1.693  20.163  0.00  0.00    +0.000 F 
ATOM     13  C   UNL     1       1.064   4.002  20.614  0.00  0.00    +0.000 A 
ATOM     14  C   UNL     1       1.480   5.308  20.324  0.00  0.00    +0.000 A 
ATOM     15  C   UNL     1       2.365   5.499  19.243  0.00  0.00    +0.000 A 
ENDROOT
BRANCH   1  16
ATOM     16  C   UNL     1       2.573   8.006  19.069  0.00  0.00    +0.000 C 
BRANCH  16  17
ATOM     17  C   UNL     1       1.470   8.668  18.239  0.00  0.00    +0.000 C 
BRANCH  17  18
ATOM     18  O   UNL     1       2.105   9.466  17.224  0.00  0.00    +0.000 OA
ATOM     19  H   UNL     1       3.057   9.257  17.222  0.00  0.00    +0.000 HD
ENDBRANCH  17  18
BRANCH  17  20
ATOM     20  C   UNL     1       0.468   9.518  19.056  0.00  0.00    +0.000 C 
BRANCH  20  27
ATOM     21  O   UNL     1      -1.110  11.723  20.228  0.00  0.00    +0.000 OA
ATOM     22  S   UNL     1      -0.630  11.967  18.891  0.00  0.00    +0.000 S 
ATOM     23  O   UNL     1       0.405  12.908  18.578  0.00  0.00    +0.000 OA
ATOM     24  N   UNL     1      -1.969  12.292  17.916  0.00  0.00    +0.000 NA
ATOM     25  C   UNL     1      -2.306  11.126  17.075  0.00  0.00    +0.000 C 
ATOM     26  C   UNL     1      -1.526   9.925  17.611  0.00  0.00    +0.000 C 
ATOM     27  N   UNL     1      -0.262  10.473  18.167  0.00  0.00    +0.000 NA
ATOM     28  H   UNL     1      -1.807  13.156  17.396  0.00  0.00    +0.000 HD
ENDBRANCH  20  27
ENDBRANCH  17  20
ENDBRANCH  16  17
ENDBRANCH   1  16
TORSDOF 5
ENDMDL
MODEL 5
REMARK VINA RESULT:      -7.9      4.038      6.004
REMARK  Name = 
REMARK  5 active torsions:
REMARK  status: ('A' for Active; 'I' for Inactive)
REMARK    1  A    between atoms: N_7  and  C_8
REMARK    2  A    between atoms: C_8  and  C_9
REMARK    3  A    between atoms: C_9  and  O_10
REMARK    4  A    between atoms: C_9  and  C_11
REMARK    5  A    between atoms: C_11  and  N_12
REMARK                            x       y       z     vdW  Elec       q    Type
REMARK                         _______ _______ _______ _____ _____    ______ ____
ROOT
ATOM      1  N   UNL     1       3.122   6.626  18.378  0.00  0.00    +0.000 N 
ATOM      2  C   UNL     1       2.581   5.575  19.100  0.00  0.00    +0.000 A 
ATOM      3  C   UNL     1       1.711   5.561  20.207  0.00  0.00    +0.000 A 
ATOM      4  C   UNL     1       1.328   4.322  20.727  0.00  0.00    +0.000 A 
ATOM      5  C   UNL     1       1.802   3.147  20.166  0.00  0.00    +0.000 A 
ATOM      6  F   UNL     1       1.419   1.972  20.684  0.00  0.00    +0.000 F 
ATOM      7  C   UNL     1       2.671   3.158  19.078  0.00  0.00    +0.000 A 
ATOM      8  C   UNL     1       3.071   4.397  18.534  0.00  0.00    +0.000 A 
ATOM      9  C   UNL     1       3.935   4.760  17.457  0.00  0.00    +0.000 A 
ATOM     10  C   UNL     1       4.729   4.005  16.567  0.00  0.00    +0.000 A 
ATOM     11  C   UNL     1       5.482   4.675  15.604  0.00  0.00    +0.000 A 
ATOM     12  F   UNL     1       6.260   3.962  14.779  0.00  0.00    +0.000 F 
ATOM     13  C   UNL     1       5.442   6.053  15.485  0.00  0.00    +0.000 A 
ATOM     14  C   UNL     1       4.648   6.822  16.344  0.00  0.00    +0.000 A 
ATOM     15  C   UNL     1       3.919   6.155  17.350  0.00  0.00    +0.000 A 
ENDROOT
BRANCH   1  16
ATOM     16  C   UNL     1       2.884   8.025  18.688  0.00  0.00    +0.000 C 
BRANCH  16  17
ATOM     17  C   UNL     1       1.732   8.658  17.902  0.00  0.00    +0.000 C 
BRANCH  17  18
ATOM     18  O   UNL     1       2.246   9.823  17.232  0.00  0.00    +0.000 OA
ATOM     19  H   UNL     1       1.960  10.612  17.727  0.00  0.00    +0.000 HD
ENDBRANCH  17  18
BRANCH  17  20
ATOM     20  C   UNL     1       0.492   9.019  18.753  0.00  0.00    +0.000 C 
BRANCH  20  27
ATOM     21  O   UNL     1      -0.734   8.731  21.426  0.00  0.00    +0.000 OA
ATOM     22  S   UNL     1       0.560   9.367  21.419  0.00  0.00    +0.000 S 
ATOM     23  O   UNL     1       1.750   8.751  21.927  0.00  0.00    +0.000 OA
ATOM     24  N   UNL     1       0.388  10.886  22.136  0.00  0.00    +0.000 NA
ATOM     25  C   UNL     1       0.383  11.954  21.116  0.00  0.00    +0.000 C 
ATOM     26  C   UNL     1       0.210  11.290  19.749  0.00  0.00    +0.000 C 
ATOM     27  N   UNL     1       0.863   9.960  19.855  0.00  0.00    +0.000 NA
ATOM     28  H   UNL     1       1.098  10.999  22.862  0.00  0.00    +0.000 HD
ENDBRANCH  20  27
ENDBRANCH  17  20
ENDBRANCH  16  17
ENDBRANCH   1  16
TORSDOF 5
ENDMDL
MODEL 6
REMARK VINA RESULT:      -7.8      1.089      3.912
REMARK  Name = 
REMARK  5 active torsions:
REMARK  status: ('A' for Active; 'I' for Inactive)
REMARK    1  A    between atoms: N_7  and  C_8
REMARK    2  A    between atoms: C_8  and  C_9
REMARK    3  A    between atoms: C_9  and  O_10
REMARK    4  A    between atoms: C_9  and  C_11
REMARK    5  A    between atoms: C_11  and  N_12
REMARK                            x       y       z     vdW  Elec       q    Type
REMARK                         _______ _______ _______ _____ _____    ______ ____
ROOT
ATOM      1  N   UNL     1       3.342   4.562  17.855  0.00  0.00    +0.000 N 
ATOM      2  C   UNL     1       3.037   5.902  18.028  0.00  0.00    +0.000 A 
ATOM      3  C   UNL     1       3.365   7.035  17.259  0.00  0.00    +0.000 A 
ATOM      4  C   UNL     1       2.903   8.280  17.691  0.00  0.00    +0.000 A 
ATOM      5  C   UNL     1       2.149   8.387  18.849  0.00  0.00    +0.000 A 
ATOM      6  F   UNL     1       1.718   9.593  19.242  0.00  0.00    +0.000 F 
ATOM      7  C   UNL     1       1.832   7.270  19.618  0.00  0.00    +0.000 A 
ATOM      8  C   UNL     1       2.286   6.001  19.201  0.00  0.00    +0.000 A 
ATOM      9  C   UNL     1       2.154   4.687  19.742  0.00  0.00    +0.000 A 
ATOM     10  C   UNL     1       1.546   4.188  20.915  0.00  0.00    +0.000 A 
ATOM     11  C   UNL     1       1.595   2.818  21.168  0.00  0.00    +0.000 A 
ATOM     12  F   UNL     1       1.045   2.349  22.296  0.00  0.00    +0.000 F 
ATOM     13  C   UNL     1       2.196   1.941  20.283  0.00  0.00    +0.000 A 
ATOM     14  C   UNL     1       2.789   2.409  19.104  0.00  0.00    +0.000 A 
ATOM     15  C   UNL     1       2.784   3.798  18.864  0.00  0.00    +0.000 A 
ENDROOT
BRANCH   1  16
ATOM     16  C   UNL     1       4.154   4.054  16.762  0.00  0.00    +0.000 C 
BRANCH  16  17
ATOM     17  C   UNL     1       5.382   4.909  16.439  0.00  0.00    +0.000 C 
BRANCH  17  18
ATOM     18  O   UNL     1       5.434   5.079  15.011  0.00  0.00    +0.000 OA
ATOM     19  H   UNL     1       6.240   5.580  14.791  0.00  0.00    +0.000 HD
ENDBRANCH  17  18
BRANCH  17  20
ATOM     20  C   UNL     1       6.720   4.345  16.971  0.00  0.00    +0.000 C 
BRANCH  20  27
ATOM     21  O   UNL     1       6.348   5.511  19.660  0.00  0.00    +0.000 OA
ATOM     22  S   UNL     1       7.683   5.628  19.129  0.00  0.00    +0.000 S 
ATOM     23  O   UNL     1       8.806   4.892  19.631  0.00  0.00    +0.000 OA
ATOM     24  N   UNL     1       8.082   7.269  19.101  0.00  0.00    +0.000 NA
ATOM     25  C   UNL     1       7.997   7.809  17.729  0.00  0.00    +0.000 C 
ATOM     26  C   UNL     1       7.269   6.778  16.867  0.00  0.00    +0.000 C 
ATOM     27  N   UNL     1       7.611   5.451  17.439  0.00  0.00    +0.000 NA
ATOM     28  H   UNL     1       8.987   7.404  19.554  0.00  0.00    +0.000 HD
ENDBRANCH  20  27
ENDBRANCH  17  20
ENDBRANCH  16  17
ENDBRANCH   1  16
TORSDOF 5
ENDMDL
MODEL 7
REMARK VINA RESULT:      -7.7      4.541      6.948
REMARK  Name = 
REMARK  5 active torsions:
REMARK  status: ('A' for Active; 'I' for Inactive)
REMARK    1  A    between atoms: N_7  and  C_8
REMARK    2  A    between atoms: C_8  and  C_9
REMARK    3  A    between atoms: C_9  and  O_10
REMARK    4  A    between atoms: C_9  and  C_11
REMARK    5  A    between atoms: C_11  and  N_12
REMARK                            x       y       z     vdW  Elec       q    Type
REMARK                         _______ _______ _______ _____ _____    ______ ____
ROOT
ATOM      1  N   UNL     1       3.007   6.151  18.812  0.00  0.00    +0.000 N 
ATOM      2  C   UNL     1       3.924   5.988  17.786  0.00  0.00    +0.000 A 
ATOM      3  C   UNL     1       4.875   6.872  17.243  0.00  0.00    +0.000 A 
ATOM      4  C   UNL     1       5.678   6.414  16.196  0.00  0.00    +0.000 A 
ATOM      5  C   UNL     1       5.529   5.125  15.709  0.00  0.00    +0.000 A 
ATOM      6  F   UNL     1       6.312   4.710  14.704  0.00  0.00    +0.000 F 
ATOM      7  C   UNL     1       4.582   4.251  16.237  0.00  0.00    +0.000 A 
ATOM      8  C   UNL     1       3.761   4.691  17.296  0.00  0.00    +0.000 A 
ATOM      9  C   UNL     1       2.711   4.075  18.042  0.00  0.00    +0.000 A 
ATOM     10  C   UNL     1       2.093   2.808  17.964  0.00  0.00    +0.000 A 
ATOM     11  C   UNL     1       1.066   2.504  18.856  0.00  0.00    +0.000 A 
ATOM     12  F   UNL     1       0.458   1.314  18.762  0.00  0.00    +0.000 F 
ATOM     13  C   UNL     1       0.666   3.401  19.830  0.00  0.00    +0.000 A 
ATOM     14  C   UNL     1       1.276   4.657  19.940  0.00  0.00    +0.000 A 
ATOM     15  C   UNL     1       2.284   4.989  19.012  0.00  0.00    +0.000 A 
ENDROOT
BRANCH   1  16
ATOM     16  C   UNL     1       2.835   7.390  19.552  0.00  0.00    +0.000 C 
BRANCH  16  17
ATOM     17  C   UNL     1       1.610   8.208  19.134  0.00  0.00    +0.000 C 
BRANCH  17  18
ATOM     18  O   UNL     1       1.608   8.293  17.698  0.00  0.00    +0.000 OA
ATOM     19  H   UNL     1       2.245   8.981  17.432  0.00  0.00    +0.000 HD
ENDBRANCH  17  18
BRANCH  17  20
ATOM     20  C   UNL     1       1.530   9.618  19.765  0.00  0.00    +0.000 C 
BRANCH  20  27
ATOM     21  O   UNL     1       1.122  12.087  21.337  0.00  0.00    +0.000 OA
ATOM     22  S   UNL     1      -0.007  11.192  21.312  0.00  0.00    +0.000 S 
ATOM     23  O   UNL     1      -1.226  11.468  20.609  0.00  0.00    +0.000 OA
ATOM     24  N   UNL     1      -0.383  10.796  22.911  0.00  0.00    +0.000 NA
ATOM     25  C   UNL     1       0.087   9.437  23.243  0.00  0.00    +0.000 C 
ATOM     26  C   UNL     1       1.031   8.985  22.128  0.00  0.00    +0.000 C 
ATOM     27  N   UNL     1       0.542   9.639  20.888  0.00  0.00    +0.000 NA
ATOM     28  H   UNL     1      -1.380  10.950  23.071  0.00  0.00    +0.000 HD
ENDBRANCH  20  27
ENDBRANCH  17  20
ENDBRANCH  16  17
ENDBRANCH   1  16
TORSDOF 5
ENDMDL
MODEL 8
REMARK VINA RESULT:      -7.7      4.263      6.527
REMARK  Name = 
REMARK  5 active torsions:
REMARK  status: ('A' for Active; 'I' for Inactive)
REMARK    1  A    between atoms: N_7  and  C_8
REMARK    2  A    between atoms: C_8  and  C_9
REMARK    3  A    between atoms: C_9  and  O_10
REMARK    4  A    between atoms: C_9  and  C_11
REMARK    5  A    between atoms: C_11  and  N_12
REMARK                            x       y       z     vdW  Elec       q    Type
REMARK                         _______ _______ _______ _____ _____    ______ ____
ROOT
ATOM      1  N   UNL     1       2.915   6.409  18.563  0.00  0.00    +0.000 N 
ATOM      2  C   UNL     1       3.812   6.106  17.553  0.00  0.00    +0.000 A 
ATOM      3  C   UNL     1       4.625   6.933  16.755  0.00  0.00    +0.000 A 
ATOM      4  C   UNL     1       5.447   6.327  15.802  0.00  0.00    +0.000 A 
ATOM      5  C   UNL     1       5.448   4.949  15.650  0.00  0.00    +0.000 A 
ATOM      6  F   UNL     1       6.245   4.393  14.728  0.00  0.00    +0.000 F 
ATOM      7  C   UNL     1       4.637   4.129  16.430  0.00  0.00    +0.000 A 
ATOM      8  C   UNL     1       3.800   4.718  17.401  0.00  0.00    +0.000 A 
ATOM      9  C   UNL     1       2.862   4.188  18.336  0.00  0.00    +0.000 A 
ATOM     10  C   UNL     1       2.408   2.878  18.603  0.00  0.00    +0.000 A 
ATOM     11  C   UNL     1       1.457   2.687  19.604  0.00  0.00    +0.000 A 
ATOM     12  F   UNL     1       1.003   1.448  19.837  0.00  0.00    +0.000 F 
ATOM     13  C   UNL     1       0.976   3.743  20.356  0.00  0.00    +0.000 A 
ATOM     14  C   UNL     1       1.424   5.049  20.123  0.00  0.00    +0.000 A 
ATOM     15  C   UNL     1       2.352   5.256  19.082  0.00  0.00    +0.000 A 
ENDROOT
BRANCH   1  16
ATOM     16  C   UNL     1       2.610   7.764  18.993  0.00  0.00    +0.000 C 
BRANCH  16  17
ATOM     17  C   UNL     1       1.636   8.511  18.077  0.00  0.00    +0.000 C 
BRANCH  17  18
ATOM     18  O   UNL     1       2.414   9.330  17.186  0.00  0.00    +0.000 OA
ATOM     19  H   UNL     1       1.841  10.042  16.847  0.00  0.00    +0.000 HD
ENDBRANCH  17  18
BRANCH  17  20
ATOM     20  C   UNL     1       0.577   9.361  18.817  0.00  0.00    +0.000 C 
BRANCH  20  27
ATOM     21  O   UNL     1      -0.809  10.434  21.195  0.00  0.00    +0.000 OA
ATOM     22  S   UNL     1       0.630  10.514  21.246  0.00  0.00    +0.000 S 
ATOM     23  O   UNL     1       1.441   9.710  22.112  0.00  0.00    +0.000 OA
ATOM     24  N   UNL     1       1.046  12.136  21.466  0.00  0.00    +0.000 NA
ATOM     25  C   UNL     1       1.528  12.733  20.205  0.00  0.00    +0.000 C 
ATOM     26  C   UNL     1       1.180  11.769  19.070  0.00  0.00    +0.000 C 
ATOM     27  N   UNL     1       1.233  10.407  19.659  0.00  0.00    +0.000 NA
ATOM     28  H   UNL     1       1.699  12.213  22.248  0.00  0.00    +0.000 HD
ENDBRANCH  20  27
ENDBRANCH  17  20
ENDBRANCH  16  17
ENDBRANCH   1  16
TORSDOF 5
ENDMDL
MODEL 9
REMARK VINA RESULT:      -7.7      1.516      1.940
REMARK  Name = 
REMARK  5 active torsions:
REMARK  status: ('A' for Active; 'I' for Inactive)
REMARK    1  A    between atoms: N_7  and  C_8
REMARK    2  A    between atoms: C_8  and  C_9
REMARK    3  A    between atoms: C_9  and  O_10
REMARK    4  A    between atoms: C_9  and  C_11
REMARK    5  A    between atoms: C_11  and  N_12
REMARK                            x       y       z     vdW  Elec       q    Type
REMARK                         _______ _______ _______ _____ _____    ______ ____
ROOT
ATOM      1  N   UNL     1       3.031   4.512  18.005  0.00  0.00    +0.000 N 
ATOM      2  C   UNL     1       2.616   3.747  19.084  0.00  0.00    +0.000 A 
ATOM      3  C   UNL     1       2.657   2.358  19.306  0.00  0.00    +0.000 A 
ATOM      4  C   UNL     1       2.159   1.870  20.516  0.00  0.00    +0.000 A 
ATOM      5  C   UNL     1       1.635   2.738  21.462  0.00  0.00    +0.000 A 
ATOM      6  F   UNL     1       1.163   2.244  22.614  0.00  0.00    +0.000 F 
ATOM      7  C   UNL     1       1.583   4.112  21.240  0.00  0.00    +0.000 A 
ATOM      8  C   UNL     1       2.083   4.628  20.026  0.00  0.00    +0.000 A 
ATOM      9  C   UNL     1       2.172   5.946  19.486  0.00  0.00    +0.000 A 
ATOM     10  C   UNL     1       1.759   7.209  19.962  0.00  0.00    +0.000 A 
ATOM     11  C   UNL     1       1.993   8.335  19.174  0.00  0.00    +0.000 A 
ATOM     12  F   UNL     1       1.573   9.530  19.613  0.00  0.00    +0.000 F 
ATOM     13  C   UNL     1       2.644   8.243  17.958  0.00  0.00    +0.000 A 
ATOM     14  C   UNL     1       3.080   7.004  17.472  0.00  0.00    +0.000 A 
ATOM     15  C   UNL     1       2.806   5.856  18.242  0.00  0.00    +0.000 A 
ENDROOT
BRANCH   1  16
ATOM     16  C   UNL     1       3.607   3.953  16.794  0.00  0.00    +0.000 C 
BRANCH  16  17
ATOM     17  C   UNL     1       5.118   4.162  16.659  0.00  0.00    +0.000 C 
BRANCH  17  18
ATOM     18  O   UNL     1       5.664   3.002  16.007  0.00  0.00    +0.000 OA
ATOM     19  H   UNL     1       5.832   2.321  16.684  0.00  0.00    +0.000 HD
ENDBRANCH  17  18
BRANCH  17  20
ATOM     20  C   UNL     1       5.853   4.438  17.991  0.00  0.00    +0.000 C 
BRANCH  20  27
ATOM     21  O   UNL     1       7.582   5.401  15.797  0.00  0.00    +0.000 OA
ATOM     22  S   UNL     1       6.861   6.435  16.497  0.00  0.00    +0.000 S 
ATOM     23  O   UNL     1       5.771   7.169  15.927  0.00  0.00    +0.000 OA
ATOM     24  N   UNL     1       7.995   7.531  17.102  0.00  0.00    +0.000 NA
ATOM     25  C   UNL     1       8.191   7.341  18.553  0.00  0.00    +0.000 C 
ATOM     26  C   UNL     1       7.542   6.011  18.941  0.00  0.00    +0.000 C 
ATOM     27  N   UNL     1       6.393   5.833  18.017  0.00  0.00    +0.000 NA
ATOM     28  H   UNL     1       7.725   8.478  16.832  0.00  0.00    +0.000 HD
ENDBRANCH  20  27
ENDBRANCH  17  20
ENDBRANCH  16  17
ENDBRANCH   1  16
TORSDOF 5
ENDMDL
