MODEL 1
REMARK VINA RESULT:      -7.0      0.000      0.000
REMARK  Name = 
REMARK  5 active torsions:
REMARK  status: ('A' for Active; 'I' for Inactive)
REMARK    1  A    between atoms: C_1  and  N_2
REMARK    2  A    between atoms: N_2  and  C_3
REMARK    3  A    between atoms: C_8  and  C_9
REMARK    4  A    between atoms: C_9  and  C_10
REMARK    5  A    between atoms: C_10  and  C_12
REMARK                            x       y       z     vdW  Elec       q    Type
REMARK                         _______ _______ _______ _____ _____    ______ ____
ROOT
ATOM      1  C   UNL     1       4.372   7.416  17.507  0.00  0.00    +0.000 C 
ENDROOT
BRANCH   1   9
ATOM      2  C   UNL     1       6.243   5.486  19.100  0.00  0.00    +0.000 C 
ATOM      3  N   UNL     1       6.396   5.790  17.598  0.00  0.00    +0.000 N 
ATOM      4  C   UNL     1       7.406   6.931  17.464  0.00  0.00    +0.000 C 
ATOM      5  C   UNL     1       6.964   4.496  16.968  0.00  0.00    +0.000 C 
ATOM      6  C   UNL     1       7.074   4.587  15.456  0.00  0.00    +0.000 C 
ATOM      7  C   UNL     1       5.736   4.914  14.823  0.00  0.00    +0.000 C 
ATOM      8  C   UNL     1       5.155   6.190  15.406  0.00  0.00    +0.000 C 
ATOM      9  C   UNL     1       4.991   6.121  16.938  0.00  0.00    +0.000 C 
ENDBRANCH   1   9
BRANCH   1  10
ATOM     10  C   UNL     1       2.912   7.212  17.885  0.00  0.00    +0.000 C 
ATOM     11  O   UNL     1       2.034   8.004  17.559  0.00  0.00    +0.000 OA
BRANCH  10  12
ATOM     12  C   UNL     1       2.533   6.014  18.675  0.00  0.00    +0.000 A 
ATOM     13  C   UNL     1       2.687   6.046  20.069  0.00  0.00    +0.000 A 
ATOM     14  C   UNL     1       2.247   4.968  20.845  0.00  0.00    +0.000 A 
ATOM     15  C   UNL     1       1.652   3.867  20.228  0.00  0.00    +0.000 A 
ATOM     16 CL   UNL     1       1.053   2.569  21.183  0.00  0.00    +0.000 Cl
ATOM     17  C   UNL     1       1.511   3.828  18.844  0.00  0.00    +0.000 A 
ATOM     18  C   UNL     1       1.955   4.896  18.058  0.00  0.00    +0.000 A 
ENDBRANCH  10  12
ENDBRANCH   1  10
TORSDOF 3
ENDMDL
MODEL 2
REMARK VINA RESULT:      -7.0      3.184      6.017
REMARK  Name = 
REMARK  5 active torsions:
REMARK  status: ('A' for Active; 'I' for Inactive)
REMARK    1  A    between atoms: C_1  and  N_2
REMARK    2  A    between atoms: N_2  and  C_3
REMARK    3  A    between atoms: C_8  and  C_9
REMARK    4  A    between atoms: C_9  and  C_10
REMARK    5  A    between atoms: C_10  and  C_12
REMARK                            x       y       z     vdW  Elec       q    Type
REMARK                         _______ _______ _______ _____ _____    ______ ____
ROOT
ATOM      1  C   UNL     1       4.005   5.570  19.259  0.00  0.00    +0.000 C 
ENDROOT
BRANCH   1   9
ATOM      2  C   UNL     1       3.559   2.912  17.679  0.00  0.00    +0.000 C 
ATOM      3  N   UNL     1       2.599   3.443  18.759  0.00  0.00    +0.000 N 
ATOM      4  C   UNL     1       1.510   4.247  18.045  0.00  0.00    +0.000 C 
ATOM      5  C   UNL     1       1.987   2.187  19.425  0.00  0.00    +0.000 C 
ATOM      6  C   UNL     1       1.090   2.534  20.600  0.00  0.00    +0.000 C 
ATOM      7  C   UNL     1       1.832   3.349  21.641  0.00  0.00    +0.000 C 
ATOM      8  C   UNL     1       2.432   4.600  21.026  0.00  0.00    +0.000 C 
ATOM      9  C   UNL     1       3.383   4.287  19.851  0.00  0.00    +0.000 C 
ENDBRANCH   1   9
BRANCH   1  10
ATOM     10  C   UNL     1       5.477   5.369  18.931  0.00  0.00    +0.000 C 
ATOM     11  O   UNL     1       6.333   5.258  19.802  0.00  0.00    +0.000 OA
BRANCH  10  12
ATOM     12  C   UNL     1       5.896   5.306  17.508  0.00  0.00    +0.000 A 
ATOM     13  C   UNL     1       7.046   4.576  17.172  0.00  0.00    +0.000 A 
ATOM     14  C   UNL     1       7.406   4.420  15.830  0.00  0.00    +0.000 A 
ATOM     15  C   UNL     1       6.616   4.988  14.829  0.00  0.00    +0.000 A 
ATOM     16 CL   UNL     1       7.021   4.745  13.176  0.00  0.00    +0.000 Cl
ATOM     17  C   UNL     1       5.482   5.723  15.162  0.00  0.00    +0.000 A 
ATOM     18  C   UNL     1       5.118   5.893  16.501  0.00  0.00    +0.000 A 
ENDBRANCH  10  12
ENDBRANCH   1  10
TORSDOF 3
ENDMDL
MODEL 3
REMARK VINA RESULT:      -7.0      0.179      1.154
REMARK  Name = 
REMARK  5 active torsions:
REMARK  status: ('A' for Active; 'I' for Inactive)
REMARK    1  A    between atoms: C_1  and  N_2
REMARK    2  A    between atoms: N_2  and  C_3
REMARK    3  A    between atoms: C_8  and  C_9
REMARK    4  A    between atoms: C_9  and  C_10
REMARK    5  A    between atoms: C_10  and  C_12
REMARK                            x       y       z     vdW  Elec       q    Type
REMARK                         _______ _______ _______ _____ _____    ______ ____
ROOT
ATOM      1  C   UNL     1       4.468   7.467  17.699  0.00  0.00    +0.000 C 
ENDROOT
BRANCH   1   9
ATOM      2  C   UNL     1       6.331   5.442  19.179  0.00  0.00    +0.000 C 
ATOM      3  N   UNL     1       6.457   5.795  17.686  0.00  0.00    +0.000 N 
ATOM      4  C   UNL     1       7.489   6.918  17.567  0.00  0.00    +0.000 C 
ATOM      5  C   UNL     1       6.981   4.511  16.998  0.00  0.00    +0.000 C 
ATOM      6  C   UNL     1       7.058   4.653  15.488  0.00  0.00    +0.000 C 
ATOM      7  C   UNL     1       5.714   5.030  14.899  0.00  0.00    +0.000 C 
ATOM      8  C   UNL     1       5.175   6.297  15.538  0.00  0.00    +0.000 C 
ATOM      9  C   UNL     1       5.045   6.179  17.071  0.00  0.00    +0.000 C 
ENDBRANCH   1   9
BRANCH   1  10
ATOM     10  C   UNL     1       2.966   7.353  17.912  0.00  0.00    +0.000 C 
ATOM     11  O   UNL     1       2.176   8.178  17.466  0.00  0.00    +0.000 OA
BRANCH  10  12
ATOM     12  C   UNL     1       2.433   6.205  18.688  0.00  0.00    +0.000 A 
ATOM     13  C   UNL     1       1.965   5.078  17.996  0.00  0.00    +0.000 A 
ATOM     14  C   UNL     1       1.551   3.946  18.705  0.00  0.00    +0.000 A 
ATOM     15  C   UNL     1       1.608   3.940  20.099  0.00  0.00    +0.000 A 
ATOM     16 CL   UNL     1       1.159   2.529  20.971  0.00  0.00    +0.000 Cl
ATOM     17  C   UNL     1       2.060   5.063  20.788  0.00  0.00    +0.000 A 
ATOM     18  C   UNL     1       2.469   6.203  20.089  0.00  0.00    +0.000 A 
ENDBRANCH  10  12
ENDBRANCH   1  10
TORSDOF 3
ENDMDL
MODEL 4
REMARK VINA RESULT:      -7.0      3.289      5.813
REMARK  Name = 
REMARK  5 active torsions:
REMARK  status: ('A' for Active; 'I' for Inactive)
REMARK    1  A    between atoms: C_1  and  N_2
REMARK    2  A    between atoms: N_2  and  C_3
REMARK    3  A    between atoms: C_8  and  C_9
REMARK    4  A    between atoms: C_9  and  C_10
REMARK    5  A    between atoms: C_10  and  C_12
REMARK                            x       y       z     vdW  Elec       q    Type
REMARK                         _______ _______ _______ _____ _____    ______ ____
ROOT
ATOM      1  C   UNL     1       3.719   3.891  16.861  0.00  0.00    +0.000 C 
ENDROOT
BRANCH   1   9
ATOM      2  C   UNL     1       3.869   1.842  19.215  0.00  0.00    +0.000 C 
ATOM      3  N   UNL     1       2.856   2.999  19.143  0.00  0.00    +0.000 N 
ATOM      4  C   UNL     1       1.574   2.444  18.519  0.00  0.00    +0.000 C 
ATOM      5  C   UNL     1       2.599   3.417  20.610  0.00  0.00    +0.000 C 
ATOM      6  C   UNL     1       1.697   4.634  20.717  0.00  0.00    +0.000 C 
ATOM      7  C   UNL     1       2.261   5.810  19.945  0.00  0.00    +0.000 C 
ATOM      8  C   UNL     1       2.510   5.441  18.494  0.00  0.00    +0.000 C 
ATOM      9  C   UNL     1       3.456   4.232  18.344  0.00  0.00    +0.000 C 
ENDBRANCH   1   9
BRANCH   1  10
ATOM     10  C   UNL     1       5.195   4.028  16.516  0.00  0.00    +0.000 C 
ATOM     11  O   UNL     1       5.772   3.236  15.778  0.00  0.00    +0.000 OA
BRANCH  10  12
ATOM     12  C   UNL     1       5.968   5.157  17.091  0.00  0.00    +0.000 A 
ATOM     13  C   UNL     1       6.969   4.882  18.035  0.00  0.00    +0.000 A 
ATOM     14  C   UNL     1       7.776   5.917  18.518  0.00  0.00    +0.000 A 
ATOM     15  C   UNL     1       7.584   7.220  18.056  0.00  0.00    +0.000 A 
ATOM     16 CL   UNL     1       8.614   8.484  18.600  0.00  0.00    +0.000 Cl
ATOM     17  C   UNL     1       6.583   7.497  17.129  0.00  0.00    +0.000 A 
ATOM     18  C   UNL     1       5.765   6.471  16.646  0.00  0.00    +0.000 A 
ENDBRANCH  10  12
ENDBRANCH   1  10
TORSDOF 3
ENDMDL
MODEL 5
REMARK VINA RESULT:      -6.9      3.472      6.306
REMARK  Name = 
REMARK  5 active torsions:
REMARK  status: ('A' for Active; 'I' for Inactive)
REMARK    1  A    between atoms: C_1  and  N_2
REMARK    2  A    between atoms: N_2  and  C_3
REMARK    3  A    between atoms: C_8  and  C_9
REMARK    4  A    between atoms: C_9  and  C_10
REMARK    5  A    between atoms: C_10  and  C_12
REMARK                            x       y       z     vdW  Elec       q    Type
REMARK                         _______ _______ _______ _____ _____    ______ ____
ROOT
ATOM      1  C   UNL     1       4.084   5.082  18.449  0.00  0.00    +0.000 C 
ENDROOT
BRANCH   1   9
ATOM      2  C   UNL     1       3.133   2.193  17.734  0.00  0.00    +0.000 C 
ATOM      3  N   UNL     1       2.419   3.110  18.744  0.00  0.00    +0.000 N 
ATOM      4  C   UNL     1       1.309   3.844  17.990  0.00  0.00    +0.000 C 
ATOM      5  C   UNL     1       1.809   2.162  19.805  0.00  0.00    +0.000 C 
ATOM      6  C   UNL     1       1.155   2.918  20.949  0.00  0.00    +0.000 C 
ATOM      7  C   UNL     1       2.133   3.864  21.617  0.00  0.00    +0.000 C 
ATOM      8  C   UNL     1       2.740   4.822  20.607  0.00  0.00    +0.000 C 
ATOM      9  C   UNL     1       3.449   4.091  19.448  0.00  0.00    +0.000 C 
ENDBRANCH   1   9
BRANCH   1  10
ATOM     10  C   UNL     1       5.487   4.644  18.052  0.00  0.00    +0.000 C 
ATOM     11  O   UNL     1       6.316   4.277  18.877  0.00  0.00    +0.000 OA
BRANCH  10  12
ATOM     12  C   UNL     1       5.868   4.661  16.618  0.00  0.00    +0.000 A 
ATOM     13  C   UNL     1       7.174   5.036  16.268  0.00  0.00    +0.000 A 
ATOM     14  C   UNL     1       7.587   4.966  14.934  0.00  0.00    +0.000 A 
ATOM     15  C   UNL     1       6.699   4.518  13.955  0.00  0.00    +0.000 A 
ATOM     16 CL   UNL     1       7.222   4.371  12.324  0.00  0.00    +0.000 Cl
ATOM     17  C   UNL     1       5.399   4.158  14.299  0.00  0.00    +0.000 A 
ATOM     18  C   UNL     1       4.973   4.232  15.628  0.00  0.00    +0.000 A 
ENDBRANCH  10  12
ENDBRANCH   1  10
TORSDOF 3
ENDMDL
MODEL 6
REMARK VINA RESULT:      -6.9      3.267      6.150
REMARK  Name = 
REMARK  5 active torsions:
REMARK  status: ('A' for Active; 'I' for Inactive)
REMARK    1  A    between atoms: C_1  and  N_2
REMARK    2  A    between atoms: N_2  and  C_3
REMARK    3  A    between atoms: C_8  and  C_9
REMARK    4  A    between atoms: C_9  and  C_10
REMARK    5  A    between atoms: C_10  and  C_12
REMARK                            x       y       z     vdW  Elec       q    Type
REMARK                         _______ _______ _______ _____ _____    ______ ____
ROOT
ATOM      1  C   UNL     1       3.937   5.440  19.076  0.00  0.00    +0.000 C 
ENDROOT
BRANCH   1   9
ATOM      2  C   UNL     1       3.406   2.696  17.679  0.00  0.00    +0.000 C 
ATOM      3  N   UNL     1       2.502   3.295  18.772  0.00  0.00    +0.000 N 
ATOM      4  C   UNL     1       1.382   4.062  18.068  0.00  0.00    +0.000 C 
ATOM      5  C   UNL     1       1.921   2.084  19.541  0.00  0.00    +0.000 C 
ATOM      6  C   UNL     1       1.085   2.504  20.737  0.00  0.00    +0.000 C 
ATOM      7  C   UNL     1       1.880   3.375  21.689  0.00  0.00    +0.000 C 
ATOM      8  C   UNL     1       2.452   4.585  20.972  0.00  0.00    +0.000 C 
ATOM      9  C   UNL     1       3.342   4.197  19.773  0.00  0.00    +0.000 C 
ENDBRANCH   1   9
BRANCH   1  10
ATOM     10  C   UNL     1       5.426   5.265  18.811  0.00  0.00    +0.000 C 
ATOM     11  O   UNL     1       6.254   5.243  19.715  0.00  0.00    +0.000 OA
BRANCH  10  12
ATOM     12  C   UNL     1       5.896   5.116  17.411  0.00  0.00    +0.000 A 
ATOM     13  C   UNL     1       5.055   5.529  16.366  0.00  0.00    +0.000 A 
ATOM     14  C   UNL     1       5.512   5.491  15.046  0.00  0.00    +0.000 A 
ATOM     15  C   UNL     1       6.806   5.046  14.772  0.00  0.00    +0.000 A 
ATOM     16 CL   UNL     1       7.393   5.057  13.156  0.00  0.00    +0.000 Cl
ATOM     17  C   UNL     1       7.637   4.623  15.806  0.00  0.00    +0.000 A 
ATOM     18  C   UNL     1       7.186   4.649  17.129  0.00  0.00    +0.000 A 
ENDBRANCH  10  12
ENDBRANCH   1  10
TORSDOF 3
ENDMDL
MODEL 7
REMARK VINA RESULT:      -6.8      3.244      5.836
REMARK  Name = 
REMARK  5 active torsions:
REMARK  status: ('A' for Active; 'I' for Inactive)
REMARK    1  A    between atoms: C_1  and  N_2
REMARK    2  A    between atoms: N_2  and  C_3
REMARK    3  A    between atoms: C_8  and  C_9
REMARK    4  A    between atoms: C_9  and  C_10
REMARK    5  A    between atoms: C_10  and  C_12
REMARK                            x       y       z     vdW  Elec       q    Type
REMARK                         _______ _______ _______ _____ _____    ______ ____
ROOT
ATOM      1  C   UNL     1       3.755   4.031  16.813  0.00  0.00    +0.000 C 
ENDROOT
BRANCH   1   9
ATOM      2  C   UNL     1       3.686   1.924  19.120  0.00  0.00    +0.000 C 
ATOM      3  N   UNL     1       2.805   3.186  19.078  0.00  0.00    +0.000 N 
ATOM      4  C   UNL     1       1.469   2.788  18.448  0.00  0.00    +0.000 C 
ATOM      5  C   UNL     1       2.598   3.596  20.557  0.00  0.00    +0.000 C 
ATOM      6  C   UNL     1       1.833   4.900  20.694  0.00  0.00    +0.000 C 
ATOM      7  C   UNL     1       2.520   6.026  19.947  0.00  0.00    +0.000 C 
ATOM      8  C   UNL     1       2.724   5.666  18.487  0.00  0.00    +0.000 C 
ATOM      9  C   UNL     1       3.534   4.365  18.305  0.00  0.00    +0.000 C 
ENDBRANCH   1   9
BRANCH   1  10
ATOM     10  C   UNL     1       5.238   3.984  16.472  0.00  0.00    +0.000 C 
ATOM     11  O   UNL     1       5.726   3.084  15.797  0.00  0.00    +0.000 OA
BRANCH  10  12
ATOM     12  C   UNL     1       6.127   5.062  16.973  0.00  0.00    +0.000 A 
ATOM     13  C   UNL     1       5.937   6.370  16.501  0.00  0.00    +0.000 A 
ATOM     14  C   UNL     1       6.696   7.419  17.029  0.00  0.00    +0.000 A 
ATOM     15  C   UNL     1       7.636   7.161  18.028  0.00  0.00    +0.000 A 
ATOM     16 CL   UNL     1       8.526   8.457  18.724  0.00  0.00    +0.000 Cl
ATOM     17  C   UNL     1       7.834   5.862  18.487  0.00  0.00    +0.000 A 
ATOM     18  C   UNL     1       7.087   4.805  17.960  0.00  0.00    +0.000 A 
ENDBRANCH  10  12
ENDBRANCH   1  10
TORSDOF 3
ENDMDL
MODEL 8
REMARK VINA RESULT:      -6.7      3.267      5.218
REMARK  Name = 
REMARK  5 active torsions:
REMARK  status: ('A' for Active; 'I' for Inactive)
REMARK    1  A    between atoms: C_1  and  N_2
REMARK    2  A    between atoms: N_2  and  C_3
REMARK    3  A    between atoms: C_8  and  C_9
REMARK    4  A    between atoms: C_9  and  C_10
REMARK    5  A    between atoms: C_10  and  C_12
REMARK                            x       y       z     vdW  Elec       q    Type
REMARK                         _______ _______ _______ _____ _____    ______ ____
ROOT
ATOM      1  C   UNL     1       2.324   5.416  18.037  0.00  0.00    +0.000 C 
ENDROOT
BRANCH   1   9
ATOM      2  C   UNL     1       4.857   3.687  18.634  0.00  0.00    +0.000 C 
ATOM      3  N   UNL     1       3.437   3.327  19.107  0.00  0.00    +0.000 N 
ATOM      4  C   UNL     1       2.833   2.386  18.064  0.00  0.00    +0.000 C 
ATOM      5  C   UNL     1       3.624   2.585  20.453  0.00  0.00    +0.000 C 
ATOM      6  C   UNL     1       2.301   2.252  21.120  0.00  0.00    +0.000 C 
ATOM      7  C   UNL     1       1.464   3.497  21.339  0.00  0.00    +0.000 C 
ATOM      8  C   UNL     1       1.245   4.243  20.035  0.00  0.00    +0.000 C 
ATOM      9  C   UNL     1       2.569   4.634  19.346  0.00  0.00    +0.000 C 
ENDBRANCH   1   9
BRANCH   1  10
ATOM     10  C   UNL     1       2.947   6.804  18.098  0.00  0.00    +0.000 C 
ATOM     11  O   UNL     1       4.072   7.036  17.669  0.00  0.00    +0.000 OA
BRANCH  10  12
ATOM     12  C   UNL     1       2.170   7.916  18.699  0.00  0.00    +0.000 A 
ATOM     13  C   UNL     1       1.679   8.930  17.861  0.00  0.00    +0.000 A 
ATOM     14  C   UNL     1       0.862   9.936  18.387  0.00  0.00    +0.000 A 
ATOM     15  C   UNL     1       0.534   9.925  19.744  0.00  0.00    +0.000 A 
ATOM     16 CL   UNL     1      -0.521  11.123  20.381  0.00  0.00    +0.000 Cl
ATOM     17  C   UNL     1       1.030   8.927  20.578  0.00  0.00    +0.000 A 
ATOM     18  C   UNL     1       1.855   7.922  20.064  0.00  0.00    +0.000 A 
ENDBRANCH  10  12
ENDBRANCH   1  10
TORSDOF 3
ENDMDL
MODEL 9
REMARK VINA RESULT:      -6.7      2.053      3.278
REMARK  Name = 
REMARK  5 active torsions:
REMARK  status: ('A' for Active; 'I' for Inactive)
REMARK    1  A    between atoms: C_1  and  N_2
REMARK    2  A    between atoms: N_2  and  C_3
REMARK    3  A    between atoms: C_8  and  C_9
REMARK    4  A    between atoms: C_9  and  C_10
REMARK    5  A    between atoms: C_10  and  C_12
REMARK                            x       y       z     vdW  Elec       q    Type
REMARK                         _______ _______ _______ _____ _____    ______ ____
ROOT
ATOM      1  C   UNL     1       4.194   3.996  17.079  0.00  0.00    +0.000 C 
ENDROOT
BRANCH   1   9
ATOM      2  C   UNL     1       5.247   6.491  15.520  0.00  0.00    +0.000 C 
ATOM      3  N   UNL     1       6.069   5.720  16.568  0.00  0.00    +0.000 N 
ATOM      4  C   UNL     1       6.910   4.686  15.818  0.00  0.00    +0.000 C 
ATOM      5  C   UNL     1       6.986   6.774  17.234  0.00  0.00    +0.000 C 
ATOM      6  C   UNL     1       7.796   6.197  18.382  0.00  0.00    +0.000 C 
ATOM      7  C   UNL     1       6.899   5.571  19.431  0.00  0.00    +0.000 C 
ATOM      8  C   UNL     1       5.995   4.517  18.816  0.00  0.00    +0.000 C 
ATOM      9  C   UNL     1       5.126   5.076  17.670  0.00  0.00    +0.000 C 
ENDBRANCH   1   9
BRANCH   1  10
ATOM     10  C   UNL     1       2.764   4.172  17.569  0.00  0.00    +0.000 C 
ATOM     11  O   UNL     1       1.839   3.484  17.150  0.00  0.00    +0.000 OA
BRANCH  10  12
ATOM     12  C   UNL     1       2.474   5.211  18.588  0.00  0.00    +0.000 A 
ATOM     13  C   UNL     1       2.533   6.563  18.213  0.00  0.00    +0.000 A 
ATOM     14  C   UNL     1       2.169   7.556  19.127  0.00  0.00    +0.000 A 
ATOM     15  C   UNL     1       1.745   7.200  20.408  0.00  0.00    +0.000 A 
ATOM     16 CL   UNL     1       1.238   8.415  21.513  0.00  0.00    +0.000 Cl
ATOM     17  C   UNL     1       1.699   5.861  20.785  0.00  0.00    +0.000 A 
ATOM     18  C   UNL     1       2.068   4.859  19.882  0.00  0.00    +0.000 A 
ENDBRANCH  10  12
ENDBRANCH   1  10
TORSDOF 3
ENDMDL
