MODEL 1
REMARK VINA RESULT:      -7.7      0.000      0.000
REMARK  Name = 
REMARK  5 active torsions:
REMARK  status: ('A' for Active; 'I' for Inactive)
REMARK    1  A    between atoms: C_1  and  C_2
REMARK    2  A    between atoms: C_5  and  C_6
REMARK    3  A    between atoms: C_6  and  O_8
REMARK    4  A    between atoms: O_8  and  C_9
REMARK    5  A    between atoms: C_9  and  C_10
REMARK                            x       y       z     vdW  Elec       q    Type
REMARK                         _______ _______ _______ _____ _____    ______ ____
ROOT
ATOM      1  C   UNL     1      -3.287  10.035  15.524  0.00  0.00    +0.000 C 
ATOM      2  C   UNL     1      -2.622  10.415  16.819  0.00  0.00    +0.000 A 
ATOM      3  C   UNL     1      -1.319   9.944  17.089  0.00  0.00    +0.000 A 
ATOM      4  C   UNL     1      -0.668  10.282  18.299  0.00  0.00    +0.000 A 
ATOM      5  C   UNL     1       0.607   9.960  18.882  0.00  0.00    +0.000 A 
ATOM      6  C   UNL     1       0.647  10.607  20.108  0.00  0.00    +0.000 A 
ATOM      7  N   UNL     1      -0.532  11.273  20.292  0.00  0.00    +0.000 N 
ATOM      8  C   UNL     1      -1.354  11.090  19.207  0.00  0.00    +0.000 A 
ATOM      9  C   UNL     1      -2.645  11.573  18.971  0.00  0.00    +0.000 A 
ATOM     10  C   UNL     1      -3.267  11.223  17.765  0.00  0.00    +0.000 A 
ATOM     11 CL   UNL     1      -4.865  11.827  17.496  0.00  0.00    +0.000 Cl
ATOM     12  H   UNL     1      -0.777  11.811  21.113  0.00  0.00    +0.000 HD
ENDROOT
BRANCH   5  13
ATOM     13  C   UNL     1       1.653   9.089  18.349  0.00  0.00    +0.000 C 
ATOM     14  O   UNL     1       2.271   9.325  17.319  0.00  0.00    +0.000 OA
BRANCH  13  15
ATOM     15  O   UNL     1       1.807   7.955  19.098  0.00  0.00    +0.000 OA
BRANCH  15  16
ATOM     16  C   UNL     1       2.824   7.035  18.675  0.00  0.00    +0.000 C 
BRANCH  16  17
ATOM     17  C   UNL     1       2.552   5.596  19.128  0.00  0.00    +0.000 C 
ATOM     18  C   UNL     1       1.682   5.526  20.404  0.00  0.00    +0.000 C 
ATOM     19  C   UNL     1       1.406   4.055  20.763  0.00  0.00    +0.000 C 
ATOM     20  N   UNL     1       2.050   3.125  19.813  0.00  0.00    +0.000 NA
ATOM     21  C   UNL     1       3.508   3.369  19.818  0.00  0.00    +0.000 C 
ATOM     22  C   UNL     1       3.850   4.815  19.428  0.00  0.00    +0.000 C 
ATOM     23  C   UNL     1       1.529   3.386  18.458  0.00  0.00    +0.000 C 
ATOM     24  C   UNL     1       1.796   4.831  18.017  0.00  0.00    +0.000 C 
ENDBRANCH  16  17
ENDBRANCH  15  16
ENDBRANCH  13  15
ENDBRANCH   5  13
TORSDOF 4
ENDMDL
MODEL 2
REMARK VINA RESULT:      -7.6      3.313      4.722
REMARK  Name = 
REMARK  5 active torsions:
REMARK  status: ('A' for Active; 'I' for Inactive)
REMARK    1  A    between atoms: C_1  and  C_2
REMARK    2  A    between atoms: C_5  and  C_6
REMARK    3  A    between atoms: C_6  and  O_8
REMARK    4  A    between atoms: O_8  and  C_9
REMARK    5  A    between atoms: C_9  and  C_10
REMARK                            x       y       z     vdW  Elec       q    Type
REMARK                         _______ _______ _______ _____ _____    ______ ____
ROOT
ATOM      1  C   UNL     1      -0.100   9.595  23.268  0.00  0.00    +0.000 C 
ATOM      2  C   UNL     1       0.333   9.809  21.843  0.00  0.00    +0.000 A 
ATOM      3  C   UNL     1       0.925   8.741  21.134  0.00  0.00    +0.000 A 
ATOM      4  C   UNL     1       1.345   8.911  19.794  0.00  0.00    +0.000 A 
ATOM      5  C   UNL     1       1.986   8.067  18.823  0.00  0.00    +0.000 A 
ATOM      6  C   UNL     1       2.136   8.835  17.678  0.00  0.00    +0.000 A 
ATOM      7  N   UNL     1       1.640  10.086  17.920  0.00  0.00    +0.000 N 
ATOM      8  C   UNL     1       1.155  10.162  19.203  0.00  0.00    +0.000 A 
ATOM      9  C   UNL     1       0.572  11.240  19.877  0.00  0.00    +0.000 A 
ATOM     10  C   UNL     1       0.166  11.044  21.204  0.00  0.00    +0.000 A 
ATOM     11 CL   UNL     1      -0.547  12.393  22.019  0.00  0.00    +0.000 Cl
ATOM     12  H   UNL     1       1.643  10.852  17.262  0.00  0.00    +0.000 HD
ENDROOT
BRANCH   5  13
ATOM     13  C   UNL     1       2.452   6.691  18.986  0.00  0.00    +0.000 C 
ATOM     14  O   UNL     1       2.615   6.156  20.075  0.00  0.00    +0.000 OA
BRANCH  13  15
ATOM     15  O   UNL     1       2.748   6.103  17.786  0.00  0.00    +0.000 OA
BRANCH  15  16
ATOM     16  C   UNL     1       3.557   4.920  17.830  0.00  0.00    +0.000 C 
BRANCH  16  17
ATOM     17  C   UNL     1       4.993   5.161  17.348  0.00  0.00    +0.000 C 
ATOM     18  C   UNL     1       5.372   6.659  17.328  0.00  0.00    +0.000 C 
ATOM     19  C   UNL     1       6.838   6.816  16.889  0.00  0.00    +0.000 C 
ATOM     20  N   UNL     1       7.471   5.513  16.598  0.00  0.00    +0.000 NA
ATOM     21  C   UNL     1       6.706   4.839  15.529  0.00  0.00    +0.000 C 
ATOM     22  C   UNL     1       5.238   4.617  15.924  0.00  0.00    +0.000 C 
ATOM     23  C   UNL     1       7.429   4.678  17.813  0.00  0.00    +0.000 C 
ATOM     24  C   UNL     1       5.989   4.450  18.294  0.00  0.00    +0.000 C 
ENDBRANCH  16  17
ENDBRANCH  15  16
ENDBRANCH  13  15
ENDBRANCH   5  13
TORSDOF 4
ENDMDL
MODEL 3
REMARK VINA RESULT:      -7.5      4.293      6.292
REMARK  Name = 
REMARK  5 active torsions:
REMARK  status: ('A' for Active; 'I' for Inactive)
REMARK    1  A    between atoms: C_1  and  C_2
REMARK    2  A    between atoms: C_5  and  C_6
REMARK    3  A    between atoms: C_6  and  O_8
REMARK    4  A    between atoms: O_8  and  C_9
REMARK    5  A    between atoms: C_9  and  C_10
REMARK                            x       y       z     vdW  Elec       q    Type
REMARK                         _______ _______ _______ _____ _____    ______ ____
ROOT
ATOM      1  C   UNL     1       2.471   8.483  17.879  0.00  0.00    +0.000 C 
ATOM      2  C   UNL     1       2.206   7.363  18.848  0.00  0.00    +0.000 A 
ATOM      3  C   UNL     1       2.439   6.031  18.442  0.00  0.00    +0.000 A 
ATOM      4  C   UNL     1       2.198   4.955  19.329  0.00  0.00    +0.000 A 
ATOM      5  C   UNL     1       2.302   3.524  19.231  0.00  0.00    +0.000 A 
ATOM      6  C   UNL     1       1.910   3.021  20.462  0.00  0.00    +0.000 A 
ATOM      7  N   UNL     1       1.564   4.065  21.274  0.00  0.00    +0.000 N 
ATOM      8  C   UNL     1       1.725   5.256  20.608  0.00  0.00    +0.000 A 
ATOM      9  C   UNL     1       1.484   6.564  21.041  0.00  0.00    +0.000 A 
ATOM     10  C   UNL     1       1.731   7.610  20.142  0.00  0.00    +0.000 A 
ATOM     11 CL   UNL     1       1.420   9.218  20.698  0.00  0.00    +0.000 Cl
ATOM     12  H   UNL     1       1.221   3.980  22.221  0.00  0.00    +0.000 HD
ENDROOT
BRANCH   5  13
ATOM     13  C   UNL     1       2.685   2.722  18.071  0.00  0.00    +0.000 C 
ATOM     14  O   UNL     1       1.926   1.946  17.504  0.00  0.00    +0.000 OA
BRANCH  13  15
ATOM     15  O   UNL     1       4.002   2.890  17.743  0.00  0.00    +0.000 OA
BRANCH  15  16
ATOM     16  C   UNL     1       4.278   3.484  16.466  0.00  0.00    +0.000 C 
BRANCH  16  17
ATOM     17  C   UNL     1       5.434   4.491  16.514  0.00  0.00    +0.000 C 
ATOM     18  C   UNL     1       6.229   4.423  17.837  0.00  0.00    +0.000 C 
ATOM     19  C   UNL     1       7.402   5.419  17.788  0.00  0.00    +0.000 C 
ATOM     20  N   UNL     1       7.439   6.166  16.514  0.00  0.00    +0.000 NA
ATOM     21  C   UNL     1       6.164   6.897  16.351  0.00  0.00    +0.000 C 
ATOM     22  C   UNL     1       4.954   5.950  16.353  0.00  0.00    +0.000 C 
ATOM     23  C   UNL     1       7.585   5.210  15.401  0.00  0.00    +0.000 C 
ATOM     24  C   UNL     1       6.430   4.200  15.367  0.00  0.00    +0.000 C 
ENDBRANCH  16  17
ENDBRANCH  15  16
ENDBRANCH  13  15
ENDBRANCH   5  13
TORSDOF 4
ENDMDL
MODEL 4
REMARK VINA RESULT:      -7.5      4.168      6.229
REMARK  Name = 
REMARK  5 active torsions:
REMARK  status: ('A' for Active; 'I' for Inactive)
REMARK    1  A    between atoms: C_1  and  C_2
REMARK    2  A    between atoms: C_5  and  C_6
REMARK    3  A    between atoms: C_6  and  O_8
REMARK    4  A    between atoms: O_8  and  C_9
REMARK    5  A    between atoms: C_9  and  C_10
REMARK                            x       y       z     vdW  Elec       q    Type
REMARK                         _______ _______ _______ _____ _____    ______ ____
ROOT
ATOM      1  C   UNL     1       2.153   8.516  17.714  0.00  0.00    +0.000 C 
ATOM      2  C   UNL     1       2.056   7.428  18.750  0.00  0.00    +0.000 A 
ATOM      3  C   UNL     1       2.300   6.091  18.371  0.00  0.00    +0.000 A 
ATOM      4  C   UNL     1       2.215   5.046  19.321  0.00  0.00    +0.000 A 
ATOM      5  C   UNL     1       2.372   3.617  19.266  0.00  0.00    +0.000 A 
ATOM      6  C   UNL     1       2.152   3.153  20.554  0.00  0.00    +0.000 A 
ATOM      7  N   UNL     1       1.856   4.216  21.360  0.00  0.00    +0.000 N 
ATOM      8  C   UNL     1       1.883   5.383  20.634  0.00  0.00    +0.000 A 
ATOM      9  C   UNL     1       1.635   6.697  21.043  0.00  0.00    +0.000 A 
ATOM     10  C   UNL     1       1.726   7.712  20.082  0.00  0.00    +0.000 A 
ATOM     11 CL   UNL     1       1.409   9.329  20.608  0.00  0.00    +0.000 Cl
ATOM     12  H   UNL     1       1.630   4.158  22.343  0.00  0.00    +0.000 HD
ENDROOT
BRANCH   5  13
ATOM     13  C   UNL     1       2.653   2.781  18.100  0.00  0.00    +0.000 C 
ATOM     14  O   UNL     1       1.845   1.995  17.621  0.00  0.00    +0.000 OA
BRANCH  13  15
ATOM     15  O   UNL     1       3.938   2.933  17.658  0.00  0.00    +0.000 OA
BRANCH  15  16
ATOM     16  C   UNL     1       4.118   3.664  16.436  0.00  0.00    +0.000 C 
BRANCH  16  17
ATOM     17  C   UNL     1       5.355   4.570  16.460  0.00  0.00    +0.000 C 
ATOM     18  C   UNL     1       4.997   6.072  16.380  0.00  0.00    +0.000 C 
ATOM     19  C   UNL     1       6.281   6.915  16.466  0.00  0.00    +0.000 C 
ATOM     20  N   UNL     1       7.489   6.073  16.587  0.00  0.00    +0.000 NA
ATOM     21  C   UNL     1       7.566   5.176  15.415  0.00  0.00    +0.000 C 
ATOM     22  C   UNL     1       6.325   4.277  15.296  0.00  0.00    +0.000 C 
ATOM     23  C   UNL     1       7.380   5.252  17.808  0.00  0.00    +0.000 C 
ATOM     24  C   UNL     1       6.134   4.357  17.780  0.00  0.00    +0.000 C 
ENDBRANCH  16  17
ENDBRANCH  15  16
ENDBRANCH  13  15
ENDBRANCH   5  13
TORSDOF 4
ENDMDL
MODEL 5
REMARK VINA RESULT:      -7.4      3.219      4.503
REMARK  Name = 
REMARK  5 active torsions:
REMARK  status: ('A' for Active; 'I' for Inactive)
REMARK    1  A    between atoms: C_1  and  C_2
REMARK    2  A    between atoms: C_5  and  C_6
REMARK    3  A    between atoms: C_6  and  O_8
REMARK    4  A    between atoms: O_8  and  C_9
REMARK    5  A    between atoms: C_9  and  C_10
REMARK                            x       y       z     vdW  Elec       q    Type
REMARK                         _______ _______ _______ _____ _____    ______ ____
ROOT
ATOM      1  C   UNL     1      -0.403   9.695  23.249  0.00  0.00    +0.000 C 
ATOM      2  C   UNL     1       0.025   9.989  21.837  0.00  0.00    +0.000 A 
ATOM      3  C   UNL     1       0.709   8.997  21.102  0.00  0.00    +0.000 A 
ATOM      4  C   UNL     1       1.126   9.244  19.773  0.00  0.00    +0.000 A 
ATOM      5  C   UNL     1       1.844   8.486  18.784  0.00  0.00    +0.000 A 
ATOM      6  C   UNL     1       1.941   9.301  17.666  0.00  0.00    +0.000 A 
ATOM      7  N   UNL     1       1.342  10.498  17.941  0.00  0.00    +0.000 N 
ATOM      8  C   UNL     1       0.839  10.493  19.220  0.00  0.00    +0.000 A 
ATOM      9  C   UNL     1       0.163  11.498  19.920  0.00  0.00    +0.000 A 
ATOM     10  C   UNL     1      -0.238  11.226  21.235  0.00  0.00    +0.000 A 
ATOM     11 CL   UNL     1      -1.067  12.485  22.083  0.00  0.00    +0.000 Cl
ATOM     12  H   UNL     1       1.288  11.283  17.307  0.00  0.00    +0.000 HD
ENDROOT
BRANCH   5  13
ATOM     13  C   UNL     1       2.420   7.149  18.910  0.00  0.00    +0.000 C 
ATOM     14  O   UNL     1       2.306   6.454  19.912  0.00  0.00    +0.000 OA
BRANCH  13  15
ATOM     15  O   UNL     1       3.154   6.801  17.809  0.00  0.00    +0.000 OA
BRANCH  15  16
ATOM     16  C   UNL     1       3.589   5.436  17.730  0.00  0.00    +0.000 C 
BRANCH  16  17
ATOM     17  C   UNL     1       5.071   5.303  17.358  0.00  0.00    +0.000 C 
ATOM     18  C   UNL     1       5.943   4.827  18.542  0.00  0.00    +0.000 C 
ATOM     19  C   UNL     1       7.402   4.664  18.078  0.00  0.00    +0.000 C 
ATOM     20  N   UNL     1       7.570   5.014  16.652  0.00  0.00    +0.000 NA
ATOM     21  C   UNL     1       7.142   6.414  16.450  0.00  0.00    +0.000 C 
ATOM     22  C   UNL     1       5.677   6.633  16.860  0.00  0.00    +0.000 C 
ATOM     23  C   UNL     1       6.714   4.132  15.837  0.00  0.00    +0.000 C 
ATOM     24  C   UNL     1       5.235   4.264  16.224  0.00  0.00    +0.000 C 
ENDBRANCH  16  17
ENDBRANCH  15  16
ENDBRANCH  13  15
ENDBRANCH   5  13
TORSDOF 4
ENDMDL
MODEL 6
REMARK VINA RESULT:      -7.4      3.354      4.854
REMARK  Name = 
REMARK  5 active torsions:
REMARK  status: ('A' for Active; 'I' for Inactive)
REMARK    1  A    between atoms: C_1  and  C_2
REMARK    2  A    between atoms: C_5  and  C_6
REMARK    3  A    between atoms: C_6  and  O_8
REMARK    4  A    between atoms: O_8  and  C_9
REMARK    5  A    between atoms: C_9  and  C_10
REMARK                            x       y       z     vdW  Elec       q    Type
REMARK                         _______ _______ _______ _____ _____    ______ ____
ROOT
ATOM      1  C   UNL     1      -0.261   9.719  23.349  0.00  0.00    +0.000 C 
ATOM      2  C   UNL     1       0.262   9.727  21.938  0.00  0.00    +0.000 A 
ATOM      3  C   UNL     1       0.865   8.562  21.419  0.00  0.00    +0.000 A 
ATOM      4  C   UNL     1       1.368   8.539  20.097  0.00  0.00    +0.000 A 
ATOM      5  C   UNL     1       2.042   7.557  19.291  0.00  0.00    +0.000 A 
ATOM      6  C   UNL     1       2.281   8.159  18.065  0.00  0.00    +0.000 A 
ATOM      7  N   UNL     1       1.807   9.440  18.104  0.00  0.00    +0.000 N 
ATOM      8  C   UNL     1       1.249   9.701  19.332  0.00  0.00    +0.000 A 
ATOM      9  C   UNL     1       0.657  10.872  19.816  0.00  0.00    +0.000 A 
ATOM     10  C   UNL     1       0.167  10.867  21.129  0.00  0.00    +0.000 A 
ATOM     11 CL   UNL     1      -0.555  12.328  21.708  0.00  0.00    +0.000 Cl
ATOM     12  H   UNL     1       1.870  10.110  17.350  0.00  0.00    +0.000 HD
ENDROOT
BRANCH   5  13
ATOM     13  C   UNL     1       2.459   6.208  19.668  0.00  0.00    +0.000 C 
ATOM     14  O   UNL     1       1.793   5.468  20.381  0.00  0.00    +0.000 OA
BRANCH  13  15
ATOM     15  O   UNL     1       3.703   5.902  19.187  0.00  0.00    +0.000 OA
BRANCH  15  16
ATOM     16  C   UNL     1       3.755   5.128  17.980  0.00  0.00    +0.000 C 
BRANCH  16  17
ATOM     17  C   UNL     1       5.155   5.093  17.355  0.00  0.00    +0.000 C 
ATOM     18  C   UNL     1       5.203   4.276  16.044  0.00  0.00    +0.000 C 
ATOM     19  C   UNL     1       6.621   4.333  15.450  0.00  0.00    +0.000 C 
ATOM     20  N   UNL     1       7.540   5.130  16.288  0.00  0.00    +0.000 NA
ATOM     21  C   UNL     1       7.595   4.532  17.638  0.00  0.00    +0.000 C 
ATOM     22  C   UNL     1       6.211   4.482  18.303  0.00  0.00    +0.000 C 
ATOM     23  C   UNL     1       7.018   6.505  16.398  0.00  0.00    +0.000 C 
ATOM     24  C   UNL     1       5.613   6.531  17.014  0.00  0.00    +0.000 C 
ENDBRANCH  16  17
ENDBRANCH  15  16
ENDBRANCH  13  15
ENDBRANCH   5  13
TORSDOF 4
ENDMDL
MODEL 7
REMARK VINA RESULT:      -7.3      2.373      3.572
REMARK  Name = 
REMARK  5 active torsions:
REMARK  status: ('A' for Active; 'I' for Inactive)
REMARK    1  A    between atoms: C_1  and  C_2
REMARK    2  A    between atoms: C_5  and  C_6
REMARK    3  A    between atoms: C_6  and  O_8
REMARK    4  A    between atoms: O_8  and  C_9
REMARK    5  A    between atoms: C_9  and  C_10
REMARK                            x       y       z     vdW  Elec       q    Type
REMARK                         _______ _______ _______ _____ _____    ______ ____
ROOT
ATOM      1  C   UNL     1       0.285   9.355  23.679  0.00  0.00    +0.000 C 
ATOM      2  C   UNL     1       0.200   9.766  22.234  0.00  0.00    +0.000 A 
ATOM      3  C   UNL     1       0.949   9.058  21.270  0.00  0.00    +0.000 A 
ATOM      4  C   UNL     1       0.892   9.421  19.904  0.00  0.00    +0.000 A 
ATOM      5  C   UNL     1       1.527   8.943  18.706  0.00  0.00    +0.000 A 
ATOM      6  C   UNL     1       1.050   9.734  17.671  0.00  0.00    +0.000 A 
ATOM      7  N   UNL     1       0.188  10.660  18.188  0.00  0.00    +0.000 N 
ATOM      8  C   UNL     1       0.076  10.496  19.548  0.00  0.00    +0.000 A 
ATOM      9  C   UNL     1      -0.679  11.219  20.477  0.00  0.00    +0.000 A 
ATOM     10  C   UNL     1      -0.603  10.838  21.823  0.00  0.00    +0.000 A 
ATOM     11 CL   UNL     1      -1.541  11.750  22.956  0.00  0.00    +0.000 Cl
ATOM     12  H   UNL     1      -0.287  11.377  17.656  0.00  0.00    +0.000 HD
ENDROOT
BRANCH   5  13
ATOM     13  C   UNL     1       2.520   7.879  18.570  0.00  0.00    +0.000 C 
ATOM     14  O   UNL     1       3.333   7.824  17.655  0.00  0.00    +0.000 OA
BRANCH  13  15
ATOM     15  O   UNL     1       2.386   6.925  19.541  0.00  0.00    +0.000 OA
BRANCH  15  16
ATOM     16  C   UNL     1       3.372   5.882  19.561  0.00  0.00    +0.000 C 
BRANCH  16  17
ATOM     17  C   UNL     1       2.755   4.479  19.552  0.00  0.00    +0.000 C 
ATOM     18  C   UNL     1       3.817   3.361  19.447  0.00  0.00    +0.000 C 
ATOM     19  C   UNL     1       3.129   1.986  19.501  0.00  0.00    +0.000 C 
ATOM     20  N   UNL     1       1.661   2.107  19.622  0.00  0.00    +0.000 NA
ATOM     21  C   UNL     1       1.148   2.871  18.466  0.00  0.00    +0.000 C 
ATOM     22  C   UNL     1       1.771   4.273  18.380  0.00  0.00    +0.000 C 
ATOM     23  C   UNL     1       1.341   2.843  20.859  0.00  0.00    +0.000 C 
ATOM     24  C   UNL     1       1.971   4.243  20.864  0.00  0.00    +0.000 C 
ENDBRANCH  16  17
ENDBRANCH  15  16
ENDBRANCH  13  15
ENDBRANCH   5  13
TORSDOF 4
ENDMDL
MODEL 8
REMARK VINA RESULT:      -7.2      4.154      6.216
REMARK  Name = 
REMARK  5 active torsions:
REMARK  status: ('A' for Active; 'I' for Inactive)
REMARK    1  A    between atoms: C_1  and  C_2
REMARK    2  A    between atoms: C_5  and  C_6
REMARK    3  A    between atoms: C_6  and  O_8
REMARK    4  A    between atoms: O_8  and  C_9
REMARK    5  A    between atoms: C_9  and  C_10
REMARK                            x       y       z     vdW  Elec       q    Type
REMARK                         _______ _______ _______ _____ _____    ______ ____
ROOT
ATOM      1  C   UNL     1       2.305   8.644  17.897  0.00  0.00    +0.000 C 
ATOM      2  C   UNL     1       2.095   7.484  18.832  0.00  0.00    +0.000 A 
ATOM      3  C   UNL     1       2.222   6.168  18.339  0.00  0.00    +0.000 A 
ATOM      4  C   UNL     1       2.028   5.057  19.192  0.00  0.00    +0.000 A 
ATOM      5  C   UNL     1       2.056   3.630  19.013  0.00  0.00    +0.000 A 
ATOM      6  C   UNL     1       1.775   3.077  20.254  0.00  0.00    +0.000 A 
ATOM      7  N   UNL     1       1.564   4.089  21.148  0.00  0.00    +0.000 N 
ATOM      8  C   UNL     1       1.708   5.307  20.528  0.00  0.00    +0.000 A 
ATOM      9  C   UNL     1       1.574   6.598  21.049  0.00  0.00    +0.000 A 
ATOM     10  C   UNL     1       1.771   7.680  20.181  0.00  0.00    +0.000 A 
ATOM     11 CL   UNL     1       1.594   9.268  20.845  0.00  0.00    +0.000 Cl
ATOM     12  H   UNL     1       1.320   3.967  22.121  0.00  0.00    +0.000 HD
ENDROOT
BRANCH   5  13
ATOM     13  C   UNL     1       2.277   2.876  17.781  0.00  0.00    +0.000 C 
ATOM     14  O   UNL     1       1.693   1.835  17.510  0.00  0.00    +0.000 OA
BRANCH  13  15
ATOM     15  O   UNL     1       3.257   3.434  17.007  0.00  0.00    +0.000 OA
BRANCH  15  16
ATOM     16  C   UNL     1       4.613   3.200  17.414  0.00  0.00    +0.000 C 
BRANCH  16  17
ATOM     17  C   UNL     1       5.570   4.314  16.972  0.00  0.00    +0.000 C 
ATOM     18  C   UNL     1       6.366   3.947  15.700  0.00  0.00    +0.000 C 
ATOM     19  C   UNL     1       7.259   5.131  15.288  0.00  0.00    +0.000 C 
ATOM     20  N   UNL     1       7.123   6.273  16.214  0.00  0.00    +0.000 NA
ATOM     21  C   UNL     1       7.489   5.830  17.576  0.00  0.00    +0.000 C 
ATOM     22  C   UNL     1       6.604   4.672  18.061  0.00  0.00    +0.000 C 
ATOM     23  C   UNL     1       5.718   6.721  16.221  0.00  0.00    +0.000 C 
ATOM     24  C   UNL     1       4.767   5.598  16.654  0.00  0.00    +0.000 C 
ENDBRANCH  16  17
ENDBRANCH  15  16
ENDBRANCH  13  15
ENDBRANCH   5  13
TORSDOF 4
ENDMDL
MODEL 9
REMARK VINA RESULT:      -7.1      0.688      1.444
REMARK  Name = 
REMARK  5 active torsions:
REMARK  status: ('A' for Active; 'I' for Inactive)
REMARK    1  A    between atoms: C_1  and  C_2
REMARK    2  A    between atoms: C_5  and  C_6
REMARK    3  A    between atoms: C_6  and  O_8
REMARK    4  A    between atoms: O_8  and  C_9
REMARK    5  A    between atoms: C_9  and  C_10
REMARK                            x       y       z     vdW  Elec       q    Type
REMARK                         _______ _______ _______ _____ _____    ______ ____
ROOT
ATOM      1  C   UNL     1      -3.322   9.739  15.558  0.00  0.00    +0.000 C 
ATOM      2  C   UNL     1      -2.725  10.269  16.833  0.00  0.00    +0.000 A 
ATOM      3  C   UNL     1      -1.365  10.017  17.115  0.00  0.00    +0.000 A 
ATOM      4  C   UNL     1      -0.774  10.501  18.306  0.00  0.00    +0.000 A 
ATOM      5  C   UNL     1       0.534  10.404  18.894  0.00  0.00    +0.000 A 
ATOM      6  C   UNL     1       0.473  11.098  20.093  0.00  0.00    +0.000 A 
ATOM      7  N   UNL     1      -0.795  11.582  20.257  0.00  0.00    +0.000 N 
ATOM      8  C   UNL     1      -1.578  11.229  19.185  0.00  0.00    +0.000 A 
ATOM      9  C   UNL     1      -2.928  11.497  18.936  0.00  0.00    +0.000 A 
ATOM     10  C   UNL     1      -3.488  11.006  17.749  0.00  0.00    +0.000 A 
ATOM     11 CL   UNL     1      -5.160  11.344  17.465  0.00  0.00    +0.000 Cl
ATOM     12  H   UNL     1      -1.121  12.107  21.056  0.00  0.00    +0.000 HD
ENDROOT
BRANCH   5  13
ATOM     13  C   UNL     1       1.702   9.684  18.391  0.00  0.00    +0.000 C 
ATOM     14  O   UNL     1       2.494  10.157  17.584  0.00  0.00    +0.000 OA
BRANCH  13  15
ATOM     15  O   UNL     1       1.765   8.406  18.875  0.00  0.00    +0.000 OA
BRANCH  15  16
ATOM     16  C   UNL     1       2.147   7.383  17.945  0.00  0.00    +0.000 C 
BRANCH  16  17
ATOM     17  C   UNL     1       2.514   6.061  18.630  0.00  0.00    +0.000 C 
ATOM     18  C   UNL     1       4.039   5.817  18.679  0.00  0.00    +0.000 C 
ATOM     19  C   UNL     1       4.329   4.504  19.428  0.00  0.00    +0.000 C 
ATOM     20  N   UNL     1       3.089   3.838  19.877  0.00  0.00    +0.000 NA
ATOM     21  C   UNL     1       2.244   3.557  18.698  0.00  0.00    +0.000 C 
ATOM     22  C   UNL     1       1.886   4.837  17.928  0.00  0.00    +0.000 C 
ATOM     23  C   UNL     1       2.359   4.746  20.781  0.00  0.00    +0.000 C 
ATOM     24  C   UNL     1       2.005   6.070  20.091  0.00  0.00    +0.000 C 
ENDBRANCH  16  17
ENDBRANCH  15  16
ENDBRANCH  13  15
ENDBRANCH   5  13
TORSDOF 4
ENDMDL
