MODEL 1
REMARK VINA RESULT:      -7.2      0.000      0.000
REMARK  Name = 
REMARK  5 active torsions:
REMARK  status: ('A' for Active; 'I' for Inactive)
REMARK    1  A    between atoms: C_1  and  C_2
REMARK    2  A    between atoms: C_2  and  O_3
REMARK    3  A    between atoms: O_3  and  C_4
REMARK    4  A    between atoms: C_7  and  C_8
REMARK    5  A    between atoms: C_15  and  C_16
REMARK                            x       y       z     vdW  Elec       q    Type
REMARK                         _______ _______ _______ _____ _____    ______ ____
ROOT
ATOM      1  C   UNL     1       2.900   6.766  18.555  0.00  0.00    +0.000 A 
ATOM      2  C   UNL     1       2.731   6.362  19.861  0.00  0.00    +0.000 A 
ATOM      3  S   UNL     1       1.738   7.460  20.698  0.00  0.00    +0.000 S 
ATOM      4  C   UNL     1       1.610   8.444  19.272  0.00  0.00    +0.000 A 
ATOM      5  N   UNL     1       0.926   9.621  19.293  0.00  0.00    +0.000 N 
ATOM      6  C   UNL     1       1.225  10.666  18.328  0.00  0.00    +0.000 C 
ATOM      7  C   UNL     1       1.323  11.989  19.100  0.00  0.00    +0.000 C 
ATOM      8  C   UNL     1       0.056  12.274  19.925  0.00  0.00    +0.000 C 
ATOM      9  C   UNL     1      -0.328  11.062  20.790  0.00  0.00    +0.000 C 
ATOM     10  C   UNL     1      -0.351   9.761  19.988  0.00  0.00    +0.000 C 
ATOM     11  N   UNL     1       2.303   7.984  18.247  0.00  0.00    +0.000 NA
ENDROOT
BRANCH   1  15
ATOM     12  C   UNL     1       5.333   4.516  15.844  0.00  0.00    +0.000 A 
ATOM     13  C   UNL     1       4.418   3.868  16.671  0.00  0.00    +0.000 A 
ATOM     14  C   UNL     1       3.593   4.603  17.525  0.00  0.00    +0.000 A 
ATOM     15  C   UNL     1       3.690   6.001  17.592  0.00  0.00    +0.000 A 
ATOM     16  C   UNL     1       4.592   6.647  16.740  0.00  0.00    +0.000 A 
ATOM     17  C   UNL     1       5.415   5.908  15.874  0.00  0.00    +0.000 A 
BRANCH  12  18
ATOM     18  O   UNL     1       6.117   3.682  15.096  0.00  0.00    +0.000 OA
BRANCH  18  20
ATOM     19  C   UNL     1       5.914   3.528  12.732  0.00  0.00    +0.000 C 
ATOM     20  C   UNL     1       6.629   4.219  13.880  0.00  0.00    +0.000 C 
ENDBRANCH  18  20
ENDBRANCH  12  18
ENDBRANCH   1  15
BRANCH   8  21
ATOM     21  C   UNL     1      -1.099  12.713  19.035  0.00  0.00    +0.000 C 
ATOM     22  N   UNL     1      -0.732  13.263  17.842  0.00  0.00    +0.000 N 
ATOM     23  O   UNL     1      -2.283  12.614  19.332  0.00  0.00    +0.000 OA
ATOM     24  H   UNL     1       0.217  13.546  17.641  0.00  0.00    +0.000 HD
ATOM     25  H   UNL     1      -1.474  13.626  17.258  0.00  0.00    +0.000 HD
ENDBRANCH   8  21
TORSDOF 4
ENDMDL
MODEL 2
REMARK VINA RESULT:      -7.2      2.487      9.044
REMARK  Name = 
REMARK  5 active torsions:
REMARK  status: ('A' for Active; 'I' for Inactive)
REMARK    1  A    between atoms: C_1  and  C_2
REMARK    2  A    between atoms: C_2  and  O_3
REMARK    3  A    between atoms: O_3  and  C_4
REMARK    4  A    between atoms: C_7  and  C_8
REMARK    5  A    between atoms: C_15  and  C_16
REMARK                            x       y       z     vdW  Elec       q    Type
REMARK                         _______ _______ _______ _____ _____    ______ ____
ROOT
ATOM      1  C   UNL     1       1.610   7.459  20.498  0.00  0.00    +0.000 A 
ATOM      2  C   UNL     1       1.210   6.219  20.946  0.00  0.00    +0.000 A 
ATOM      3  S   UNL     1       2.215   5.004  20.309  0.00  0.00    +0.000 S 
ATOM      4  C   UNL     1       3.121   6.201  19.434  0.00  0.00    +0.000 A 
ATOM      5  N   UNL     1       4.136   5.839  18.603  0.00  0.00    +0.000 N 
ATOM      6  C   UNL     1       4.544   6.712  17.514  0.00  0.00    +0.000 C 
ATOM      7  C   UNL     1       4.688   5.842  16.257  0.00  0.00    +0.000 C 
ATOM      8  C   UNL     1       5.649   4.661  16.478  0.00  0.00    +0.000 C 
ATOM      9  C   UNL     1       5.288   3.880  17.752  0.00  0.00    +0.000 C 
ATOM     10  C   UNL     1       5.094   4.797  18.959  0.00  0.00    +0.000 C 
ATOM     11  N   UNL     1       2.666   7.430  19.592  0.00  0.00    +0.000 NA
ENDROOT
BRANCH   1  15
ATOM     12  C   UNL     1      -0.491  11.004  21.657  0.00  0.00    +0.000 A 
ATOM     13  C   UNL     1      -0.074  10.087  22.620  0.00  0.00    +0.000 A 
ATOM     14  C   UNL     1       0.649   8.952  22.249  0.00  0.00    +0.000 A 
ATOM     15  C   UNL     1       0.942   8.695  20.901  0.00  0.00    +0.000 A 
ATOM     16  C   UNL     1       0.543   9.633  19.943  0.00  0.00    +0.000 A 
ATOM     17  C   UNL     1      -0.175  10.780  20.317  0.00  0.00    +0.000 A 
BRANCH  12  18
ATOM     18  O   UNL     1      -1.235  12.043  22.143  0.00  0.00    +0.000 OA
BRANCH  18  20
ATOM     19  C   UNL     1      -3.296  12.746  23.100  0.00  0.00    +0.000 C 
ATOM     20  C   UNL     1      -2.175  11.723  23.166  0.00  0.00    +0.000 C 
ENDBRANCH  18  20
ENDBRANCH  12  18
ENDBRANCH   1  15
BRANCH   8  21
ATOM     21  C   UNL     1       7.100   5.123  16.498  0.00  0.00    +0.000 C 
ATOM     22  N   UNL     1       7.952   4.316  17.193  0.00  0.00    +0.000 N 
ATOM     23  O   UNL     1       7.514   6.141  15.959  0.00  0.00    +0.000 OA
ATOM     24  H   UNL     1       7.630   3.586  17.813  0.00  0.00    +0.000 HD
ATOM     25  H   UNL     1       8.910   4.630  17.282  0.00  0.00    +0.000 HD
ENDBRANCH   8  21
TORSDOF 4
ENDMDL
MODEL 3
REMARK VINA RESULT:      -7.1      0.595      1.166
REMARK  Name = 
REMARK  5 active torsions:
REMARK  status: ('A' for Active; 'I' for Inactive)
REMARK    1  A    between atoms: C_1  and  C_2
REMARK    2  A    between atoms: C_2  and  O_3
REMARK    3  A    between atoms: O_3  and  C_4
REMARK    4  A    between atoms: C_7  and  C_8
REMARK    5  A    between atoms: C_15  and  C_16
REMARK                            x       y       z     vdW  Elec       q    Type
REMARK                         _______ _______ _______ _____ _____    ______ ____
ROOT
ATOM      1  C   UNL     1       2.884   6.769  18.664  0.00  0.00    +0.000 A 
ATOM      2  C   UNL     1       2.468   6.388  19.921  0.00  0.00    +0.000 A 
ATOM      3  S   UNL     1       1.471   7.583  20.605  0.00  0.00    +0.000 S 
ATOM      4  C   UNL     1       1.673   8.572  19.191  0.00  0.00    +0.000 A 
ATOM      5  N   UNL     1       1.117   9.813  19.120  0.00  0.00    +0.000 N 
ATOM      6  C   UNL     1       1.671  10.820  18.230  0.00  0.00    +0.000 C 
ATOM      7  C   UNL     1       1.779  12.128  19.027  0.00  0.00    +0.000 C 
ATOM      8  C   UNL     1       0.432  12.542  19.643  0.00  0.00    +0.000 C 
ATOM      9  C   UNL     1      -0.207  11.378  20.418  0.00  0.00    +0.000 C 
ATOM     10  C   UNL     1      -0.233  10.084  19.604  0.00  0.00    +0.000 C 
ATOM     11  N   UNL     1       2.471   8.041  18.283  0.00  0.00    +0.000 NA
ENDROOT
BRANCH   1  15
ATOM     12  C   UNL     1       5.264   4.302  16.099  0.00  0.00    +0.000 A 
ATOM     13  C   UNL     1       5.421   5.686  16.087  0.00  0.00    +0.000 A 
ATOM     14  C   UNL     1       4.677   6.490  16.953  0.00  0.00    +0.000 A 
ATOM     15  C   UNL     1       3.736   5.926  17.828  0.00  0.00    +0.000 A 
ATOM     16  C   UNL     1       3.602   4.533  17.853  0.00  0.00    +0.000 A 
ATOM     17  C   UNL     1       4.358   3.724  16.989  0.00  0.00    +0.000 A 
BRANCH  12  18
ATOM     18  O   UNL     1       6.011   3.635  15.168  0.00  0.00    +0.000 OA
BRANCH  18  20
ATOM     19  C   UNL     1       6.038   3.601  12.790  0.00  0.00    +0.000 C 
ATOM     20  C   UNL     1       6.422   4.389  14.030  0.00  0.00    +0.000 C 
ENDBRANCH  18  20
ENDBRANCH  12  18
ENDBRANCH   1  15
BRANCH   8  21
ATOM     21  C   UNL     1      -0.515  13.096  18.587  0.00  0.00    +0.000 C 
ATOM     22  N   UNL     1      -0.526  14.455  18.478  0.00  0.00    +0.000 N 
ATOM     23  O   UNL     1      -1.242  12.412  17.877  0.00  0.00    +0.000 OA
ATOM     24  H   UNL     1      -0.102  15.062  19.166  0.00  0.00    +0.000 HD
ATOM     25  H   UNL     1      -1.194  14.858  17.832  0.00  0.00    +0.000 HD
ENDBRANCH   8  21
TORSDOF 4
ENDMDL
MODEL 4
REMARK VINA RESULT:      -7.1      2.485      8.999
REMARK  Name = 
REMARK  5 active torsions:
REMARK  status: ('A' for Active; 'I' for Inactive)
REMARK    1  A    between atoms: C_1  and  C_2
REMARK    2  A    between atoms: C_2  and  O_3
REMARK    3  A    between atoms: O_3  and  C_4
REMARK    4  A    between atoms: C_7  and  C_8
REMARK    5  A    between atoms: C_15  and  C_16
REMARK                            x       y       z     vdW  Elec       q    Type
REMARK                         _______ _______ _______ _____ _____    ______ ____
ROOT
ATOM      1  C   UNL     1       1.577   7.393  20.536  0.00  0.00    +0.000 A 
ATOM      2  C   UNL     1       1.170   6.140  20.940  0.00  0.00    +0.000 A 
ATOM      3  S   UNL     1       2.180   4.944  20.276  0.00  0.00    +0.000 S 
ATOM      4  C   UNL     1       3.097   6.166  19.449  0.00  0.00    +0.000 A 
ATOM      5  N   UNL     1       4.120   5.830  18.616  0.00  0.00    +0.000 N 
ATOM      6  C   UNL     1       4.540   6.735  17.559  0.00  0.00    +0.000 C 
ATOM      7  C   UNL     1       4.695   5.906  16.277  0.00  0.00    +0.000 C 
ATOM      8  C   UNL     1       5.653   4.717  16.470  0.00  0.00    +0.000 C 
ATOM      9  C   UNL     1       5.278   3.896  17.715  0.00  0.00    +0.000 C 
ATOM     10  C   UNL     1       5.073   4.775  18.949  0.00  0.00    +0.000 C 
ATOM     11  N   UNL     1       2.641   7.390  19.640  0.00  0.00    +0.000 NA
ENDROOT
BRANCH   1  15
ATOM     12  C   UNL     1      -0.243  11.036  21.854  0.00  0.00    +0.000 A 
ATOM     13  C   UNL     1       0.138  10.882  20.524  0.00  0.00    +0.000 A 
ATOM     14  C   UNL     1       0.693   9.679  20.081  0.00  0.00    +0.000 A 
ATOM     15  C   UNL     1       0.906   8.616  20.971  0.00  0.00    +0.000 A 
ATOM     16  C   UNL     1       0.497   8.768  22.300  0.00  0.00    +0.000 A 
ATOM     17  C   UNL     1      -0.070   9.974  22.743  0.00  0.00    +0.000 A 
BRANCH  12  18
ATOM     18  O   UNL     1      -0.722  12.277  22.171  0.00  0.00    +0.000 OA
BRANCH  18  20
ATOM     19  C   UNL     1      -2.967  12.636  22.870  0.00  0.00    +0.000 C 
ATOM     20  C   UNL     1      -2.022  12.596  21.681  0.00  0.00    +0.000 C 
ENDBRANCH  18  20
ENDBRANCH  12  18
ENDBRANCH   1  15
BRANCH   8  21
ATOM     21  C   UNL     1       7.104   5.175  16.520  0.00  0.00    +0.000 C 
ATOM     22  N   UNL     1       7.957   4.323  17.156  0.00  0.00    +0.000 N 
ATOM     23  O   UNL     1       7.518   6.229  16.051  0.00  0.00    +0.000 OA
ATOM     24  H   UNL     1       7.635   3.552  17.724  0.00  0.00    +0.000 HD
ATOM     25  H   UNL     1       8.915   4.629  17.265  0.00  0.00    +0.000 HD
ENDBRANCH   8  21
TORSDOF 4
ENDMDL
MODEL 5
REMARK VINA RESULT:      -7.0      2.404      8.866
REMARK  Name = 
REMARK  5 active torsions:
REMARK  status: ('A' for Active; 'I' for Inactive)
REMARK    1  A    between atoms: C_1  and  C_2
REMARK    2  A    between atoms: C_2  and  O_3
REMARK    3  A    between atoms: O_3  and  C_4
REMARK    4  A    between atoms: C_7  and  C_8
REMARK    5  A    between atoms: C_15  and  C_16
REMARK                            x       y       z     vdW  Elec       q    Type
REMARK                         _______ _______ _______ _____ _____    ______ ____
ROOT
ATOM      1  C   UNL     1       1.685   7.438  20.394  0.00  0.00    +0.000 A 
ATOM      2  C   UNL     1       1.283   6.235  20.933  0.00  0.00    +0.000 A 
ATOM      3  S   UNL     1       2.285   4.974  20.387  0.00  0.00    +0.000 S 
ATOM      4  C   UNL     1       3.192   6.101  19.425  0.00  0.00    +0.000 A 
ATOM      5  N   UNL     1       4.205   5.677  18.621  0.00  0.00    +0.000 N 
ATOM      6  C   UNL     1       4.614   6.465  17.470  0.00  0.00    +0.000 C 
ATOM      7  C   UNL     1       4.754   5.504  16.281  0.00  0.00    +0.000 C 
ATOM      8  C   UNL     1       5.713   4.341  16.587  0.00  0.00    +0.000 C 
ATOM      9  C   UNL     1       5.352   3.657  17.916  0.00  0.00    +0.000 C 
ATOM     10  C   UNL     1       5.162   4.662  19.052  0.00  0.00    +0.000 C 
ATOM     11  N   UNL     1       2.739   7.339  19.491  0.00  0.00    +0.000 NA
ENDROOT
BRANCH   1  15
ATOM     12  C   UNL     1      -0.407  11.067  21.274  0.00  0.00    +0.000 A 
ATOM     13  C   UNL     1      -0.104  10.166  22.292  0.00  0.00    +0.000 A 
ATOM     14  C   UNL     1       0.616   9.002  22.015  0.00  0.00    +0.000 A 
ATOM     15  C   UNL     1       1.020   8.701  20.705  0.00  0.00    +0.000 A 
ATOM     16  C   UNL     1       0.735   9.623  19.693  0.00  0.00    +0.000 A 
ATOM     17  C   UNL     1       0.020  10.799  19.973  0.00  0.00    +0.000 A 
BRANCH  12  18
ATOM     18  O   UNL     1      -1.161  12.139  21.666  0.00  0.00    +0.000 OA
BRANCH  18  20
ATOM     19  C   UNL     1      -3.199  12.792  20.628  0.00  0.00    +0.000 C 
ATOM     20  C   UNL     1      -1.689  12.955  20.623  0.00  0.00    +0.000 C 
ENDBRANCH  18  20
ENDBRANCH  12  18
ENDBRANCH   1  15
BRANCH   8  21
ATOM     21  C   UNL     1       7.165   4.800  16.571  0.00  0.00    +0.000 C 
ATOM     22  N   UNL     1       7.453   5.773  15.661  0.00  0.00    +0.000 N 
ATOM     23  O   UNL     1       8.045   4.347  17.293  0.00  0.00    +0.000 OA
ATOM     24  H   UNL     1       6.818   6.032  14.919  0.00  0.00    +0.000 HD
ATOM     25  H   UNL     1       8.422   6.052  15.580  0.00  0.00    +0.000 HD
ENDBRANCH   8  21
TORSDOF 4
ENDMDL
MODEL 6
REMARK VINA RESULT:      -7.0      2.807      9.378
REMARK  Name = 
REMARK  5 active torsions:
REMARK  status: ('A' for Active; 'I' for Inactive)
REMARK    1  A    between atoms: C_1  and  C_2
REMARK    2  A    between atoms: C_2  and  O_3
REMARK    3  A    between atoms: O_3  and  C_4
REMARK    4  A    between atoms: C_7  and  C_8
REMARK    5  A    between atoms: C_15  and  C_16
REMARK                            x       y       z     vdW  Elec       q    Type
REMARK                         _______ _______ _______ _____ _____    ______ ____
ROOT
ATOM      1  C   UNL     1       1.307   9.044  19.776  0.00  0.00    +0.000 A 
ATOM      2  C   UNL     1       1.494   9.495  18.487  0.00  0.00    +0.000 A 
ATOM      3  S   UNL     1       2.257   8.303  17.545  0.00  0.00    +0.000 S 
ATOM      4  C   UNL     1       2.329   7.249  18.924  0.00  0.00    +0.000 A 
ATOM      5  N   UNL     1       2.934   6.032  18.842  0.00  0.00    +0.000 N 
ATOM      6  C   UNL     1       3.453   5.383  20.036  0.00  0.00    +0.000 C 
ATOM      7  C   UNL     1       4.860   4.868  19.704  0.00  0.00    +0.000 C 
ATOM      8  C   UNL     1       4.864   3.950  18.469  0.00  0.00    +0.000 C 
ATOM      9  C   UNL     1       4.134   4.607  17.286  0.00  0.00    +0.000 C 
ATOM     10  C   UNL     1       2.765   5.160  17.683  0.00  0.00    +0.000 C 
ATOM     11  N   UNL     1       1.839   7.783  20.026  0.00  0.00    +0.000 NA
ENDROOT
BRANCH   1  15
ATOM     12  C   UNL     1      -0.745  11.403  22.700  0.00  0.00    +0.000 A 
ATOM     13  C   UNL     1      -0.707  10.016  22.817  0.00  0.00    +0.000 A 
ATOM     14  C   UNL     1      -0.002   9.247  21.889  0.00  0.00    +0.000 A 
ATOM     15  C   UNL     1       0.653   9.851  20.804  0.00  0.00    +0.000 A 
ATOM     16  C   UNL     1       0.632  11.246  20.708  0.00  0.00    +0.000 A 
ATOM     17  C   UNL     1      -0.068  12.020  21.647  0.00  0.00    +0.000 A 
BRANCH  12  18
ATOM     18  O   UNL     1      -1.511  12.035  23.640  0.00  0.00    +0.000 OA
BRANCH  18  20
ATOM     19  C   UNL     1      -3.815  12.338  24.148  0.00  0.00    +0.000 C 
ATOM     20  C   UNL     1      -2.701  12.662  23.167  0.00  0.00    +0.000 C 
ENDBRANCH  18  20
ENDBRANCH  12  18
ENDBRANCH   1  15
BRANCH   8  21
ATOM     21  C   UNL     1       4.282   2.581  18.793  0.00  0.00    +0.000 C 
ATOM     22  N   UNL     1       4.843   1.954  19.866  0.00  0.00    +0.000 N 
ATOM     23  O   UNL     1       3.388   2.037  18.157  0.00  0.00    +0.000 OA
ATOM     24  H   UNL     1       5.704   2.268  20.293  0.00  0.00    +0.000 HD
ATOM     25  H   UNL     1       4.525   1.014  20.066  0.00  0.00    +0.000 HD
ENDBRANCH   8  21
TORSDOF 4
ENDMDL
MODEL 7
REMARK VINA RESULT:      -6.9      2.381      8.970
REMARK  Name = 
REMARK  5 active torsions:
REMARK  status: ('A' for Active; 'I' for Inactive)
REMARK    1  A    between atoms: C_1  and  C_2
REMARK    2  A    between atoms: C_2  and  O_3
REMARK    3  A    between atoms: O_3  and  C_4
REMARK    4  A    between atoms: C_7  and  C_8
REMARK    5  A    between atoms: C_15  and  C_16
REMARK                            x       y       z     vdW  Elec       q    Type
REMARK                         _______ _______ _______ _____ _____    ______ ____
ROOT
ATOM      1  C   UNL     1       1.693   7.461  20.266  0.00  0.00    +0.000 A 
ATOM      2  C   UNL     1       1.336   6.288  20.895  0.00  0.00    +0.000 A 
ATOM      3  S   UNL     1       2.359   5.019  20.411  0.00  0.00    +0.000 S 
ATOM      4  C   UNL     1       3.212   6.101  19.353  0.00  0.00    +0.000 A 
ATOM      5  N   UNL     1       4.218   5.648  18.554  0.00  0.00    +0.000 N 
ATOM      6  C   UNL     1       4.578   6.367  17.342  0.00  0.00    +0.000 C 
ATOM      7  C   UNL     1       4.716   5.331  16.218  0.00  0.00    +0.000 C 
ATOM      8  C   UNL     1       5.714   4.217  16.578  0.00  0.00    +0.000 C 
ATOM      9  C   UNL     1       5.403   3.616  17.959  0.00  0.00    +0.000 C 
ATOM     10  C   UNL     1       5.212   4.690  19.029  0.00  0.00    +0.000 C 
ATOM     11  N   UNL     1       2.727   7.328  19.346  0.00  0.00    +0.000 NA
ENDROOT
BRANCH   1  15
ATOM     12  C   UNL     1      -0.194  11.227  21.028  0.00  0.00    +0.000 A 
ATOM     13  C   UNL     1       0.329  10.946  19.769  0.00  0.00    +0.000 A 
ATOM     14  C   UNL     1       0.906   9.702  19.505  0.00  0.00    +0.000 A 
ATOM     15  C   UNL     1       1.000   8.725  20.508  0.00  0.00    +0.000 A 
ATOM     16  C   UNL     1       0.449   9.006  21.763  0.00  0.00    +0.000 A 
ATOM     17  C   UNL     1      -0.141  10.253  22.025  0.00  0.00    +0.000 A 
BRANCH  12  18
ATOM     18  O   UNL     1      -0.683  12.497  21.173  0.00  0.00    +0.000 OA
BRANCH  18  20
ATOM     19  C   UNL     1      -0.239  14.409  22.515  0.00  0.00    +0.000 C 
ATOM     20  C   UNL     1      -0.778  12.989  22.507  0.00  0.00    +0.000 C 
ENDBRANCH  18  20
ENDBRANCH  12  18
ENDBRANCH   1  15
BRANCH   8  21
ATOM     21  C   UNL     1       7.152   4.710  16.495  0.00  0.00    +0.000 C 
ATOM     22  N   UNL     1       7.422   5.527  15.438  0.00  0.00    +0.000 N 
ATOM     23  O   UNL     1       8.037   4.410  17.287  0.00  0.00    +0.000 OA
ATOM     24  H   UNL     1       6.788   5.640  14.659  0.00  0.00    +0.000 HD
ATOM     25  H   UNL     1       8.384   5.818  15.317  0.00  0.00    +0.000 HD
ENDBRANCH   8  21
TORSDOF 4
ENDMDL
MODEL 8
REMARK VINA RESULT:      -6.8      3.008      9.439
REMARK  Name = 
REMARK  5 active torsions:
REMARK  status: ('A' for Active; 'I' for Inactive)
REMARK    1  A    between atoms: C_1  and  C_2
REMARK    2  A    between atoms: C_2  and  O_3
REMARK    3  A    between atoms: O_3  and  C_4
REMARK    4  A    between atoms: C_7  and  C_8
REMARK    5  A    between atoms: C_15  and  C_16
REMARK                            x       y       z     vdW  Elec       q    Type
REMARK                         _______ _______ _______ _____ _____    ______ ____
ROOT
ATOM      1  C   UNL     1       1.408   8.515  19.853  0.00  0.00    +0.000 A 
ATOM      2  C   UNL     1       1.973   9.080  18.730  0.00  0.00    +0.000 A 
ATOM      3  S   UNL     1       2.772   7.896  17.807  0.00  0.00    +0.000 S 
ATOM      4  C   UNL     1       2.350   6.686  18.980  0.00  0.00    +0.000 A 
ATOM      5  N   UNL     1       2.779   5.401  18.845  0.00  0.00    +0.000 N 
ATOM      6  C   UNL     1       2.888   4.533  20.006  0.00  0.00    +0.000 C 
ATOM      7  C   UNL     1       4.247   3.824  19.924  0.00  0.00    +0.000 C 
ATOM      8  C   UNL     1       4.430   3.076  18.592  0.00  0.00    +0.000 C 
ATOM      9  C   UNL     1       4.118   3.988  17.394  0.00  0.00    +0.000 C 
ATOM     10  C   UNL     1       2.785   4.719  17.554  0.00  0.00    +0.000 C 
ATOM     11  N   UNL     1       1.679   7.160  20.013  0.00  0.00    +0.000 NA
ENDROOT
BRANCH   1  15
ATOM     12  C   UNL     1      -0.717  10.882  22.718  0.00  0.00    +0.000 A 
ATOM     13  C   UNL     1      -0.749  11.218  21.366  0.00  0.00    +0.000 A 
ATOM     14  C   UNL     1      -0.093  10.423  20.424  0.00  0.00    +0.000 A 
ATOM     15  C   UNL     1       0.638   9.292  20.821  0.00  0.00    +0.000 A 
ATOM     16  C   UNL     1       0.644   8.947  22.177  0.00  0.00    +0.000 A 
ATOM     17  C   UNL     1      -0.025   9.741  23.123  0.00  0.00    +0.000 A 
BRANCH  12  18
ATOM     18  O   UNL     1      -1.353  11.770  23.541  0.00  0.00    +0.000 OA
BRANCH  18  20
ATOM     19  C   UNL     1      -3.561  12.625  23.756  0.00  0.00    +0.000 C 
ATOM     20  C   UNL     1      -2.292  12.645  22.922  0.00  0.00    +0.000 C 
ENDBRANCH  18  20
ENDBRANCH  12  18
ENDBRANCH   1  15
BRANCH   8  21
ATOM     21  C   UNL     1       3.601   1.800  18.553  0.00  0.00    +0.000 C 
ATOM     22  N   UNL     1       4.319   0.643  18.621  0.00  0.00    +0.000 N 
ATOM     23  O   UNL     1       2.381   1.766  18.453  0.00  0.00    +0.000 OA
ATOM     24  H   UNL     1       5.322   0.615  18.504  0.00  0.00    +0.000 HD
ATOM     25  H   UNL     1       3.803  -0.223  18.529  0.00  0.00    +0.000 HD
ENDBRANCH   8  21
TORSDOF 4
ENDMDL
MODEL 9
REMARK VINA RESULT:      -6.7      2.155      8.705
REMARK  Name = 
REMARK  5 active torsions:
REMARK  status: ('A' for Active; 'I' for Inactive)
REMARK    1  A    between atoms: C_1  and  C_2
REMARK    2  A    between atoms: C_2  and  O_3
REMARK    3  A    between atoms: O_3  and  C_4
REMARK    4  A    between atoms: C_7  and  C_8
REMARK    5  A    between atoms: C_15  and  C_16
REMARK                            x       y       z     vdW  Elec       q    Type
REMARK                         _______ _______ _______ _____ _____    ______ ____
ROOT
ATOM      1  C   UNL     1       1.666   7.984  19.783  0.00  0.00    +0.000 A 
ATOM      2  C   UNL     1       1.322   6.951  20.628  0.00  0.00    +0.000 A 
ATOM      3  S   UNL     1       2.356   5.622  20.394  0.00  0.00    +0.000 S 
ATOM      4  C   UNL     1       3.196   6.486  19.143  0.00  0.00    +0.000 A 
ATOM      5  N   UNL     1       4.205   5.897  18.443  0.00  0.00    +0.000 N 
ATOM      6  C   UNL     1       4.555   6.371  17.114  0.00  0.00    +0.000 C 
ATOM      7  C   UNL     1       4.701   5.139  16.210  0.00  0.00    +0.000 C 
ATOM      8  C   UNL     1       5.710   4.124  16.775  0.00  0.00    +0.000 C 
ATOM      9  C   UNL     1       5.408   3.798  18.247  0.00  0.00    +0.000 C 
ATOM     10  C   UNL     1       5.209   5.058  19.090  0.00  0.00    +0.000 C 
ATOM     11  N   UNL     1       2.700   7.685  18.902  0.00  0.00    +0.000 NA
ENDROOT
BRANCH   1  15
ATOM     12  C   UNL     1      -0.267  11.803  19.845  0.00  0.00    +0.000 A 
ATOM     13  C   UNL     1       0.487  11.414  18.740  0.00  0.00    +0.000 A 
ATOM     14  C   UNL     1       1.083  10.152  18.699  0.00  0.00    +0.000 A 
ATOM     15  C   UNL     1       0.962   9.264  19.779  0.00  0.00    +0.000 A 
ATOM     16  C   UNL     1       0.182   9.651  20.873  0.00  0.00    +0.000 A 
ATOM     17  C   UNL     1      -0.426  10.916  20.910  0.00  0.00    +0.000 A 
BRANCH  12  18
ATOM     18  O   UNL     1      -0.752  13.080  19.785  0.00  0.00    +0.000 OA
BRANCH  18  20
ATOM     19  C   UNL     1       0.528  15.027  19.309  0.00  0.00    +0.000 C 
ATOM     20  C   UNL     1      -0.276  13.886  18.710  0.00  0.00    +0.000 C 
ENDBRANCH  18  20
ENDBRANCH  12  18
ENDBRANCH   1  15
BRANCH   8  21
ATOM     21  C   UNL     1       7.144   4.605  16.592  0.00  0.00    +0.000 C 
ATOM     22  N   UNL     1       7.340   5.445  15.537  0.00  0.00    +0.000 N 
ATOM     23  O   UNL     1       8.083   4.278  17.306  0.00  0.00    +0.000 OA
ATOM     24  H   UNL     1       6.650   5.583  14.812  0.00  0.00    +0.000 HD
ATOM     25  H   UNL     1       8.293   5.729  15.349  0.00  0.00    +0.000 HD
ENDBRANCH   8  21
TORSDOF 4
ENDMDL
