MODEL 1
REMARK VINA RESULT:      -8.6      0.000      0.000
REMARK  Name = 
REMARK  7 active torsions:
REMARK  status: ('A' for Active; 'I' for Inactive)
REMARK    1  A    between atoms: C_2  and  C_11
REMARK    2  A    between atoms: N_3  and  C_4
REMARK    3  A    between atoms: C_16  and  C_17
REMARK    4  A    between atoms: C_17  and  C_18
REMARK    5  A    between atoms: C_18  and  O_19
REMARK    6  A    between atoms: C_18  and  C_20
REMARK    7  A    between atoms: C_18  and  C_26
REMARK                            x       y       z     vdW  Elec       q    Type
REMARK                         _______ _______ _______ _____ _____    ______ ____
ROOT
ATOM      1  C   UNL     1       2.789   4.666  18.849  0.00  0.00    +0.000 A 
ATOM      2  C   UNL     1       2.122   3.855  19.793  0.00  0.00    +0.000 A 
ATOM      3  C   UNL     1       1.838   2.510  19.526  0.00  0.00    +0.000 A 
ATOM      4  C   UNL     1       2.173   1.968  18.295  0.00  0.00    +0.000 A 
ATOM      5  C   UNL     1       2.816   2.759  17.346  0.00  0.00    +0.000 A 
ATOM      6  C   UNL     1       3.167   4.106  17.600  0.00  0.00    +0.000 A 
ENDROOT
BRANCH   1   8
ATOM      7  O   UNL     1       3.997   6.560  19.519  0.00  0.00    +0.000 OA
ATOM      8  C   UNL     1       2.907   6.132  19.164  0.00  0.00    +0.000 C 
ATOM      9  N   UNL     1       1.767   6.905  18.973  0.00  0.00    +0.000 N 
ATOM     10  H   UNL     1       0.874   6.429  18.872  0.00  0.00    +0.000 HD
BRANCH   9  11
ATOM     11  C   UNL     1       1.705   8.332  18.948  0.00  0.00    +0.000 A 
ATOM     12  C   UNL     1       2.160   9.084  17.865  0.00  0.00    +0.000 A 
ATOM     13  C   UNL     1       2.060  10.480  17.852  0.00  0.00    +0.000 A 
ATOM     14  C   UNL     1       1.490  11.155  18.929  0.00  0.00    +0.000 A 
ATOM     15  C   UNL     1       1.018  10.425  20.019  0.00  0.00    +0.000 A 
ATOM     16  C   UNL     1       1.120   9.027  20.027  0.00  0.00    +0.000 A 
ATOM     17 CL   UNL     1       0.510   8.183  21.411  0.00  0.00    +0.000 Cl
ENDBRANCH   9  11
ENDBRANCH   1   8
BRANCH   6  18
ATOM     18  C   UNL     1       3.957   4.851  16.510  0.00  0.00    +0.000 C 
BRANCH  18  19
ATOM     19  C   UNL     1       5.509   4.537  16.417  0.00  0.00    +0.000 C 
BRANCH  19  20
ATOM     20  C   UNL     1       5.989   4.452  14.942  0.00  0.00    +0.000 A 
ATOM     21  C   UNL     1       5.297   3.714  13.964  0.00  0.00    +0.000 A 
ATOM     22  C   UNL     1       5.764   3.618  12.643  0.00  0.00    +0.000 A 
ATOM     23  C   UNL     1       6.955   4.227  12.271  0.00  0.00    +0.000 A 
ATOM     24  C   UNL     1       7.677   4.945  13.215  0.00  0.00    +0.000 A 
ATOM     25  C   UNL     1       7.192   5.068  14.524  0.00  0.00    +0.000 A 
ENDBRANCH  19  20
BRANCH  19  26
ATOM     26  C   UNL     1       6.244   5.549  17.323  0.00  0.00    +0.000 A 
ATOM     27  C   UNL     1       6.322   6.904  16.935  0.00  0.00    +0.000 A 
ATOM     28  C   UNL     1       7.275   7.766  17.480  0.00  0.00    +0.000 A 
ATOM     29  C   UNL     1       8.143   7.310  18.464  0.00  0.00    +0.000 A 
ATOM     30  C   UNL     1       8.019   6.008  18.938  0.00  0.00    +0.000 A 
ATOM     31  C   UNL     1       7.075   5.138  18.380  0.00  0.00    +0.000 A 
ENDBRANCH  19  26
BRANCH  19  32
ATOM     32  O   UNL     1       5.706   3.212  16.965  0.00  0.00    +0.000 OA
ATOM     33  H   UNL     1       5.864   3.335  17.915  0.00  0.00    +0.000 HD
ENDBRANCH  19  32
ENDBRANCH  18  19
ENDBRANCH   6  18
TORSDOF 7
ENDMDL
MODEL 2
REMARK VINA RESULT:      -8.5      0.979      1.411
REMARK  Name = 
REMARK  7 active torsions:
REMARK  status: ('A' for Active; 'I' for Inactive)
REMARK    1  A    between atoms: C_2  and  C_11
REMARK    2  A    between atoms: N_3  and  C_4
REMARK    3  A    between atoms: C_16  and  C_17
REMARK    4  A    between atoms: C_17  and  C_18
REMARK    5  A    between atoms: C_18  and  O_19
REMARK    6  A    between atoms: C_18  and  C_20
REMARK    7  A    between atoms: C_18  and  C_26
REMARK                            x       y       z     vdW  Elec       q    Type
REMARK                         _______ _______ _______ _____ _____    ______ ____
ROOT
ATOM      1  C   UNL     1       2.571   4.696  19.108  0.00  0.00    +0.000 A 
ATOM      2  C   UNL     1       1.829   3.770  19.875  0.00  0.00    +0.000 A 
ATOM      3  C   UNL     1       1.558   2.482  19.397  0.00  0.00    +0.000 A 
ATOM      4  C   UNL     1       1.983   2.115  18.130  0.00  0.00    +0.000 A 
ATOM      5  C   UNL     1       2.701   3.022  17.354  0.00  0.00    +0.000 A 
ATOM      6  C   UNL     1       3.040   4.313  17.824  0.00  0.00    +0.000 A 
ENDROOT
BRANCH   1   8
ATOM      7  O   UNL     1       3.762   6.656  19.592  0.00  0.00    +0.000 OA
ATOM      8  C   UNL     1       2.673   6.100  19.637  0.00  0.00    +0.000 C 
ATOM      9  N   UNL     1       1.495   6.682  20.094  0.00  0.00    +0.000 N 
ATOM     10  H   UNL     1       0.698   6.078  20.274  0.00  0.00    +0.000 HD
BRANCH   9  11
ATOM     11  C   UNL     1       1.292   8.065  20.387  0.00  0.00    +0.000 A 
ATOM     12  C   UNL     1       1.095   8.536  21.686  0.00  0.00    +0.000 A 
ATOM     13  C   UNL     1       0.929   9.900  21.950  0.00  0.00    +0.000 A 
ATOM     14  C   UNL     1       0.968  10.828  20.912  0.00  0.00    +0.000 A 
ATOM     15  C   UNL     1       1.175  10.384  19.607  0.00  0.00    +0.000 A 
ATOM     16  C   UNL     1       1.341   9.016  19.347  0.00  0.00    +0.000 A 
ATOM     17 CL   UNL     1       1.598   8.534  17.704  0.00  0.00    +0.000 Cl
ENDBRANCH   9  11
ENDBRANCH   1   8
BRANCH   6  18
ATOM     18  C   UNL     1       3.915   5.192  16.914  0.00  0.00    +0.000 C 
BRANCH  18  19
ATOM     19  C   UNL     1       5.443   4.784  16.789  0.00  0.00    +0.000 C 
BRANCH  19  20
ATOM     20  C   UNL     1       5.860   4.573  15.307  0.00  0.00    +0.000 A 
ATOM     21  C   UNL     1       5.052   3.879  14.387  0.00  0.00    +0.000 A 
ATOM     22  C   UNL     1       5.460   3.665  13.060  0.00  0.00    +0.000 A 
ATOM     23  C   UNL     1       6.702   4.108  12.625  0.00  0.00    +0.000 A 
ATOM     24  C   UNL     1       7.535   4.777  13.511  0.00  0.00    +0.000 A 
ATOM     25  C   UNL     1       7.113   5.020  14.825  0.00  0.00    +0.000 A 
ENDBRANCH  19  20
BRANCH  19  26
ATOM     26  C   UNL     1       6.266   5.812  17.596  0.00  0.00    +0.000 A 
ATOM     27  C   UNL     1       6.388   7.135  17.121  0.00  0.00    +0.000 A 
ATOM     28  C   UNL     1       7.405   7.982  17.566  0.00  0.00    +0.000 A 
ATOM     29  C   UNL     1       8.298   7.543  18.537  0.00  0.00    +0.000 A 
ATOM     30  C   UNL     1       8.137   6.280  19.097  0.00  0.00    +0.000 A 
ATOM     31  C   UNL     1       7.128   5.425  18.637  0.00  0.00    +0.000 A 
ENDBRANCH  19  26
BRANCH  19  32
ATOM     32  O   UNL     1       5.589   3.491  17.420  0.00  0.00    +0.000 OA
ATOM     33  H   UNL     1       5.448   2.832  16.721  0.00  0.00    +0.000 HD
ENDBRANCH  19  32
ENDBRANCH  18  19
ENDBRANCH   6  18
TORSDOF 7
ENDMDL
MODEL 3
REMARK VINA RESULT:      -8.5      0.740      1.425
REMARK  Name = 
REMARK  7 active torsions:
REMARK  status: ('A' for Active; 'I' for Inactive)
REMARK    1  A    between atoms: C_2  and  C_11
REMARK    2  A    between atoms: N_3  and  C_4
REMARK    3  A    between atoms: C_16  and  C_17
REMARK    4  A    between atoms: C_17  and  C_18
REMARK    5  A    between atoms: C_18  and  O_19
REMARK    6  A    between atoms: C_18  and  C_20
REMARK    7  A    between atoms: C_18  and  C_26
REMARK                            x       y       z     vdW  Elec       q    Type
REMARK                         _______ _______ _______ _____ _____    ______ ____
ROOT
ATOM      1  C   UNL     1       3.001   5.327  18.231  0.00  0.00    +0.000 A 
ATOM      2  C   UNL     1       2.188   4.613  19.139  0.00  0.00    +0.000 A 
ATOM      3  C   UNL     1       1.967   3.238  18.992  0.00  0.00    +0.000 A 
ATOM      4  C   UNL     1       2.514   2.565  17.911  0.00  0.00    +0.000 A 
ATOM      5  C   UNL     1       3.304   3.258  16.996  0.00  0.00    +0.000 A 
ATOM      6  C   UNL     1       3.593   4.635  17.141  0.00  0.00    +0.000 A 
ENDROOT
BRANCH   1   8
ATOM      7  O   UNL     1       3.979   7.425  17.863  0.00  0.00    +0.000 OA
ATOM      8  C   UNL     1       3.049   6.822  18.382  0.00  0.00    +0.000 C 
ATOM      9  N   UNL     1       1.991   7.415  19.063  0.00  0.00    +0.000 N 
ATOM     10  H   UNL     1       1.384   6.821  19.620  0.00  0.00    +0.000 HD
BRANCH   9  11
ATOM     11  C   UNL     1       1.684   8.810  19.101  0.00  0.00    +0.000 A 
ATOM     12  C   UNL     1       1.975   9.672  18.043  0.00  0.00    +0.000 A 
ATOM     13  C   UNL     1       1.636  11.028  18.093  0.00  0.00    +0.000 A 
ATOM     14  C   UNL     1       0.985  11.551  19.208  0.00  0.00    +0.000 A 
ATOM     15  C   UNL     1       0.674  10.708  20.274  0.00  0.00    +0.000 A 
ATOM     16  C   UNL     1       1.015   9.349  20.220  0.00  0.00    +0.000 A 
ATOM     17 CL   UNL     1       0.596   8.359  21.576  0.00  0.00    +0.000 Cl
ENDBRANCH   9  11
ENDBRANCH   1   8
BRANCH   6  18
ATOM     18  C   UNL     1       4.553   5.271  16.120  0.00  0.00    +0.000 C 
BRANCH  18  19
ATOM     19  C   UNL     1       5.985   4.604  15.980  0.00  0.00    +0.000 C 
BRANCH  19  20
ATOM     20  C   UNL     1       6.384   4.411  14.492  0.00  0.00    +0.000 A 
ATOM     21  C   UNL     1       7.435   5.131  13.893  0.00  0.00    +0.000 A 
ATOM     22  C   UNL     1       7.760   4.972  12.536  0.00  0.00    +0.000 A 
ATOM     23  C   UNL     1       7.021   4.115  11.731  0.00  0.00    +0.000 A 
ATOM     24  C   UNL     1       5.963   3.406  12.281  0.00  0.00    +0.000 A 
ATOM     25  C   UNL     1       5.661   3.540  13.643  0.00  0.00    +0.000 A 
ENDBRANCH  19  20
BRANCH  19  26
ATOM     26  C   UNL     1       6.963   5.419  16.856  0.00  0.00    +0.000 A 
ATOM     27  C   UNL     1       7.484   4.847  18.036  0.00  0.00    +0.000 A 
ATOM     28  C   UNL     1       8.036   5.635  19.048  0.00  0.00    +0.000 A 
ATOM     29  C   UNL     1       8.128   7.012  18.884  0.00  0.00    +0.000 A 
ATOM     30  C   UNL     1       7.717   7.589  17.687  0.00  0.00    +0.000 A 
ATOM     31  C   UNL     1       7.147   6.802  16.680  0.00  0.00    +0.000 A 
ENDBRANCH  19  26
BRANCH  19  32
ATOM     32  O   UNL     1       5.887   3.271  16.532  0.00  0.00    +0.000 OA
ATOM     33  H   UNL     1       6.681   2.798  16.235  0.00  0.00    +0.000 HD
ENDBRANCH  19  32
ENDBRANCH  18  19
ENDBRANCH   6  18
TORSDOF 7
ENDMDL
MODEL 4
REMARK VINA RESULT:      -8.1      1.025      1.654
REMARK  Name = 
REMARK  7 active torsions:
REMARK  status: ('A' for Active; 'I' for Inactive)
REMARK    1  A    between atoms: C_2  and  C_11
REMARK    2  A    between atoms: N_3  and  C_4
REMARK    3  A    between atoms: C_16  and  C_17
REMARK    4  A    between atoms: C_17  and  C_18
REMARK    5  A    between atoms: C_18  and  O_19
REMARK    6  A    between atoms: C_18  and  C_20
REMARK    7  A    between atoms: C_18  and  C_26
REMARK                            x       y       z     vdW  Elec       q    Type
REMARK                         _______ _______ _______ _____ _____    ______ ____
ROOT
ATOM      1  C   UNL     1       2.995   4.733  18.724  0.00  0.00    +0.000 A 
ATOM      2  C   UNL     1       2.220   3.769  19.406  0.00  0.00    +0.000 A 
ATOM      3  C   UNL     1       2.020   2.488  18.875  0.00  0.00    +0.000 A 
ATOM      4  C   UNL     1       2.551   2.167  17.637  0.00  0.00    +0.000 A 
ATOM      5  C   UNL     1       3.303   3.112  16.943  0.00  0.00    +0.000 A 
ATOM      6  C   UNL     1       3.571   4.397  17.471  0.00  0.00    +0.000 A 
ENDROOT
BRANCH   1   8
ATOM      7  O   UNL     1       4.061   6.760  19.221  0.00  0.00    +0.000 OA
ATOM      8  C   UNL     1       3.019   6.124  19.296  0.00  0.00    +0.000 C 
ATOM      9  N   UNL     1       1.825   6.602  19.825  0.00  0.00    +0.000 N 
ATOM     10  H   UNL     1       1.083   5.935  20.020  0.00  0.00    +0.000 HD
BRANCH   9  11
ATOM     11  C   UNL     1       1.536   7.956  20.175  0.00  0.00    +0.000 A 
ATOM     12  C   UNL     1       1.371   8.372  21.497  0.00  0.00    +0.000 A 
ATOM     13  C   UNL     1       1.119   9.711  21.815  0.00  0.00    +0.000 A 
ATOM     14  C   UNL     1       1.036  10.670  20.808  0.00  0.00    +0.000 A 
ATOM     15  C   UNL     1       1.208  10.282  19.480  0.00  0.00    +0.000 A 
ATOM     16  C   UNL     1       1.460   8.939  19.166  0.00  0.00    +0.000 A 
ATOM     17 CL   UNL     1       1.667   8.528  17.497  0.00  0.00    +0.000 Cl
ENDBRANCH   9  11
ENDBRANCH   1   8
BRANCH   6  18
ATOM     18  C   UNL     1       4.491   5.322  16.656  0.00  0.00    +0.000 C 
BRANCH  18  19
ATOM     19  C   UNL     1       5.950   4.781  16.347  0.00  0.00    +0.000 C 
BRANCH  19  20
ATOM     20  C   UNL     1       6.165   4.551  14.826  0.00  0.00    +0.000 A 
ATOM     21  C   UNL     1       5.279   3.786  14.045  0.00  0.00    +0.000 A 
ATOM     22  C   UNL     1       5.508   3.557  12.678  0.00  0.00    +0.000 A 
ATOM     23  C   UNL     1       6.647   4.056  12.062  0.00  0.00    +0.000 A 
ATOM     24  C   UNL     1       7.556   4.796  12.806  0.00  0.00    +0.000 A 
ATOM     25  C   UNL     1       7.309   5.052  14.161  0.00  0.00    +0.000 A 
ENDBRANCH  19  20
BRANCH  19  26
ATOM     26  C   UNL     1       6.953   5.722  17.050  0.00  0.00    +0.000 A 
ATOM     27  C   UNL     1       7.579   5.307  18.244  0.00  0.00    +0.000 A 
ATOM     28  C   UNL     1       8.168   6.224  19.117  0.00  0.00    +0.000 A 
ATOM     29  C   UNL     1       8.190   7.575  18.794  0.00  0.00    +0.000 A 
ATOM     30  C   UNL     1       7.672   7.998  17.575  0.00  0.00    +0.000 A 
ATOM     31  C   UNL     1       7.065   7.082  16.708  0.00  0.00    +0.000 A 
ENDBRANCH  19  26
BRANCH  19  32
ATOM     32  O   UNL     1       6.053   3.473  16.955  0.00  0.00    +0.000 OA
ATOM     33  H   UNL     1       6.829   3.050  16.553  0.00  0.00    +0.000 HD
ENDBRANCH  19  32
ENDBRANCH  18  19
ENDBRANCH   6  18
TORSDOF 7
ENDMDL
MODEL 5
REMARK VINA RESULT:      -8.1      1.388      3.644
REMARK  Name = 
REMARK  7 active torsions:
REMARK  status: ('A' for Active; 'I' for Inactive)
REMARK    1  A    between atoms: C_2  and  C_11
REMARK    2  A    between atoms: N_3  and  C_4
REMARK    3  A    between atoms: C_16  and  C_17
REMARK    4  A    between atoms: C_17  and  C_18
REMARK    5  A    between atoms: C_18  and  O_19
REMARK    6  A    between atoms: C_18  and  C_20
REMARK    7  A    between atoms: C_18  and  C_26
REMARK                            x       y       z     vdW  Elec       q    Type
REMARK                         _______ _______ _______ _____ _____    ______ ____
ROOT
ATOM      1  C   UNL     1       3.679   5.389  18.498  0.00  0.00    +0.000 A 
ATOM      2  C   UNL     1       3.620   4.900  19.822  0.00  0.00    +0.000 A 
ATOM      3  C   UNL     1       3.930   3.567  20.120  0.00  0.00    +0.000 A 
ATOM      4  C   UNL     1       4.260   2.693  19.097  0.00  0.00    +0.000 A 
ATOM      5  C   UNL     1       4.307   3.155  17.784  0.00  0.00    +0.000 A 
ATOM      6  C   UNL     1       4.051   4.506  17.451  0.00  0.00    +0.000 A 
ENDROOT
BRANCH   1   8
ATOM      7  O   UNL     1       3.433   7.316  17.186  0.00  0.00    +0.000 OA
ATOM      8  C   UNL     1       3.176   6.786  18.259  0.00  0.00    +0.000 C 
ATOM      9  N   UNL     1       2.405   7.353  19.267  0.00  0.00    +0.000 N 
ATOM     10  H   UNL     1       2.418   6.918  20.186  0.00  0.00    +0.000 HD
BRANCH   9  11
ATOM     11  C   UNL     1       1.610   8.535  19.163  0.00  0.00    +0.000 A 
ATOM     12  C   UNL     1       1.321   9.139  17.938  0.00  0.00    +0.000 A 
ATOM     13  C   UNL     1       0.514  10.280  17.860  0.00  0.00    +0.000 A 
ATOM     14  C   UNL     1      -0.031  10.838  19.014  0.00  0.00    +0.000 A 
ATOM     15  C   UNL     1       0.235  10.246  20.249  0.00  0.00    +0.000 A 
ATOM     16  C   UNL     1       1.043   9.103  20.322  0.00  0.00    +0.000 A 
ATOM     17 CL   UNL     1       1.329   8.419  21.887  0.00  0.00    +0.000 Cl
ENDBRANCH   9  11
ENDBRANCH   1   8
BRANCH   6  18
ATOM     18  C   UNL     1       4.224   4.919  15.979  0.00  0.00    +0.000 C 
BRANCH  18  19
ATOM     19  C   UNL     1       5.628   5.537  15.575  0.00  0.00    +0.000 C 
BRANCH  19  20
ATOM     20  C   UNL     1       6.571   5.669  16.802  0.00  0.00    +0.000 A 
ATOM     21  C   UNL     1       7.148   4.552  17.433  0.00  0.00    +0.000 A 
ATOM     22  C   UNL     1       7.970   4.685  18.565  0.00  0.00    +0.000 A 
ATOM     23  C   UNL     1       8.208   5.936  19.118  0.00  0.00    +0.000 A 
ATOM     24  C   UNL     1       7.636   7.058  18.536  0.00  0.00    +0.000 A 
ATOM     25  C   UNL     1       6.845   6.928  17.387  0.00  0.00    +0.000 A 
ENDBRANCH  19  20
BRANCH  19  26
ATOM     26  C   UNL     1       6.166   4.723  14.377  0.00  0.00    +0.000 A 
ATOM     27  C   UNL     1       7.369   5.115  13.752  0.00  0.00    +0.000 A 
ATOM     28  C   UNL     1       7.697   4.687  12.464  0.00  0.00    +0.000 A 
ATOM     29  C   UNL     1       6.854   3.815  11.787  0.00  0.00    +0.000 A 
ATOM     30  C   UNL     1       5.713   3.332  12.420  0.00  0.00    +0.000 A 
ATOM     31  C   UNL     1       5.376   3.775  13.704  0.00  0.00    +0.000 A 
ENDBRANCH  19  26
BRANCH  19  32
ATOM     32  O   UNL     1       5.381   6.891  15.128  0.00  0.00    +0.000 OA
ATOM     33  H   UNL     1       4.970   7.351  15.877  0.00  0.00    +0.000 HD
ENDBRANCH  19  32
ENDBRANCH  18  19
ENDBRANCH   6  18
TORSDOF 7
ENDMDL
MODEL 6
REMARK VINA RESULT:      -7.9      0.885      1.339
REMARK  Name = 
REMARK  7 active torsions:
REMARK  status: ('A' for Active; 'I' for Inactive)
REMARK    1  A    between atoms: C_2  and  C_11
REMARK    2  A    between atoms: N_3  and  C_4
REMARK    3  A    between atoms: C_16  and  C_17
REMARK    4  A    between atoms: C_17  and  C_18
REMARK    5  A    between atoms: C_18  and  O_19
REMARK    6  A    between atoms: C_18  and  C_20
REMARK    7  A    between atoms: C_18  and  C_26
REMARK                            x       y       z     vdW  Elec       q    Type
REMARK                         _______ _______ _______ _____ _____    ______ ____
ROOT
ATOM      1  C   UNL     1       2.706   5.581  19.175  0.00  0.00    +0.000 A 
ATOM      2  C   UNL     1       2.159   5.102  20.386  0.00  0.00    +0.000 A 
ATOM      3  C   UNL     1       2.170   3.736  20.700  0.00  0.00    +0.000 A 
ATOM      4  C   UNL     1       2.685   2.826  19.790  0.00  0.00    +0.000 A 
ATOM      5  C   UNL     1       3.213   3.281  18.584  0.00  0.00    +0.000 A 
ATOM      6  C   UNL     1       3.267   4.656  18.255  0.00  0.00    +0.000 A 
ENDROOT
BRANCH   1   8
ATOM      7  O   UNL     1       2.885   7.451  17.773  0.00  0.00    +0.000 OA
ATOM      8  C   UNL     1       2.504   7.037  18.860  0.00  0.00    +0.000 C 
ATOM      9  N   UNL     1       1.845   7.798  19.820  0.00  0.00    +0.000 N 
ATOM     10  H   UNL     1       1.751   7.415  20.757  0.00  0.00    +0.000 HD
BRANCH   9  11
ATOM     11  C   UNL     1       1.312   9.111  19.640  0.00  0.00    +0.000 A 
ATOM     12  C   UNL     1       1.758   9.971  18.636  0.00  0.00    +0.000 A 
ATOM     13  C   UNL     1       1.197  11.242  18.461  0.00  0.00    +0.000 A 
ATOM     14  C   UNL     1       0.164  11.675  19.289  0.00  0.00    +0.000 A 
ATOM     15  C   UNL     1      -0.306  10.830  20.293  0.00  0.00    +0.000 A 
ATOM     16  C   UNL     1       0.258   9.558  20.464  0.00  0.00    +0.000 A 
ATOM     17 CL   UNL     1      -0.376   8.559  21.728  0.00  0.00    +0.000 Cl
ENDBRANCH   9  11
ENDBRANCH   1   8
BRANCH   6  18
ATOM     18  C   UNL     1       3.957   5.045  16.937  0.00  0.00    +0.000 C 
BRANCH  18  19
ATOM     19  C   UNL     1       5.500   4.698  16.812  0.00  0.00    +0.000 C 
BRANCH  19  20
ATOM     20  C   UNL     1       5.922   4.485  15.333  0.00  0.00    +0.000 A 
ATOM     21  C   UNL     1       7.137   4.974  14.817  0.00  0.00    +0.000 A 
ATOM     22  C   UNL     1       7.487   4.805  13.467  0.00  0.00    +0.000 A 
ATOM     23  C   UNL     1       6.618   4.174  12.588  0.00  0.00    +0.000 A 
ATOM     24  C   UNL     1       5.401   3.699  13.056  0.00  0.00    +0.000 A 
ATOM     25  C   UNL     1       5.067   3.838  14.410  0.00  0.00    +0.000 A 
ENDBRANCH  19  20
BRANCH  19  26
ATOM     26  C   UNL     1       6.281   5.770  17.604  0.00  0.00    +0.000 A 
ATOM     27  C   UNL     1       6.407   7.073  17.076  0.00  0.00    +0.000 A 
ATOM     28  C   UNL     1       7.398   7.950  17.522  0.00  0.00    +0.000 A 
ATOM     29  C   UNL     1       8.258   7.564  18.543  0.00  0.00    +0.000 A 
ATOM     30  C   UNL     1       8.089   6.325  19.151  0.00  0.00    +0.000 A 
ATOM     31  C   UNL     1       7.108   5.439  18.692  0.00  0.00    +0.000 A 
ENDBRANCH  19  26
BRANCH  19  32
ATOM     32  O   UNL     1       5.700   3.421  17.461  0.00  0.00    +0.000 OA
ATOM     33  H   UNL     1       5.180   2.777  16.954  0.00  0.00    +0.000 HD
ENDBRANCH  19  32
ENDBRANCH  18  19
ENDBRANCH   6  18
TORSDOF 7
ENDMDL
MODEL 7
REMARK VINA RESULT:      -7.7      5.938     10.077
REMARK  Name = 
REMARK  7 active torsions:
REMARK  status: ('A' for Active; 'I' for Inactive)
REMARK    1  A    between atoms: C_2  and  C_11
REMARK    2  A    between atoms: N_3  and  C_4
REMARK    3  A    between atoms: C_16  and  C_17
REMARK    4  A    between atoms: C_17  and  C_18
REMARK    5  A    between atoms: C_18  and  O_19
REMARK    6  A    between atoms: C_18  and  C_20
REMARK    7  A    between atoms: C_18  and  C_26
REMARK                            x       y       z     vdW  Elec       q    Type
REMARK                         _______ _______ _______ _____ _____    ______ ____
ROOT
ATOM      1  C   UNL     1      -3.740  11.088  17.712  0.00  0.00    +0.000 A 
ATOM      2  C   UNL     1      -4.406  11.205  16.472  0.00  0.00    +0.000 A 
ATOM      3  C   UNL     1      -3.898  10.601  15.315  0.00  0.00    +0.000 A 
ATOM      4  C   UNL     1      -2.698   9.911  15.369  0.00  0.00    +0.000 A 
ATOM      5  C   UNL     1      -2.020   9.802  16.581  0.00  0.00    +0.000 A 
ATOM      6  C   UNL     1      -2.527  10.353  17.781  0.00  0.00    +0.000 A 
ENDROOT
BRANCH   1   8
ATOM      7  O   UNL     1      -3.516  12.679  19.420  0.00  0.00    +0.000 OA
ATOM      8  C   UNL     1      -4.276  11.901  18.859  0.00  0.00    +0.000 C 
ATOM      9  N   UNL     1      -5.624  11.741  19.160  0.00  0.00    +0.000 N 
ATOM     10  H   UNL     1      -6.112  10.937  18.774  0.00  0.00    +0.000 HD
BRANCH   9  11
ATOM     11  C   UNL     1      -6.407  12.581  20.010  0.00  0.00    +0.000 A 
ATOM     12  C   UNL     1      -6.542  12.346  21.379  0.00  0.00    +0.000 A 
ATOM     13  C   UNL     1      -7.290  13.201  22.196  0.00  0.00    +0.000 A 
ATOM     14  C   UNL     1      -7.915  14.323  21.656  0.00  0.00    +0.000 A 
ATOM     15  C   UNL     1      -7.786  14.585  20.293  0.00  0.00    +0.000 A 
ATOM     16  C   UNL     1      -7.036  13.726  19.478  0.00  0.00    +0.000 A 
ATOM     17 CL   UNL     1      -6.914  14.114  17.795  0.00  0.00    +0.000 Cl
ENDBRANCH   9  11
ENDBRANCH   1   8
BRANCH   6  18
ATOM     18  C   UNL     1      -1.737  10.088  19.074  0.00  0.00    +0.000 C 
BRANCH  18  19
ATOM     19  C   UNL     1      -0.399  10.916  19.272  0.00  0.00    +0.000 C 
BRANCH  19  20
ATOM     20  C   UNL     1      -0.484  11.854  20.507  0.00  0.00    +0.000 A 
ATOM     21  C   UNL     1       0.196  13.085  20.569  0.00  0.00    +0.000 A 
ATOM     22  C   UNL     1       0.139  13.905  21.708  0.00  0.00    +0.000 A 
ATOM     23  C   UNL     1      -0.570  13.501  22.831  0.00  0.00    +0.000 A 
ATOM     24  C   UNL     1      -1.234  12.283  22.816  0.00  0.00    +0.000 A 
ATOM     25  C   UNL     1      -1.204  11.481  21.667  0.00  0.00    +0.000 A 
ENDBRANCH  19  20
BRANCH  19  26
ATOM     26  C   UNL     1       0.776   9.913  19.249  0.00  0.00    +0.000 A 
ATOM     27  C   UNL     1       1.466   9.676  18.042  0.00  0.00    +0.000 A 
ATOM     28  C   UNL     1       2.246   8.533  17.858  0.00  0.00    +0.000 A 
ATOM     29  C   UNL     1       2.397   7.621  18.895  0.00  0.00    +0.000 A 
ATOM     30  C   UNL     1       1.811   7.883  20.130  0.00  0.00    +0.000 A 
ATOM     31  C   UNL     1       1.015   9.020  20.308  0.00  0.00    +0.000 A 
ENDBRANCH  19  26
BRANCH  19  32
ATOM     32  O   UNL     1      -0.270  11.792  18.129  0.00  0.00    +0.000 OA
ATOM     33  H   UNL     1      -0.967  11.528  17.507  0.00  0.00    +0.000 HD
ENDBRANCH  19  32
ENDBRANCH  18  19
ENDBRANCH   6  18
TORSDOF 7
ENDMDL
MODEL 8
REMARK VINA RESULT:      -7.6      4.358      9.212
REMARK  Name = 
REMARK  7 active torsions:
REMARK  status: ('A' for Active; 'I' for Inactive)
REMARK    1  A    between atoms: C_2  and  C_11
REMARK    2  A    between atoms: N_3  and  C_4
REMARK    3  A    between atoms: C_16  and  C_17
REMARK    4  A    between atoms: C_17  and  C_18
REMARK    5  A    between atoms: C_18  and  O_19
REMARK    6  A    between atoms: C_18  and  C_20
REMARK    7  A    between atoms: C_18  and  C_26
REMARK                            x       y       z     vdW  Elec       q    Type
REMARK                         _______ _______ _______ _____ _____    ______ ____
ROOT
ATOM      1  C   UNL     1       0.161  10.616  21.945  0.00  0.00    +0.000 A 
ATOM      2  C   UNL     1      -0.890  10.387  22.861  0.00  0.00    +0.000 A 
ATOM      3  C   UNL     1      -1.756  11.418  23.247  0.00  0.00    +0.000 A 
ATOM      4  C   UNL     1      -1.558  12.701  22.761  0.00  0.00    +0.000 A 
ATOM      5  C   UNL     1      -0.516  12.947  21.871  0.00  0.00    +0.000 A 
ATOM      6  C   UNL     1       0.346  11.921  21.417  0.00  0.00    +0.000 A 
ENDROOT
BRANCH   1   8
ATOM      7  O   UNL     1       1.937   9.234  22.598  0.00  0.00    +0.000 OA
ATOM      8  C   UNL     1       1.130   9.489  21.715  0.00  0.00    +0.000 C 
ATOM      9  N   UNL     1       0.994   8.783  20.525  0.00  0.00    +0.000 N 
ATOM     10  H   UNL     1       0.435   9.194  19.782  0.00  0.00    +0.000 HD
BRANCH   9  11
ATOM     11  C   UNL     1       1.608   7.533  20.207  0.00  0.00    +0.000 A 
ATOM     12  C   UNL     1       1.450   6.396  21.002  0.00  0.00    +0.000 A 
ATOM     13  C   UNL     1       2.036   5.175  20.652  0.00  0.00    +0.000 A 
ATOM     14  C   UNL     1       2.791   5.063  19.486  0.00  0.00    +0.000 A 
ATOM     15  C   UNL     1       2.954   6.182  18.670  0.00  0.00    +0.000 A 
ATOM     16  C   UNL     1       2.365   7.404  19.024  0.00  0.00    +0.000 A 
ATOM     17 CL   UNL     1       2.605   8.751  17.964  0.00  0.00    +0.000 Cl
ENDBRANCH   9  11
ENDBRANCH   1   8
BRANCH   6  18
ATOM     18  C   UNL     1       1.402  12.295  20.362  0.00  0.00    +0.000 C 
BRANCH  18  19
ATOM     19  C   UNL     1       0.871  12.572  18.893  0.00  0.00    +0.000 C 
BRANCH  19  20
ATOM     20  C   UNL     1      -0.447  11.803  18.605  0.00  0.00    +0.000 A 
ATOM     21  C   UNL     1      -0.461  10.510  18.048  0.00  0.00    +0.000 A 
ATOM     22  C   UNL     1      -1.663   9.842  17.760  0.00  0.00    +0.000 A 
ATOM     23  C   UNL     1      -2.884  10.462  17.987  0.00  0.00    +0.000 A 
ATOM     24  C   UNL     1      -2.909  11.746  18.513  0.00  0.00    +0.000 A 
ATOM     25  C   UNL     1      -1.710  12.398  18.832  0.00  0.00    +0.000 A 
ENDBRANCH  19  20
BRANCH  19  26
ATOM     26  C   UNL     1       0.832  14.103  18.694  0.00  0.00    +0.000 A 
ATOM     27  C   UNL     1       2.027  14.849  18.786  0.00  0.00    +0.000 A 
ATOM     28  C   UNL     1       2.012  16.227  19.008  0.00  0.00    +0.000 A 
ATOM     29  C   UNL     1       0.802  16.904  19.094  0.00  0.00    +0.000 A 
ATOM     30  C   UNL     1      -0.388  16.210  18.903  0.00  0.00    +0.000 A 
ATOM     31  C   UNL     1      -0.374  14.825  18.699  0.00  0.00    +0.000 A 
ENDBRANCH  19  26
BRANCH  19  32
ATOM     32  O   UNL     1       1.849  12.021  17.979  0.00  0.00    +0.000 OA
ATOM     33  H   UNL     1       2.545  11.633  18.532  0.00  0.00    +0.000 HD
ENDBRANCH  19  32
ENDBRANCH  18  19
ENDBRANCH   6  18
TORSDOF 7
ENDMDL
MODEL 9
REMARK VINA RESULT:      -7.4      1.638      3.859
REMARK  Name = 
REMARK  7 active torsions:
REMARK  status: ('A' for Active; 'I' for Inactive)
REMARK    1  A    between atoms: C_2  and  C_11
REMARK    2  A    between atoms: N_3  and  C_4
REMARK    3  A    between atoms: C_16  and  C_17
REMARK    4  A    between atoms: C_17  and  C_18
REMARK    5  A    between atoms: C_18  and  O_19
REMARK    6  A    between atoms: C_18  and  C_20
REMARK    7  A    between atoms: C_18  and  C_26
REMARK                            x       y       z     vdW  Elec       q    Type
REMARK                         _______ _______ _______ _____ _____    ______ ____
ROOT
ATOM      1  C   UNL     1       3.275   4.324  18.570  0.00  0.00    +0.000 A 
ATOM      2  C   UNL     1       3.295   3.585  19.773  0.00  0.00    +0.000 A 
ATOM      3  C   UNL     1       3.934   2.341  19.853  0.00  0.00    +0.000 A 
ATOM      4  C   UNL     1       4.523   1.797  18.722  0.00  0.00    +0.000 A 
ATOM      5  C   UNL     1       4.497   2.506  17.523  0.00  0.00    +0.000 A 
ATOM      6  C   UNL     1       3.908   3.788  17.418  0.00  0.00    +0.000 A 
ENDROOT
BRANCH   1   8
ATOM      7  O   UNL     1       1.507   5.622  17.742  0.00  0.00    +0.000 OA
ATOM      8  C   UNL     1       2.431   5.569  18.543  0.00  0.00    +0.000 C 
ATOM      9  N   UNL     1       2.739   6.552  19.477  0.00  0.00    +0.000 N 
ATOM     10  H   UNL     1       3.635   6.500  19.954  0.00  0.00    +0.000 HD
BRANCH   9  11
ATOM     11  C   UNL     1       1.931   7.680  19.816  0.00  0.00    +0.000 A 
ATOM     12  C   UNL     1       1.257   7.782  21.033  0.00  0.00    +0.000 A 
ATOM     13  C   UNL     1       0.497   8.912  21.354  0.00  0.00    +0.000 A 
ATOM     14  C   UNL     1       0.404   9.976  20.460  0.00  0.00    +0.000 A 
ATOM     15  C   UNL     1       1.078   9.903  19.241  0.00  0.00    +0.000 A 
ATOM     16  C   UNL     1       1.838   8.769  18.924  0.00  0.00    +0.000 A 
ATOM     17 CL   UNL     1       2.652   8.746  17.396  0.00  0.00    +0.000 Cl
ENDBRANCH   9  11
ENDBRANCH   1   8
BRANCH   6  18
ATOM     18  C   UNL     1       4.023   4.514  16.066  0.00  0.00    +0.000 C 
BRANCH  18  19
ATOM     19  C   UNL     1       5.396   5.251  15.770  0.00  0.00    +0.000 C 
BRANCH  19  20
ATOM     20  C   UNL     1       6.289   5.330  17.039  0.00  0.00    +0.000 A 
ATOM     21  C   UNL     1       6.111   6.317  18.027  0.00  0.00    +0.000 A 
ATOM     22  C   UNL     1       6.951   6.397  19.150  0.00  0.00    +0.000 A 
ATOM     23  C   UNL     1       8.013   5.516  19.299  0.00  0.00    +0.000 A 
ATOM     24  C   UNL     1       8.233   4.544  18.333  0.00  0.00    +0.000 A 
ATOM     25  C   UNL     1       7.375   4.443  17.230  0.00  0.00    +0.000 A 
ENDBRANCH  19  20
BRANCH  19  26
ATOM     26  C   UNL     1       6.024   4.582  14.527  0.00  0.00    +0.000 A 
ATOM     27  C   UNL     1       7.223   5.096  13.990  0.00  0.00    +0.000 A 
ATOM     28  C   UNL     1       7.621   4.807  12.683  0.00  0.00    +0.000 A 
ATOM     29  C   UNL     1       6.855   3.956  11.896  0.00  0.00    +0.000 A 
ATOM     30  C   UNL     1       5.724   3.354  12.437  0.00  0.00    +0.000 A 
ATOM     31  C   UNL     1       5.315   3.657  13.740  0.00  0.00    +0.000 A 
ENDBRANCH  19  26
BRANCH  19  32
ATOM     32  O   UNL     1       5.077   6.621  15.435  0.00  0.00    +0.000 OA
ATOM     33  H   UNL     1       4.344   6.579  14.800  0.00  0.00    +0.000 HD
ENDBRANCH  19  32
ENDBRANCH  18  19
ENDBRANCH   6  18
TORSDOF 7
ENDMDL
