MODEL 1
REMARK VINA RESULT:      -8.7      0.000      0.000
REMARK  Name = 
REMARK  6 active torsions:
REMARK  status: ('A' for Active; 'I' for Inactive)
REMARK    1  A    between atoms: C_2  and  O_3
REMARK    2  A    between atoms: C_2  and  C_4
REMARK    3  A    between atoms: C_7  and  O_8
REMARK    4  A    between atoms: O_8  and  C_9
REMARK    5  A    between atoms: C_12  and  N_13
REMARK    6  A    between atoms: N_18  and  C_19
REMARK                            x       y       z     vdW  Elec       q    Type
REMARK                         _______ _______ _______ _____ _____    ______ ____
ROOT
ATOM      1  C   UNL     1      -0.027   9.820  19.047  0.00  0.00    +0.000 C 
ATOM      2  C   UNL     1       1.040   9.659  17.952  0.00  0.00    +0.000 C 
ATOM      3  C   UNL     1       1.617   8.242  17.960  0.00  0.00    +0.000 C 
ATOM      4  C   UNL     1       2.278   7.924  19.309  0.00  0.00    +0.000 C 
ATOM      5  C   UNL     1       1.286   8.203  20.459  0.00  0.00    +0.000 C 
ATOM      6  C   UNL     1       0.647   9.587  20.404  0.00  0.00    +0.000 C 
ENDROOT
BRANCH   4   7
ATOM      7  N   UNL     1       2.806   6.560  19.328  0.00  0.00    +0.000 N 
ATOM      8  C   UNL     1       2.320   5.524  20.045  0.00  0.00    +0.000 C 
ATOM      9  O   UNL     1       1.386   5.485  20.827  0.00  0.00    +0.000 OA
ATOM     10  C   UNL     1       3.216   4.329  19.715  0.00  0.00    +0.000 C 
ATOM     11  O   UNL     1       3.082   3.212  20.188  0.00  0.00    +0.000 OA
ATOM     12  N   UNL     1       4.118   4.802  18.822  0.00  0.00    +0.000 N 
ATOM     13  C   UNL     1       3.968   6.164  18.704  0.00  0.00    +0.000 C 
ATOM     14  O   UNL     1       4.758   6.905  18.159  0.00  0.00    +0.000 OA
BRANCH  12  15
ATOM     15  C   UNL     1       5.159   4.028  18.128  0.00  0.00    +0.000 C 
ATOM     16  C   UNL     1       4.714   3.569  16.728  0.00  0.00    +0.000 C 
ATOM     17  C   UNL     1       4.751   4.610  15.612  0.00  0.00    +0.000 C 
ATOM     18  C   UNL     1       6.118   4.773  14.954  0.00  0.00    +0.000 C 
ATOM     19  C   UNL     1       7.251   5.263  15.848  0.00  0.00    +0.000 C 
ATOM     20  C   UNL     1       7.514   4.435  17.106  0.00  0.00    +0.000 C 
ATOM     21  C   UNL     1       6.529   4.725  18.230  0.00  0.00    +0.000 C 
ENDBRANCH  12  15
ENDBRANCH   4   7
BRANCH   1  22
ATOM     22  O   UNL     1      -0.588  11.136  19.082  0.00  0.00    +0.000 OA
BRANCH  22  26
ATOM     23  C   UNL     1      -4.665  11.198  18.273  0.00  0.00    +0.000 A 
ATOM     24  C   UNL     1      -4.154  12.147  19.167  0.00  0.00    +0.000 A 
ATOM     25  C   UNL     1      -2.778  12.217  19.389  0.00  0.00    +0.000 A 
ATOM     26  C   UNL     1      -1.917  11.284  18.807  0.00  0.00    +0.000 A 
ATOM     27  C   UNL     1      -2.433  10.357  17.896  0.00  0.00    +0.000 A 
ATOM     28  C   UNL     1      -3.797  10.320  17.620  0.00  0.00    +0.000 A 
BRANCH  23  30
ATOM     29  O   UNL     1      -6.880  10.389  18.595  0.00  0.00    +0.000 OA
ATOM     30  C   UNL     1      -6.122  11.140  18.014  0.00  0.00    +0.000 C 
BRANCH  30  31
ATOM     31  O   UNL     1      -6.514  11.996  17.042  0.00  0.00    +0.000 OA
ATOM     32  H   UNL     1      -7.121  11.620  16.383  0.00  0.00    +0.000 HD
ENDBRANCH  30  31
ENDBRANCH  23  30
ENDBRANCH  22  26
ENDBRANCH   1  22
TORSDOF 6
ENDMDL
MODEL 2
REMARK VINA RESULT:      -8.4      3.218     10.389
REMARK  Name = 
REMARK  6 active torsions:
REMARK  status: ('A' for Active; 'I' for Inactive)
REMARK    1  A    between atoms: C_2  and  O_3
REMARK    2  A    between atoms: C_2  and  C_4
REMARK    3  A    between atoms: C_7  and  O_8
REMARK    4  A    between atoms: O_8  and  C_9
REMARK    5  A    between atoms: C_12  and  N_13
REMARK    6  A    between atoms: N_18  and  C_19
REMARK                            x       y       z     vdW  Elec       q    Type
REMARK                         _______ _______ _______ _____ _____    ______ ____
ROOT
ATOM      1  C   UNL     1       2.487   7.613  18.832  0.00  0.00    +0.000 C 
ATOM      2  C   UNL     1       1.595   8.346  17.816  0.00  0.00    +0.000 C 
ATOM      3  C   UNL     1       1.391   9.805  18.227  0.00  0.00    +0.000 C 
ATOM      4  C   UNL     1       0.713   9.902  19.602  0.00  0.00    +0.000 C 
ATOM      5  C   UNL     1       1.498   9.064  20.635  0.00  0.00    +0.000 C 
ATOM      6  C   UNL     1       1.774   7.631  20.189  0.00  0.00    +0.000 C 
ENDROOT
BRANCH   4   7
ATOM      7  N   UNL     1       0.542  11.296  20.009  0.00  0.00    +0.000 N 
ATOM      8  C   UNL     1       1.313  12.339  19.635  0.00  0.00    +0.000 C 
ATOM      9  O   UNL     1       2.301  12.364  18.922  0.00  0.00    +0.000 OA
ATOM     10  C   UNL     1       0.719  13.568  20.325  0.00  0.00    +0.000 C 
ATOM     11  O   UNL     1       1.163  14.701  20.224  0.00  0.00    +0.000 OA
ATOM     12  N   UNL     1      -0.350  13.102  21.014  0.00  0.00    +0.000 N 
ATOM     13  C   UNL     1      -0.369  11.729  20.947  0.00  0.00    +0.000 C 
ATOM     14  O   UNL     1      -1.062  11.009  21.635  0.00  0.00    +0.000 OA
BRANCH  12  15
ATOM     15  C   UNL     1      -1.315  13.899  21.788  0.00  0.00    +0.000 C 
ATOM     16  C   UNL     1      -2.624  14.148  21.018  0.00  0.00    +0.000 C 
ATOM     17  C   UNL     1      -3.626  12.998  20.963  0.00  0.00    +0.000 C 
ATOM     18  C   UNL     1      -4.541  12.908  22.180  0.00  0.00    +0.000 C 
ATOM     19  C   UNL     1      -3.868  12.645  23.522  0.00  0.00    +0.000 C 
ATOM     20  C   UNL     1      -2.772  13.633  23.924  0.00  0.00    +0.000 C 
ATOM     21  C   UNL     1      -1.443  13.368  23.228  0.00  0.00    +0.000 C 
ENDBRANCH  12  15
ENDBRANCH   4   7
BRANCH   1  22
ATOM     22  O   UNL     1       2.697   6.239  18.492  0.00  0.00    +0.000 OA
BRANCH  22  26
ATOM     23  C   UNL     1       5.657   5.061  15.821  0.00  0.00    +0.000 A 
ATOM     24  C   UNL     1       5.612   6.406  16.205  0.00  0.00    +0.000 A 
ATOM     25  C   UNL     1       4.692   6.818  17.172  0.00  0.00    +0.000 A 
ATOM     26  C   UNL     1       3.752   5.923  17.684  0.00  0.00    +0.000 A 
ATOM     27  C   UNL     1       3.821   4.576  17.314  0.00  0.00    +0.000 A 
ATOM     28  C   UNL     1       4.775   4.143  16.397  0.00  0.00    +0.000 A 
BRANCH  23  30
ATOM     29  O   UNL     1       7.641   5.254  14.521  0.00  0.00    +0.000 OA
ATOM     30  C   UNL     1       6.650   4.615  14.817  0.00  0.00    +0.000 C 
BRANCH  30  31
ATOM     31  O   UNL     1       6.323   3.432  14.246  0.00  0.00    +0.000 OA
ATOM     32  H   UNL     1       7.002   3.057  13.661  0.00  0.00    +0.000 HD
ENDBRANCH  30  31
ENDBRANCH  23  30
ENDBRANCH  22  26
ENDBRANCH   1  22
TORSDOF 6
ENDMDL
MODEL 3
REMARK VINA RESULT:      -8.2      0.517      1.011
REMARK  Name = 
REMARK  6 active torsions:
REMARK  status: ('A' for Active; 'I' for Inactive)
REMARK    1  A    between atoms: C_2  and  O_3
REMARK    2  A    between atoms: C_2  and  C_4
REMARK    3  A    between atoms: C_7  and  O_8
REMARK    4  A    between atoms: O_8  and  C_9
REMARK    5  A    between atoms: C_12  and  N_13
REMARK    6  A    between atoms: N_18  and  C_19
REMARK                            x       y       z     vdW  Elec       q    Type
REMARK                         _______ _______ _______ _____ _____    ______ ____
ROOT
ATOM      1  C   UNL     1      -0.037   9.812  19.085  0.00  0.00    +0.000 C 
ATOM      2  C   UNL     1       0.962   9.622  17.932  0.00  0.00    +0.000 C 
ATOM      3  C   UNL     1       1.549   8.209  17.949  0.00  0.00    +0.000 C 
ATOM      4  C   UNL     1       2.294   7.937  19.264  0.00  0.00    +0.000 C 
ATOM      5  C   UNL     1       1.371   8.247  20.464  0.00  0.00    +0.000 C 
ATOM      6  C   UNL     1       0.720   9.625  20.405  0.00  0.00    +0.000 C 
ENDROOT
BRANCH   4   7
ATOM      7  N   UNL     1       2.832   6.577  19.294  0.00  0.00    +0.000 N 
ATOM      8  C   UNL     1       2.362   5.547  20.029  0.00  0.00    +0.000 C 
ATOM      9  O   UNL     1       1.437   5.510  20.822  0.00  0.00    +0.000 OA
ATOM     10  C   UNL     1       3.263   4.355  19.703  0.00  0.00    +0.000 C 
ATOM     11  O   UNL     1       3.142   3.242  20.191  0.00  0.00    +0.000 OA
ATOM     12  N   UNL     1       4.152   4.823  18.795  0.00  0.00    +0.000 N 
ATOM     13  C   UNL     1       3.990   6.183  18.662  0.00  0.00    +0.000 C 
ATOM     14  O   UNL     1       4.769   6.923  18.100  0.00  0.00    +0.000 OA
BRANCH  12  15
ATOM     15  C   UNL     1       5.191   4.049  18.099  0.00  0.00    +0.000 C 
ATOM     16  C   UNL     1       4.741   3.585  16.702  0.00  0.00    +0.000 C 
ATOM     17  C   UNL     1       4.772   4.623  15.583  0.00  0.00    +0.000 C 
ATOM     18  C   UNL     1       6.136   4.786  14.919  0.00  0.00    +0.000 C 
ATOM     19  C   UNL     1       7.272   5.280  15.807  0.00  0.00    +0.000 C 
ATOM     20  C   UNL     1       7.542   4.456  17.067  0.00  0.00    +0.000 C 
ATOM     21  C   UNL     1       6.560   4.748  18.194  0.00  0.00    +0.000 C 
ENDBRANCH  12  15
ENDBRANCH   4   7
BRANCH   1  22
ATOM     22  O   UNL     1      -0.605  11.124  19.113  0.00  0.00    +0.000 OA
BRANCH  22  26
ATOM     23  C   UNL     1      -4.640  11.919  18.509  0.00  0.00    +0.000 A 
ATOM     24  C   UNL     1      -4.024  10.968  17.686  0.00  0.00    +0.000 A 
ATOM     25  C   UNL     1      -2.696  10.607  17.923  0.00  0.00    +0.000 A 
ATOM     26  C   UNL     1      -1.948  11.258  18.905  0.00  0.00    +0.000 A 
ATOM     27  C   UNL     1      -2.579  12.186  19.738  0.00  0.00    +0.000 A 
ATOM     28  C   UNL     1      -3.921  12.508  19.550  0.00  0.00    +0.000 A 
BRANCH  23  30
ATOM     29  O   UNL     1      -6.770  12.781  19.128  0.00  0.00    +0.000 OA
ATOM     30  C   UNL     1      -6.057  12.282  18.279  0.00  0.00    +0.000 C 
BRANCH  30  31
ATOM     31  O   UNL     1      -6.480  11.976  17.030  0.00  0.00    +0.000 OA
ATOM     32  H   UNL     1      -6.518  11.025  16.831  0.00  0.00    +0.000 HD
ENDBRANCH  30  31
ENDBRANCH  23  30
ENDBRANCH  22  26
ENDBRANCH   1  22
TORSDOF 6
ENDMDL
MODEL 4
REMARK VINA RESULT:      -8.2      2.808     10.194
REMARK  Name = 
REMARK  6 active torsions:
REMARK  status: ('A' for Active; 'I' for Inactive)
REMARK    1  A    between atoms: C_2  and  O_3
REMARK    2  A    between atoms: C_2  and  C_4
REMARK    3  A    between atoms: C_7  and  O_8
REMARK    4  A    between atoms: O_8  and  C_9
REMARK    5  A    between atoms: C_12  and  N_13
REMARK    6  A    between atoms: N_18  and  C_19
REMARK                            x       y       z     vdW  Elec       q    Type
REMARK                         _______ _______ _______ _____ _____    ______ ____
ROOT
ATOM      1  C   UNL     1       3.009   6.537  19.347  0.00  0.00    +0.000 C 
ATOM      2  C   UNL     1       2.411   7.338  18.178  0.00  0.00    +0.000 C 
ATOM      3  C   UNL     1       1.943   8.717  18.648  0.00  0.00    +0.000 C 
ATOM      4  C   UNL     1       0.863   8.592  19.733  0.00  0.00    +0.000 C 
ATOM      5  C   UNL     1       1.365   7.678  20.873  0.00  0.00    +0.000 C 
ATOM      6  C   UNL     1       1.909   6.336  20.395  0.00  0.00    +0.000 C 
ENDROOT
BRANCH   4   7
ATOM      7  N   UNL     1       0.434   9.909  20.204  0.00  0.00    +0.000 N 
ATOM      8  C   UNL     1       0.766  10.486  21.378  0.00  0.00    +0.000 C 
ATOM      9  O   UNL     1       1.451  10.060  22.292  0.00  0.00    +0.000 OA
ATOM     10  C   UNL     1       0.069  11.848  21.387  0.00  0.00    +0.000 C 
ATOM     11  O   UNL     1       0.136  12.653  22.302  0.00  0.00    +0.000 OA
ATOM     12  N   UNL     1      -0.581  11.918  20.201  0.00  0.00    +0.000 N 
ATOM     13  C   UNL     1      -0.487  10.706  19.560  0.00  0.00    +0.000 C 
ATOM     14  O   UNL     1      -1.142  10.379  18.592  0.00  0.00    +0.000 OA
BRANCH  12  15
ATOM     15  C   UNL     1      -1.343  13.064  19.681  0.00  0.00    +0.000 C 
ATOM     16  C   UNL     1      -2.810  13.055  20.147  0.00  0.00    +0.000 C 
ATOM     17  C   UNL     1      -3.088  13.523  21.573  0.00  0.00    +0.000 C 
ATOM     18  C   UNL     1      -3.214  15.037  21.720  0.00  0.00    +0.000 C 
ATOM     19  C   UNL     1      -1.978  15.860  21.378  0.00  0.00    +0.000 C 
ATOM     20  C   UNL     1      -1.399  15.646  19.979  0.00  0.00    +0.000 C 
ATOM     21  C   UNL     1      -0.562  14.379  19.866  0.00  0.00    +0.000 C 
ENDBRANCH  12  15
ENDBRANCH   4   7
BRANCH   1  22
ATOM     22  O   UNL     1       3.452   5.235  18.953  0.00  0.00    +0.000 OA
BRANCH  22  26
ATOM     23  C   UNL     1       6.011   4.858  15.699  0.00  0.00    +0.000 A 
ATOM     24  C   UNL     1       6.208   5.934  16.573  0.00  0.00    +0.000 A 
ATOM     25  C   UNL     1       5.429   6.038  17.727  0.00  0.00    +0.000 A 
ATOM     26  C   UNL     1       4.390   5.137  17.965  0.00  0.00    +0.000 A 
ATOM     27  C   UNL     1       4.217   4.052  17.101  0.00  0.00    +0.000 A 
ATOM     28  C   UNL     1       5.030   3.904  15.980  0.00  0.00    +0.000 A 
BRANCH  23  30
ATOM     29  O   UNL     1       7.716   5.529  14.180  0.00  0.00    +0.000 OA
ATOM     30  C   UNL     1       6.855   4.728  14.489  0.00  0.00    +0.000 C 
BRANCH  30  31
ATOM     31  O   UNL     1       6.548   3.636  13.751  0.00  0.00    +0.000 OA
ATOM     32  H   UNL     1       7.129   2.870  13.889  0.00  0.00    +0.000 HD
ENDBRANCH  30  31
ENDBRANCH  23  30
ENDBRANCH  22  26
ENDBRANCH   1  22
TORSDOF 6
ENDMDL
MODEL 5
REMARK VINA RESULT:      -8.2      3.762     10.879
REMARK  Name = 
REMARK  6 active torsions:
REMARK  status: ('A' for Active; 'I' for Inactive)
REMARK    1  A    between atoms: C_2  and  O_3
REMARK    2  A    between atoms: C_2  and  C_4
REMARK    3  A    between atoms: C_7  and  O_8
REMARK    4  A    between atoms: O_8  and  C_9
REMARK    5  A    between atoms: C_12  and  N_13
REMARK    6  A    between atoms: N_18  and  C_19
REMARK                            x       y       z     vdW  Elec       q    Type
REMARK                         _______ _______ _______ _____ _____    ______ ____
ROOT
ATOM      1  C   UNL     1       1.167   8.399  20.388  0.00  0.00    +0.000 C 
ATOM      2  C   UNL     1       1.172   9.026  21.792  0.00  0.00    +0.000 C 
ATOM      3  C   UNL     1      -0.104   9.836  22.029  0.00  0.00    +0.000 C 
ATOM      4  C   UNL     1      -0.232  10.975  21.007  0.00  0.00    +0.000 C 
ATOM      5  C   UNL     1      -0.104  10.413  19.574  0.00  0.00    +0.000 C 
ATOM      6  C   UNL     1       1.126   9.536  19.361  0.00  0.00    +0.000 C 
ENDROOT
BRANCH   4   7
ATOM      7  N   UNL     1      -1.465  11.734  21.215  0.00  0.00    +0.000 N 
ATOM      8  C   UNL     1      -2.263  12.244  20.252  0.00  0.00    +0.000 C 
ATOM      9  O   UNL     1      -2.139  12.216  19.040  0.00  0.00    +0.000 OA
ATOM     10  C   UNL     1      -3.412  12.938  20.985  0.00  0.00    +0.000 C 
ATOM     11  O   UNL     1      -4.331  13.523  20.433  0.00  0.00    +0.000 OA
ATOM     12  N   UNL     1      -3.163  12.737  22.300  0.00  0.00    +0.000 N 
ATOM     13  C   UNL     1      -1.928  12.149  22.444  0.00  0.00    +0.000 C 
ATOM     14  O   UNL     1      -1.327  12.043  23.492  0.00  0.00    +0.000 OA
BRANCH  12  15
ATOM     15  C   UNL     1      -4.016  13.138  23.430  0.00  0.00    +0.000 C 
ATOM     16  C   UNL     1      -3.702  14.560  23.928  0.00  0.00    +0.000 C 
ATOM     17  C   UNL     1      -4.253  15.721  23.105  0.00  0.00    +0.000 C 
ATOM     18  C   UNL     1      -5.696  16.092  23.436  0.00  0.00    +0.000 C 
ATOM     19  C   UNL     1      -6.752  15.023  23.178  0.00  0.00    +0.000 C 
ATOM     20  C   UNL     1      -6.521  13.677  23.866  0.00  0.00    +0.000 C 
ATOM     21  C   UNL     1      -5.495  12.808  23.152  0.00  0.00    +0.000 C 
ENDBRANCH  12  15
ENDBRANCH   4   7
BRANCH   1  22
ATOM     22  O   UNL     1       2.349   7.639  20.120  0.00  0.00    +0.000 OA
BRANCH  22  26
ATOM     23  C   UNL     1       1.597   3.707  18.996  0.00  0.00    +0.000 A 
ATOM     24  C   UNL     1       1.994   4.613  18.005  0.00  0.00    +0.000 A 
ATOM     25  C   UNL     1       2.346   5.916  18.361  0.00  0.00    +0.000 A 
ATOM     26  C   UNL     1       2.210   6.353  19.680  0.00  0.00    +0.000 A 
ATOM     27  C   UNL     1       1.838   5.435  20.666  0.00  0.00    +0.000 A 
ATOM     28  C   UNL     1       1.545   4.116  20.330  0.00  0.00    +0.000 A 
BRANCH  23  30
ATOM     29  O   UNL     1       0.124   1.954  18.346  0.00  0.00    +0.000 OA
ATOM     30  C   UNL     1       1.251   2.316  18.625  0.00  0.00    +0.000 C 
BRANCH  30  31
ATOM     31  O   UNL     1       2.319   1.485  18.656  0.00  0.00    +0.000 OA
ATOM     32  H   UNL     1       3.161   1.888  18.384  0.00  0.00    +0.000 HD
ENDBRANCH  30  31
ENDBRANCH  23  30
ENDBRANCH  22  26
ENDBRANCH   1  22
TORSDOF 6
ENDMDL
MODEL 6
REMARK VINA RESULT:      -8.2      2.895     10.230
REMARK  Name = 
REMARK  6 active torsions:
REMARK  status: ('A' for Active; 'I' for Inactive)
REMARK    1  A    between atoms: C_2  and  O_3
REMARK    2  A    between atoms: C_2  and  C_4
REMARK    3  A    between atoms: C_7  and  O_8
REMARK    4  A    between atoms: O_8  and  C_9
REMARK    5  A    between atoms: C_12  and  N_13
REMARK    6  A    between atoms: N_18  and  C_19
REMARK                            x       y       z     vdW  Elec       q    Type
REMARK                         _______ _______ _______ _____ _____    ______ ____
ROOT
ATOM      1  C   UNL     1       2.349   7.073  19.096  0.00  0.00    +0.000 C 
ATOM      2  C   UNL     1       1.988   7.717  20.445  0.00  0.00    +0.000 C 
ATOM      3  C   UNL     1       0.743   8.596  20.311  0.00  0.00    +0.000 C 
ATOM      4  C   UNL     1       0.973   9.727  19.297  0.00  0.00    +0.000 C 
ATOM      5  C   UNL     1       1.473   9.140  17.959  0.00  0.00    +0.000 C 
ATOM      6  C   UNL     1       2.664   8.197  18.103  0.00  0.00    +0.000 C 
ENDROOT
BRANCH   4   7
ATOM      7  N   UNL     1      -0.225  10.552  19.147  0.00  0.00    +0.000 N 
ATOM      8  C   UNL     1      -1.171  10.423  18.191  0.00  0.00    +0.000 C 
ATOM      9  O   UNL     1      -1.236   9.643  17.257  0.00  0.00    +0.000 OA
ATOM     10  C   UNL     1      -2.204  11.515  18.475  0.00  0.00    +0.000 C 
ATOM     11  O   UNL     1      -3.206  11.710  17.805  0.00  0.00    +0.000 OA
ATOM     12  N   UNL     1      -1.751  12.149  19.582  0.00  0.00    +0.000 N 
ATOM     13  C   UNL     1      -0.499  11.675  19.897  0.00  0.00    +0.000 C 
ATOM     14  O   UNL     1       0.259  12.188  20.692  0.00  0.00    +0.000 OA
BRANCH  12  15
ATOM     15  C   UNL     1      -2.425  13.232  20.315  0.00  0.00    +0.000 C 
ATOM     16  C   UNL     1      -3.200  12.719  21.541  0.00  0.00    +0.000 C 
ATOM     17  C   UNL     1      -2.385  12.389  22.789  0.00  0.00    +0.000 C 
ATOM     18  C   UNL     1      -2.086  13.593  23.677  0.00  0.00    +0.000 C 
ATOM     19  C   UNL     1      -1.242  14.703  23.060  0.00  0.00    +0.000 C 
ATOM     20  C   UNL     1      -1.769  15.296  21.753  0.00  0.00    +0.000 C 
ATOM     21  C   UNL     1      -1.476  14.424  20.539  0.00  0.00    +0.000 C 
ENDBRANCH  12  15
ENDBRANCH   4   7
BRANCH   1  22
ATOM     22  O   UNL     1       3.515   6.248  19.173  0.00  0.00    +0.000 OA
BRANCH  22  26
ATOM     23  C   UNL     1       5.636   5.054  15.803  0.00  0.00    +0.000 A 
ATOM     24  C   UNL     1       4.546   4.274  16.208  0.00  0.00    +0.000 A 
ATOM     25  C   UNL     1       3.754   4.697  17.278  0.00  0.00    +0.000 A 
ATOM     26  C   UNL     1       4.098   5.834  18.009  0.00  0.00    +0.000 A 
ATOM     27  C   UNL     1       5.172   6.620  17.582  0.00  0.00    +0.000 A 
ATOM     28  C   UNL     1       5.931   6.241  16.478  0.00  0.00    +0.000 A 
BRANCH  23  30
ATOM     29  O   UNL     1       6.151   3.717  13.903  0.00  0.00    +0.000 OA
ATOM     30  C   UNL     1       6.461   4.624  14.651  0.00  0.00    +0.000 C 
BRANCH  30  31
ATOM     31  O   UNL     1       7.609   5.331  14.536  0.00  0.00    +0.000 OA
ATOM     32  H   UNL     1       7.525   6.283  14.718  0.00  0.00    +0.000 HD
ENDBRANCH  30  31
ENDBRANCH  23  30
ENDBRANCH  22  26
ENDBRANCH   1  22
TORSDOF 6
ENDMDL
MODEL 7
REMARK VINA RESULT:      -8.1      3.172     10.522
REMARK  Name = 
REMARK  6 active torsions:
REMARK  status: ('A' for Active; 'I' for Inactive)
REMARK    1  A    between atoms: C_2  and  O_3
REMARK    2  A    between atoms: C_2  and  C_4
REMARK    3  A    between atoms: C_7  and  O_8
REMARK    4  A    between atoms: O_8  and  C_9
REMARK    5  A    between atoms: C_12  and  N_13
REMARK    6  A    between atoms: N_18  and  C_19
REMARK                            x       y       z     vdW  Elec       q    Type
REMARK                         _______ _______ _______ _____ _____    ______ ____
ROOT
ATOM      1  C   UNL     1       2.341   7.342  19.444  0.00  0.00    +0.000 C 
ATOM      2  C   UNL     1       1.659   8.049  18.261  0.00  0.00    +0.000 C 
ATOM      3  C   UNL     1       1.480   9.541  18.550  0.00  0.00    +0.000 C 
ATOM      4  C   UNL     1       0.608   9.761  19.795  0.00  0.00    +0.000 C 
ATOM      5  C   UNL     1       1.177   8.956  20.985  0.00  0.00    +0.000 C 
ATOM      6  C   UNL     1       1.433   7.485  20.670  0.00  0.00    +0.000 C 
ENDROOT
BRANCH   4   7
ATOM      7  N   UNL     1       0.459  11.186  20.090  0.00  0.00    +0.000 N 
ATOM      8  C   UNL     1       1.208  12.190  19.585  0.00  0.00    +0.000 C 
ATOM      9  O   UNL     1       2.156  12.149  18.820  0.00  0.00    +0.000 OA
ATOM     10  C   UNL     1       0.652  13.476  20.199  0.00  0.00    +0.000 C 
ATOM     11  O   UNL     1       1.090  14.594  19.977  0.00  0.00    +0.000 OA
ATOM     12  N   UNL     1      -0.376  13.076  20.983  0.00  0.00    +0.000 N 
ATOM     13  C   UNL     1      -0.399  11.702  21.036  0.00  0.00    +0.000 C 
ATOM     14  O   UNL     1      -1.053  11.047  21.820  0.00  0.00    +0.000 OA
BRANCH  12  15
ATOM     15  C   UNL     1      -1.297  13.940  21.737  0.00  0.00    +0.000 C 
ATOM     16  C   UNL     1      -2.651  14.119  21.027  0.00  0.00    +0.000 C 
ATOM     17  C   UNL     1      -3.649  12.969  21.136  0.00  0.00    +0.000 C 
ATOM     18  C   UNL     1      -4.490  12.991  22.409  0.00  0.00    +0.000 C 
ATOM     19  C   UNL     1      -3.737  12.851  23.727  0.00  0.00    +0.000 C 
ATOM     20  C   UNL     1      -2.624  13.871  23.971  0.00  0.00    +0.000 C 
ATOM     21  C   UNL     1      -1.338  13.542  23.225  0.00  0.00    +0.000 C 
ENDBRANCH  12  15
ENDBRANCH   4   7
BRANCH   1  22
ATOM     22  O   UNL     1       2.519   5.940  19.220  0.00  0.00    +0.000 OA
BRANCH  22  26
ATOM     23  C   UNL     1       6.137   4.863  17.478  0.00  0.00    +0.000 A 
ATOM     24  C   UNL     1       6.109   5.080  18.861  0.00  0.00    +0.000 A 
ATOM     25  C   UNL     1       4.893   5.350  19.493  0.00  0.00    +0.000 A 
ATOM     26  C   UNL     1       3.724   5.505  18.746  0.00  0.00    +0.000 A 
ATOM     27  C   UNL     1       3.757   5.261  17.370  0.00  0.00    +0.000 A 
ATOM     28  C   UNL     1       4.954   4.930  16.739  0.00  0.00    +0.000 A 
BRANCH  23  30
ATOM     29  O   UNL     1       7.626   4.738  15.626  0.00  0.00    +0.000 OA
ATOM     30  C   UNL     1       7.420   4.549  16.808  0.00  0.00    +0.000 C 
BRANCH  30  31
ATOM     31  O   UNL     1       8.329   4.004  17.650  0.00  0.00    +0.000 OA
ATOM     32  H   UNL     1       9.183   4.467  17.688  0.00  0.00    +0.000 HD
ENDBRANCH  30  31
ENDBRANCH  23  30
ENDBRANCH  22  26
ENDBRANCH   1  22
TORSDOF 6
ENDMDL
MODEL 8
REMARK VINA RESULT:      -8.1      2.821      4.276
REMARK  Name = 
REMARK  6 active torsions:
REMARK  status: ('A' for Active; 'I' for Inactive)
REMARK    1  A    between atoms: C_2  and  O_3
REMARK    2  A    between atoms: C_2  and  C_4
REMARK    3  A    between atoms: C_7  and  O_8
REMARK    4  A    between atoms: O_8  and  C_9
REMARK    5  A    between atoms: C_12  and  N_13
REMARK    6  A    between atoms: N_18  and  C_19
REMARK                            x       y       z     vdW  Elec       q    Type
REMARK                         _______ _______ _______ _____ _____    ______ ____
ROOT
ATOM      1  C   UNL     1      -0.600  12.790  19.926  0.00  0.00    +0.000 C 
ATOM      2  C   UNL     1       0.594  12.470  20.842  0.00  0.00    +0.000 C 
ATOM      3  C   UNL     1       1.449  11.349  20.249  0.00  0.00    +0.000 C 
ATOM      4  C   UNL     1       0.629  10.061  20.079  0.00  0.00    +0.000 C 
ATOM      5  C   UNL     1      -0.658  10.359  19.278  0.00  0.00    +0.000 C 
ATOM      6  C   UNL     1      -1.468  11.531  19.822  0.00  0.00    +0.000 C 
ENDROOT
BRANCH   4   7
ATOM      7  N   UNL     1       1.437   8.996  19.485  0.00  0.00    +0.000 N 
ATOM      8  C   UNL     1       2.032   9.024  18.274  0.00  0.00    +0.000 C 
ATOM      9  O   UNL     1       2.019   9.890  17.417  0.00  0.00    +0.000 OA
ATOM     10  C   UNL     1       2.751   7.681  18.129  0.00  0.00    +0.000 C 
ATOM     11  O   UNL     1       3.396   7.344  17.150  0.00  0.00    +0.000 OA
ATOM     12  N   UNL     1       2.507   7.025  19.289  0.00  0.00    +0.000 N 
ATOM     13  C   UNL     1       1.604   7.744  20.035  0.00  0.00    +0.000 C 
ATOM     14  O   UNL     1       1.019   7.325  21.012  0.00  0.00    +0.000 OA
BRANCH  12  15
ATOM     15  C   UNL     1       3.043   5.715  19.689  0.00  0.00    +0.000 C 
ATOM     16  C   UNL     1       2.069   4.563  19.383  0.00  0.00    +0.000 C 
ATOM     17  C   UNL     1       1.994   4.084  17.936  0.00  0.00    +0.000 C 
ATOM     18  C   UNL     1       3.069   3.070  17.556  0.00  0.00    +0.000 C 
ATOM     19  C   UNL     1       4.515   3.547  17.631  0.00  0.00    +0.000 C 
ATOM     20  C   UNL     1       4.962   4.111  18.980  0.00  0.00    +0.000 C 
ATOM     21  C   UNL     1       4.498   5.543  19.213  0.00  0.00    +0.000 C 
ENDBRANCH  12  15
ENDBRANCH   4   7
BRANCH   1  22
ATOM     22  O   UNL     1      -1.433  13.828  20.449  0.00  0.00    +0.000 OA
BRANCH  22  26
ATOM     23  C   UNL     1      -4.547  13.040  23.088  0.00  0.00    +0.000 A 
ATOM     24  C   UNL     1      -4.841  13.108  21.721  0.00  0.00    +0.000 A 
ATOM     25  C   UNL     1      -3.806  13.276  20.799  0.00  0.00    +0.000 A 
ATOM     26  C   UNL     1      -2.495  13.478  21.233  0.00  0.00    +0.000 A 
ATOM     27  C   UNL     1      -2.207  13.382  22.598  0.00  0.00    +0.000 A 
ATOM     28  C   UNL     1      -3.224  13.152  23.521  0.00  0.00    +0.000 A 
BRANCH  23  30
ATOM     29  O   UNL     1      -6.703  13.419  24.022  0.00  0.00    +0.000 OA
ATOM     30  C   UNL     1      -5.639  12.832  24.067  0.00  0.00    +0.000 C 
BRANCH  30  31
ATOM     31  O   UNL     1      -5.315  11.939  25.031  0.00  0.00    +0.000 OA
ATOM     32  H   UNL     1      -5.304  12.296  25.935  0.00  0.00    +0.000 HD
ENDBRANCH  30  31
ENDBRANCH  23  30
ENDBRANCH  22  26
ENDBRANCH   1  22
TORSDOF 6
ENDMDL
MODEL 9
REMARK VINA RESULT:      -8.1      3.272     10.554
REMARK  Name = 
REMARK  6 active torsions:
REMARK  status: ('A' for Active; 'I' for Inactive)
REMARK    1  A    between atoms: C_2  and  O_3
REMARK    2  A    between atoms: C_2  and  C_4
REMARK    3  A    between atoms: C_7  and  O_8
REMARK    4  A    between atoms: O_8  and  C_9
REMARK    5  A    between atoms: C_12  and  N_13
REMARK    6  A    between atoms: N_18  and  C_19
REMARK                            x       y       z     vdW  Elec       q    Type
REMARK                         _______ _______ _______ _____ _____    ______ ____
ROOT
ATOM      1  C   UNL     1       1.833   8.239  18.685  0.00  0.00    +0.000 C 
ATOM      2  C   UNL     1       1.717   8.326  20.216  0.00  0.00    +0.000 C 
ATOM      3  C   UNL     1       0.489   9.143  20.622  0.00  0.00    +0.000 C 
ATOM      4  C   UNL     1       0.575  10.576  20.076  0.00  0.00    +0.000 C 
ATOM      5  C   UNL     1       0.830  10.544  18.553  0.00  0.00    +0.000 C 
ATOM      6  C   UNL     1       2.005   9.662  18.141  0.00  0.00    +0.000 C 
ENDROOT
BRANCH   4   7
ATOM      7  N   UNL     1      -0.611  11.351  20.440  0.00  0.00    +0.000 N 
ATOM      8  C   UNL     1      -1.631  11.686  19.620  0.00  0.00    +0.000 C 
ATOM      9  O   UNL     1      -1.788  11.454  18.434  0.00  0.00    +0.000 OA
ATOM     10  C   UNL     1      -2.612  12.487  20.478  0.00  0.00    +0.000 C 
ATOM     11  O   UNL     1      -3.659  12.964  20.069  0.00  0.00    +0.000 OA
ATOM     12  N   UNL     1      -2.059  12.513  21.714  0.00  0.00    +0.000 N 
ATOM     13  C   UNL     1      -0.798  11.966  21.658  0.00  0.00    +0.000 C 
ATOM     14  O   UNL     1       0.032  12.043  22.539  0.00  0.00    +0.000 OA
BRANCH  12  15
ATOM     15  C   UNL     1      -2.648  13.094  22.930  0.00  0.00    +0.000 C 
ATOM     16  C   UNL     1      -2.305  14.586  23.094  0.00  0.00    +0.000 C 
ATOM     17  C   UNL     1      -3.096  15.577  22.244  0.00  0.00    +0.000 C 
ATOM     18  C   UNL     1      -4.441  15.980  22.842  0.00  0.00    +0.000 C 
ATOM     19  C   UNL     1      -5.467  14.867  23.026  0.00  0.00    +0.000 C 
ATOM     20  C   UNL     1      -5.009  13.666  23.854  0.00  0.00    +0.000 C 
ATOM     21  C   UNL     1      -4.130  12.700  23.072  0.00  0.00    +0.000 C 
ENDBRANCH  12  15
ENDBRANCH   4   7
BRANCH   1  22
ATOM     22  O   UNL     1       2.975   7.491  18.260  0.00  0.00    +0.000 OA
BRANCH  22  26
ATOM     23  C   UNL     1       2.910   3.344  18.549  0.00  0.00    +0.000 A 
ATOM     24  C   UNL     1       3.985   4.030  19.127  0.00  0.00    +0.000 A 
ATOM     25  C   UNL     1       3.991   5.426  19.132  0.00  0.00    +0.000 A 
ATOM     26  C   UNL     1       2.988   6.142  18.478  0.00  0.00    +0.000 A 
ATOM     27  C   UNL     1       1.905   5.451  17.927  0.00  0.00    +0.000 A 
ATOM     28  C   UNL     1       1.859   4.060  17.971  0.00  0.00    +0.000 A 
BRANCH  23  30
ATOM     29  O   UNL     1       3.876   1.172  18.426  0.00  0.00    +0.000 OA
ATOM     30  C   UNL     1       2.885   1.863  18.567  0.00  0.00    +0.000 C 
BRANCH  30  31
ATOM     31  O   UNL     1       1.639   1.363  18.732  0.00  0.00    +0.000 OA
ATOM     32  H   UNL     1       1.391   1.172  19.652  0.00  0.00    +0.000 HD
ENDBRANCH  30  31
ENDBRANCH  23  30
ENDBRANCH  22  26
ENDBRANCH   1  22
TORSDOF 6
ENDMDL
