MODEL 1
REMARK VINA RESULT:      -8.0      0.000      0.000
REMARK  Name = 
REMARK  9 active torsions:
REMARK  status: ('A' for Active; 'I' for Inactive)
REMARK    1  A    between atoms: C_1  and  C_2
REMARK    2  A    between atoms: C_2  and  C_3
REMARK    3  A    between atoms: C_3  and  N_4
REMARK    4  A    between atoms: C_8  and  C_9
REMARK    5  A    between atoms: N_11  and  C_12
REMARK    6  A    between atoms: C_12  and  C_13
REMARK    7  A    between atoms: C_25  and  O_26
REMARK    8  A    between atoms: O_26  and  C_27
REMARK    9  A    between atoms: C_27  and  C_28
REMARK                            x       y       z     vdW  Elec       q    Type
REMARK                         _______ _______ _______ _____ _____    ______ ____
ROOT
ATOM      1  N   UNL     1       4.758   5.016  17.525  0.00  0.00    +0.000 N 
ATOM      2  N   UNL     1       4.439   6.187  16.930  0.00  0.00    +0.000 NA
ATOM      3  C   UNL     1       3.580   6.779  17.775  0.00  0.00    +0.000 A 
ATOM      4  C   UNL     1       2.962   8.033  17.677  0.00  0.00    +0.000 A 
ATOM      5  C   UNL     1       2.136   8.346  18.780  0.00  0.00    +0.000 A 
ATOM      6  C   UNL     1       1.910   7.453  19.871  0.00  0.00    +0.000 A 
ATOM      7  C   UNL     1       2.511   6.192  19.982  0.00  0.00    +0.000 A 
ATOM      8  C   UNL     1       3.351   5.908  18.908  0.00  0.00    +0.000 A 
ATOM      9  C   UNL     1       4.120   4.778  18.727  0.00  0.00    +0.000 A 
ENDROOT
BRANCH   5  10
ATOM     10  C   UNL     1       1.472   9.683  18.810  0.00  0.00    +0.000 C 
ATOM     11  O   UNL     1       1.927  10.615  18.182  0.00  0.00    +0.000 OA
ATOM     12  N   UNL     1       0.307   9.747  19.573  0.00  0.00    +0.000 N 
ATOM     13  H   UNL     1      -0.189   8.907  19.828  0.00  0.00    +0.000 HD
BRANCH  12  14
ATOM     14  C   UNL     1      -0.435  10.981  19.588  0.00  0.00    +0.000 C 
BRANCH  14  15
ATOM     15  C   UNL     1      -1.673  10.945  18.767  0.00  0.00    +0.000 A 
ATOM     16  C   UNL     1      -2.859  11.692  18.998  0.00  0.00    +0.000 A 
ATOM     17  C   UNL     1      -3.877  11.718  18.020  0.00  0.00    +0.000 A 
ATOM     18  C   UNL     1      -3.672  10.964  16.879  0.00  0.00    +0.000 A 
ATOM     19  C   UNL     1      -2.592  10.130  16.748  0.00  0.00    +0.000 A 
ATOM     20  C   UNL     1      -1.566  10.131  17.640  0.00  0.00    +0.000 A 
ATOM     21  O   UNL     1      -2.557   9.462  15.568  0.00  0.00    +0.000 OA
ATOM     22  C   UNL     1      -3.406  10.352  14.839  0.00  0.00    +0.000 C 
ATOM     23  O   UNL     1      -4.372  11.006  15.704  0.00  0.00    +0.000 OA
ENDBRANCH  14  15
ENDBRANCH  12  14
ENDBRANCH   5  10
BRANCH   1  24
ATOM     24  C   UNL     1       5.716   4.138  16.872  0.00  0.00    +0.000 C 
BRANCH  24  26
ATOM     25  C   UNL     1       7.666   5.101  18.137  0.00  0.00    +0.000 C 
ATOM     26  C   UNL     1       7.112   4.748  16.765  0.00  0.00    +0.000 C 
ENDBRANCH  24  26
ENDBRANCH   1  24
BRANCH   9  27
ATOM     27  O   UNL     1       4.346   3.634  19.397  0.00  0.00    +0.000 OA
BRANCH  27  28
ATOM     28  C   UNL     1       3.274   2.695  19.424  0.00  0.00    +0.000 C 
ATOM     29  C   UNL     1       3.452   1.627  18.370  0.00  0.00    +0.000 C 
ENDBRANCH  27  28
ENDBRANCH   9  27
TORSDOF 7
ENDMDL
MODEL 2
REMARK VINA RESULT:      -8.0      1.125      1.269
REMARK  Name = 
REMARK  9 active torsions:
REMARK  status: ('A' for Active; 'I' for Inactive)
REMARK    1  A    between atoms: C_1  and  C_2
REMARK    2  A    between atoms: C_2  and  C_3
REMARK    3  A    between atoms: C_3  and  N_4
REMARK    4  A    between atoms: C_8  and  C_9
REMARK    5  A    between atoms: N_11  and  C_12
REMARK    6  A    between atoms: C_12  and  C_13
REMARK    7  A    between atoms: C_25  and  O_26
REMARK    8  A    between atoms: O_26  and  C_27
REMARK    9  A    between atoms: C_27  and  C_28
REMARK                            x       y       z     vdW  Elec       q    Type
REMARK                         _______ _______ _______ _____ _____    ______ ____
ROOT
ATOM      1  N   UNL     1       4.544   4.593  17.414  0.00  0.00    +0.000 N 
ATOM      2  N   UNL     1       4.167   5.871  17.184  0.00  0.00    +0.000 NA
ATOM      3  C   UNL     1       3.378   6.189  18.223  0.00  0.00    +0.000 A 
ATOM      4  C   UNL     1       2.746   7.405  18.516  0.00  0.00    +0.000 A 
ATOM      5  C   UNL     1       2.013   7.386  19.724  0.00  0.00    +0.000 A 
ATOM      6  C   UNL     1       1.885   6.228  20.548  0.00  0.00    +0.000 A 
ATOM      7  C   UNL     1       2.503   5.001  20.267  0.00  0.00    +0.000 A 
ATOM      8  C   UNL     1       3.251   5.041  19.093  0.00  0.00    +0.000 A 
ATOM      9  C   UNL     1       4.011   4.023  18.555  0.00  0.00    +0.000 A 
ENDROOT
BRANCH   5  10
ATOM     10  C   UNL     1       1.344   8.647  20.166  0.00  0.00    +0.000 C 
ATOM     11  O   UNL     1       1.043   8.813  21.328  0.00  0.00    +0.000 OA
ATOM     12  N   UNL     1       1.138   9.590  19.161  0.00  0.00    +0.000 N 
ATOM     13  H   UNL     1       1.654   9.544  18.296  0.00  0.00    +0.000 HD
BRANCH  12  14
ATOM     14  C   UNL     1       0.571  10.864  19.523  0.00  0.00    +0.000 C 
BRANCH  14  15
ATOM     15  C   UNL     1      -0.845  11.029  19.105  0.00  0.00    +0.000 A 
ATOM     16  C   UNL     1      -1.807  11.884  19.706  0.00  0.00    +0.000 A 
ATOM     17  C   UNL     1      -3.052  12.098  19.076  0.00  0.00    +0.000 A 
ATOM     18  C   UNL     1      -3.285  11.413  17.898  0.00  0.00    +0.000 A 
ATOM     19  C   UNL     1      -2.407  10.475  17.420  0.00  0.00    +0.000 A 
ATOM     20  C   UNL     1      -1.176  10.294  17.967  0.00  0.00    +0.000 A 
ATOM     21  O   UNL     1      -2.802   9.897  16.258  0.00  0.00    +0.000 OA
ATOM     22  C   UNL     1      -3.703  10.930  15.849  0.00  0.00    +0.000 C 
ATOM     23  O   UNL     1      -4.284  11.622  16.986  0.00  0.00    +0.000 OA
ENDBRANCH  14  15
ENDBRANCH  12  14
ENDBRANCH   5  10
BRANCH   1  24
ATOM     24  C   UNL     1       5.450   3.951  16.476  0.00  0.00    +0.000 C 
BRANCH  24  26
ATOM     25  C   UNL     1       7.603   4.582  17.613  0.00  0.00    +0.000 C 
ATOM     26  C   UNL     1       6.784   4.681  16.335  0.00  0.00    +0.000 C 
ENDBRANCH  24  26
ENDBRANCH   1  24
BRANCH   9  27
ATOM     27  O   UNL     1       4.301   2.749  18.871  0.00  0.00    +0.000 OA
BRANCH  27  28
ATOM     28  C   UNL     1       3.475   1.747  18.281  0.00  0.00    +0.000 C 
ATOM     29  C   UNL     1       2.065   1.810  18.822  0.00  0.00    +0.000 C 
ENDBRANCH  27  28
ENDBRANCH   9  27
TORSDOF 7
ENDMDL
MODEL 3
REMARK VINA RESULT:      -7.9      1.158      1.910
REMARK  Name = 
REMARK  9 active torsions:
REMARK  status: ('A' for Active; 'I' for Inactive)
REMARK    1  A    between atoms: C_1  and  C_2
REMARK    2  A    between atoms: C_2  and  C_3
REMARK    3  A    between atoms: C_3  and  N_4
REMARK    4  A    between atoms: C_8  and  C_9
REMARK    5  A    between atoms: N_11  and  C_12
REMARK    6  A    between atoms: C_12  and  C_13
REMARK    7  A    between atoms: C_25  and  O_26
REMARK    8  A    between atoms: O_26  and  C_27
REMARK    9  A    between atoms: C_27  and  C_28
REMARK                            x       y       z     vdW  Elec       q    Type
REMARK                         _______ _______ _______ _____ _____    ______ ____
ROOT
ATOM      1  N   UNL     1       5.028   4.893  17.214  0.00  0.00    +0.000 N 
ATOM      2  N   UNL     1       4.735   6.086  16.649  0.00  0.00    +0.000 NA
ATOM      3  C   UNL     1       3.859   6.659  17.490  0.00  0.00    +0.000 A 
ATOM      4  C   UNL     1       3.255   7.921  17.415  0.00  0.00    +0.000 A 
ATOM      5  C   UNL     1       2.403   8.207  18.505  0.00  0.00    +0.000 A 
ATOM      6  C   UNL     1       2.139   7.283  19.560  0.00  0.00    +0.000 A 
ATOM      7  C   UNL     1       2.726   6.012  19.647  0.00  0.00    +0.000 A 
ATOM      8  C   UNL     1       3.592   5.755  18.587  0.00  0.00    +0.000 A 
ATOM      9  C   UNL     1       4.356   4.623  18.391  0.00  0.00    +0.000 A 
ENDROOT
BRANCH   5  10
ATOM     10  C   UNL     1       1.750   9.549  18.561  0.00  0.00    +0.000 C 
ATOM     11  O   UNL     1       2.154  10.463  17.876  0.00  0.00    +0.000 OA
ATOM     12  N   UNL     1       0.653   9.638  19.417  0.00  0.00    +0.000 N 
ATOM     13  H   UNL     1       0.177   8.807  19.732  0.00  0.00    +0.000 HD
BRANCH  12  14
ATOM     14  C   UNL     1      -0.079  10.877  19.466  0.00  0.00    +0.000 C 
BRANCH  14  15
ATOM     15  C   UNL     1      -1.347  10.854  18.692  0.00  0.00    +0.000 A 
ATOM     16  C   UNL     1      -1.652   9.998  17.599  0.00  0.00    +0.000 A 
ATOM     17  C   UNL     1      -2.969   9.940  17.095  0.00  0.00    +0.000 A 
ATOM     18  C   UNL     1      -3.904  10.771  17.684  0.00  0.00    +0.000 A 
ATOM     19  C   UNL     1      -3.553  11.699  18.631  0.00  0.00    +0.000 A 
ATOM     20  C   UNL     1      -2.311  11.736  19.181  0.00  0.00    +0.000 A 
ATOM     21  O   UNL     1      -4.597  12.432  19.092  0.00  0.00    +0.000 OA
ATOM     22  C   UNL     1      -5.630  11.515  18.722  0.00  0.00    +0.000 C 
ATOM     23  O   UNL     1      -5.265  10.735  17.552  0.00  0.00    +0.000 OA
ENDBRANCH  14  15
ENDBRANCH  12  14
ENDBRANCH   5  10
BRANCH   1  24
ATOM     24  C   UNL     1       5.995   4.027  16.560  0.00  0.00    +0.000 C 
BRANCH  24  26
ATOM     25  C   UNL     1       6.050   3.945  14.046  0.00  0.00    +0.000 C 
ATOM     26  C   UNL     1       6.585   4.638  15.290  0.00  0.00    +0.000 C 
ENDBRANCH  24  26
ENDBRANCH   1  24
BRANCH   9  27
ATOM     27  O   UNL     1       4.554   3.456  19.029  0.00  0.00    +0.000 OA
BRANCH  27  28
ATOM     28  C   UNL     1       3.416   2.607  19.161  0.00  0.00    +0.000 C 
ATOM     29  C   UNL     1       2.951   2.099  17.816  0.00  0.00    +0.000 C 
ENDBRANCH  27  28
ENDBRANCH   9  27
TORSDOF 7
ENDMDL
MODEL 4
REMARK VINA RESULT:      -7.8      1.085      2.664
REMARK  Name = 
REMARK  9 active torsions:
REMARK  status: ('A' for Active; 'I' for Inactive)
REMARK    1  A    between atoms: C_1  and  C_2
REMARK    2  A    between atoms: C_2  and  C_3
REMARK    3  A    between atoms: C_3  and  N_4
REMARK    4  A    between atoms: C_8  and  C_9
REMARK    5  A    between atoms: N_11  and  C_12
REMARK    6  A    between atoms: C_12  and  C_13
REMARK    7  A    between atoms: C_25  and  O_26
REMARK    8  A    between atoms: O_26  and  C_27
REMARK    9  A    between atoms: C_27  and  C_28
REMARK                            x       y       z     vdW  Elec       q    Type
REMARK                         _______ _______ _______ _____ _____    ______ ____
ROOT
ATOM      1  N   UNL     1       3.300   4.366  19.611  0.00  0.00    +0.000 N 
ATOM      2  N   UNL     1       2.479   5.235  20.241  0.00  0.00    +0.000 NA
ATOM      3  C   UNL     1       2.544   6.360  19.511  0.00  0.00    +0.000 A 
ATOM      4  C   UNL     1       1.860   7.571  19.687  0.00  0.00    +0.000 A 
ATOM      5  C   UNL     1       2.154   8.536  18.697  0.00  0.00    +0.000 A 
ATOM      6  C   UNL     1       3.092   8.321  17.644  0.00  0.00    +0.000 A 
ATOM      7  C   UNL     1       3.792   7.121  17.457  0.00  0.00    +0.000 A 
ATOM      8  C   UNL     1       3.469   6.165  18.417  0.00  0.00    +0.000 A 
ATOM      9  C   UNL     1       3.944   4.872  18.498  0.00  0.00    +0.000 A 
ENDROOT
BRANCH   5  10
ATOM     10  C   UNL     1       1.438   9.846  18.751  0.00  0.00    +0.000 C 
ATOM     11  O   UNL     1       1.880  10.817  18.177  0.00  0.00    +0.000 OA
ATOM     12  N   UNL     1       0.242   9.837  19.468  0.00  0.00    +0.000 N 
ATOM     13  H   UNL     1      -0.231   8.970  19.671  0.00  0.00    +0.000 HD
BRANCH  12  14
ATOM     14  C   UNL     1      -0.547  11.042  19.499  0.00  0.00    +0.000 C 
BRANCH  14  15
ATOM     15  C   UNL     1      -1.777  10.973  18.669  0.00  0.00    +0.000 A 
ATOM     16  C   UNL     1      -2.988  11.680  18.897  0.00  0.00    +0.000 A 
ATOM     17  C   UNL     1      -4.000  11.681  17.912  0.00  0.00    +0.000 A 
ATOM     18  C   UNL     1      -3.763  10.943  16.767  0.00  0.00    +0.000 A 
ATOM     19  C   UNL     1      -2.656  10.144  16.637  0.00  0.00    +0.000 A 
ATOM     20  C   UNL     1      -1.637  10.170  17.537  0.00  0.00    +0.000 A 
ATOM     21  O   UNL     1      -2.592   9.485  15.453  0.00  0.00    +0.000 OA
ATOM     22  C   UNL     1      -3.464  10.354  14.725  0.00  0.00    +0.000 C 
ATOM     23  O   UNL     1      -4.456  10.971  15.588  0.00  0.00    +0.000 OA
ENDBRANCH  14  15
ENDBRANCH  12  14
ENDBRANCH   5  10
BRANCH   1  24
ATOM     24  C   UNL     1       3.427   3.016  20.137  0.00  0.00    +0.000 C 
BRANCH  24  26
ATOM     25  C   UNL     1       1.372   2.183  18.949  0.00  0.00    +0.000 C 
ATOM     26  C   UNL     1       2.085   2.302  20.287  0.00  0.00    +0.000 C 
ENDBRANCH  24  26
ENDBRANCH   1  24
BRANCH   9  27
ATOM     27  O   UNL     1       4.801   4.102  17.806  0.00  0.00    +0.000 OA
BRANCH  27  28
ATOM     28  C   UNL     1       6.182   4.442  17.908  0.00  0.00    +0.000 C 
ATOM     29  C   UNL     1       6.825   4.540  16.544  0.00  0.00    +0.000 C 
ENDBRANCH  27  28
ENDBRANCH   9  27
TORSDOF 7
ENDMDL
MODEL 5
REMARK VINA RESULT:      -7.7      1.741      3.064
REMARK  Name = 
REMARK  9 active torsions:
REMARK  status: ('A' for Active; 'I' for Inactive)
REMARK    1  A    between atoms: C_1  and  C_2
REMARK    2  A    between atoms: C_2  and  C_3
REMARK    3  A    between atoms: C_3  and  N_4
REMARK    4  A    between atoms: C_8  and  C_9
REMARK    5  A    between atoms: N_11  and  C_12
REMARK    6  A    between atoms: C_12  and  C_13
REMARK    7  A    between atoms: C_25  and  O_26
REMARK    8  A    between atoms: O_26  and  C_27
REMARK    9  A    between atoms: C_27  and  C_28
REMARK                            x       y       z     vdW  Elec       q    Type
REMARK                         _______ _______ _______ _____ _____    ______ ____
ROOT
ATOM      1  N   UNL     1       4.077   4.215  19.120  0.00  0.00    +0.000 N 
ATOM      2  N   UNL     1       3.179   4.790  19.952  0.00  0.00    +0.000 NA
ATOM      3  C   UNL     1       2.947   6.001  19.422  0.00  0.00    +0.000 A 
ATOM      4  C   UNL     1       2.068   7.004  19.855  0.00  0.00    +0.000 A 
ATOM      5  C   UNL     1       2.061   8.147  19.025  0.00  0.00    +0.000 A 
ATOM      6  C   UNL     1       2.901   8.295  17.881  0.00  0.00    +0.000 A 
ATOM      7  C   UNL     1       3.793   7.307  17.438  0.00  0.00    +0.000 A 
ATOM      8  C   UNL     1       3.766   6.170  18.242  0.00  0.00    +0.000 A 
ATOM      9  C   UNL     1       4.486   5.007  18.064  0.00  0.00    +0.000 A 
ENDROOT
BRANCH   5  10
ATOM     10  C   UNL     1       1.118   9.258  19.358  0.00  0.00    +0.000 C 
ATOM     11  O   UNL     1       0.723   9.415  20.493  0.00  0.00    +0.000 OA
ATOM     12  N   UNL     1       0.776  10.082  18.288  0.00  0.00    +0.000 N 
ATOM     13  H   UNL     1       1.339  10.102  17.451  0.00  0.00    +0.000 HD
BRANCH  12  14
ATOM     14  C   UNL     1      -0.066  11.223  18.544  0.00  0.00    +0.000 C 
BRANCH  14  15
ATOM     15  C   UNL     1      -1.480  11.027  18.134  0.00  0.00    +0.000 A 
ATOM     16  C   UNL     1      -1.973  10.019  17.262  0.00  0.00    +0.000 A 
ATOM     17  C   UNL     1      -3.364   9.821  17.127  0.00  0.00    +0.000 A 
ATOM     18  C   UNL     1      -4.191  10.668  17.843  0.00  0.00    +0.000 A 
ATOM     19  C   UNL     1      -3.697  11.730  18.555  0.00  0.00    +0.000 A 
ATOM     20  C   UNL     1      -2.364  11.909  18.755  0.00  0.00    +0.000 A 
ATOM     21  O   UNL     1      -4.652  12.458  19.186  0.00  0.00    +0.000 OA
ATOM     22  C   UNL     1      -5.659  11.443  19.203  0.00  0.00    +0.000 C 
ATOM     23  O   UNL     1      -5.533  10.538  18.074  0.00  0.00    +0.000 OA
ENDBRANCH  14  15
ENDBRANCH  12  14
ENDBRANCH   5  10
BRANCH   1  24
ATOM     24  C   UNL     1       4.517   2.857  19.395  0.00  0.00    +0.000 C 
BRANCH  24  26
ATOM     25  C   UNL     1       2.697   2.114  17.826  0.00  0.00    +0.000 C 
ATOM     26  C   UNL     1       3.441   1.809  19.117  0.00  0.00    +0.000 C 
ENDBRANCH  24  26
ENDBRANCH   1  24
BRANCH   9  27
ATOM     27  O   UNL     1       5.393   4.545  17.186  0.00  0.00    +0.000 OA
BRANCH  27  28
ATOM     28  C   UNL     1       4.914   4.258  15.874  0.00  0.00    +0.000 C 
ATOM     29  C   UNL     1       5.871   4.760  14.818  0.00  0.00    +0.000 C 
ENDBRANCH  27  28
ENDBRANCH   9  27
TORSDOF 7
ENDMDL
MODEL 6
REMARK VINA RESULT:      -7.7      1.438      2.544
REMARK  Name = 
REMARK  9 active torsions:
REMARK  status: ('A' for Active; 'I' for Inactive)
REMARK    1  A    between atoms: C_1  and  C_2
REMARK    2  A    between atoms: C_2  and  C_3
REMARK    3  A    between atoms: C_3  and  N_4
REMARK    4  A    between atoms: C_8  and  C_9
REMARK    5  A    between atoms: N_11  and  C_12
REMARK    6  A    between atoms: C_12  and  C_13
REMARK    7  A    between atoms: C_25  and  O_26
REMARK    8  A    between atoms: O_26  and  C_27
REMARK    9  A    between atoms: C_27  and  C_28
REMARK                            x       y       z     vdW  Elec       q    Type
REMARK                         _______ _______ _______ _____ _____    ______ ____
ROOT
ATOM      1  N   UNL     1       4.106   3.930  19.129  0.00  0.00    +0.000 N 
ATOM      2  N   UNL     1       3.227   4.457  20.011  0.00  0.00    +0.000 NA
ATOM      3  C   UNL     1       2.993   5.700  19.562  0.00  0.00    +0.000 A 
ATOM      4  C   UNL     1       2.128   6.678  20.072  0.00  0.00    +0.000 A 
ATOM      5  C   UNL     1       2.112   7.871  19.315  0.00  0.00    +0.000 A 
ATOM      6  C   UNL     1       2.932   8.085  18.167  0.00  0.00    +0.000 A 
ATOM      7  C   UNL     1       3.810   7.122  17.647  0.00  0.00    +0.000 A 
ATOM      8  C   UNL     1       3.791   5.938  18.380  0.00  0.00    +0.000 A 
ATOM      9  C   UNL     1       4.501   4.784  18.117  0.00  0.00    +0.000 A 
ENDROOT
BRANCH   5  10
ATOM     10  C   UNL     1       1.182   8.963  19.733  0.00  0.00    +0.000 C 
ATOM     11  O   UNL     1       0.743   9.004  20.862  0.00  0.00    +0.000 OA
ATOM     12  N   UNL     1       0.905   9.911  18.750  0.00  0.00    +0.000 N 
ATOM     13  H   UNL     1       1.503  10.009  17.945  0.00  0.00    +0.000 HD
BRANCH  12  14
ATOM     14  C   UNL     1       0.080  11.039  19.100  0.00  0.00    +0.000 C 
BRANCH  14  15
ATOM     15  C   UNL     1      -1.292  10.975  18.534  0.00  0.00    +0.000 A 
ATOM     16  C   UNL     1      -2.439  11.656  19.025  0.00  0.00    +0.000 A 
ATOM     17  C   UNL     1      -3.629  11.670  18.266  0.00  0.00    +0.000 A 
ATOM     18  C   UNL     1      -3.622  10.968  17.075  0.00  0.00    +0.000 A 
ATOM     19  C   UNL     1      -2.557  10.191  16.698  0.00  0.00    +0.000 A 
ATOM     20  C   UNL     1      -1.377  10.208  17.373  0.00  0.00    +0.000 A 
ATOM     21  O   UNL     1      -2.728   9.568  15.505  0.00  0.00    +0.000 OA
ATOM     22  C   UNL     1      -3.737  10.444  14.996  0.00  0.00    +0.000 C 
ATOM     23  O   UNL     1      -4.540  11.020  16.061  0.00  0.00    +0.000 OA
ENDBRANCH  14  15
ENDBRANCH  12  14
ENDBRANCH   5  10
BRANCH   1  24
ATOM     24  C   UNL     1       4.543   2.555  19.312  0.00  0.00    +0.000 C 
BRANCH  24  26
ATOM     25  C   UNL     1       2.666   2.061  17.711  0.00  0.00    +0.000 C 
ATOM     26  C   UNL     1       3.502   1.531  18.866  0.00  0.00    +0.000 C 
ENDBRANCH  24  26
ENDBRANCH   1  24
BRANCH   9  27
ATOM     27  O   UNL     1       5.389   4.373  17.195  0.00  0.00    +0.000 OA
BRANCH  27  28
ATOM     28  C   UNL     1       4.960   4.428  15.836  0.00  0.00    +0.000 C 
ATOM     29  C   UNL     1       6.024   3.896  14.903  0.00  0.00    +0.000 C 
ENDBRANCH  27  28
ENDBRANCH   9  27
TORSDOF 7
ENDMDL
MODEL 7
REMARK VINA RESULT:      -7.5      1.249      2.539
REMARK  Name = 
REMARK  9 active torsions:
REMARK  status: ('A' for Active; 'I' for Inactive)
REMARK    1  A    between atoms: C_1  and  C_2
REMARK    2  A    between atoms: C_2  and  C_3
REMARK    3  A    between atoms: C_3  and  N_4
REMARK    4  A    between atoms: C_8  and  C_9
REMARK    5  A    between atoms: N_11  and  C_12
REMARK    6  A    between atoms: C_12  and  C_13
REMARK    7  A    between atoms: C_25  and  O_26
REMARK    8  A    between atoms: O_26  and  C_27
REMARK    9  A    between atoms: C_27  and  C_28
REMARK                            x       y       z     vdW  Elec       q    Type
REMARK                         _______ _______ _______ _____ _____    ______ ____
ROOT
ATOM      1  N   UNL     1       3.105   3.775  17.865  0.00  0.00    +0.000 N 
ATOM      2  N   UNL     1       2.181   4.560  18.463  0.00  0.00    +0.000 NA
ATOM      3  C   UNL     1       2.550   5.815  18.162  0.00  0.00    +0.000 A 
ATOM      4  C   UNL     1       1.924   7.025  18.491  0.00  0.00    +0.000 A 
ATOM      5  C   UNL     1       2.581   8.163  17.972  0.00  0.00    +0.000 A 
ATOM      6  C   UNL     1       3.795   8.097  17.224  0.00  0.00    +0.000 A 
ATOM      7  C   UNL     1       4.440   6.897  16.892  0.00  0.00    +0.000 A 
ATOM      8  C   UNL     1       3.765   5.780  17.378  0.00  0.00    +0.000 A 
ATOM      9  C   UNL     1       4.106   4.456  17.197  0.00  0.00    +0.000 A 
ENDROOT
BRANCH   5  10
ATOM     10  C   UNL     1       1.971   9.505  18.212  0.00  0.00    +0.000 C 
ATOM     11  O   UNL     1       2.396  10.489  17.646  0.00  0.00    +0.000 OA
ATOM     12  N   UNL     1       0.886   9.513  19.088  0.00  0.00    +0.000 N 
ATOM     13  H   UNL     1       0.388   8.662  19.299  0.00  0.00    +0.000 HD
BRANCH  12  14
ATOM     14  C   UNL     1       0.193  10.756  19.309  0.00  0.00    +0.000 C 
BRANCH  14  15
ATOM     15  C   UNL     1      -1.161  10.802  18.700  0.00  0.00    +0.000 A 
ATOM     16  C   UNL     1      -2.267  11.566  19.162  0.00  0.00    +0.000 A 
ATOM     17  C   UNL     1      -3.428  11.677  18.367  0.00  0.00    +0.000 A 
ATOM     18  C   UNL     1      -3.438  10.986  17.169  0.00  0.00    +0.000 A 
ATOM     19  C   UNL     1      -2.424  10.132  16.818  0.00  0.00    +0.000 A 
ATOM     20  C   UNL     1      -1.268  10.052  17.529  0.00  0.00    +0.000 A 
ATOM     21  O   UNL     1      -2.605   9.533  15.615  0.00  0.00    +0.000 OA
ATOM     22  C   UNL     1      -3.527  10.487  15.084  0.00  0.00    +0.000 C 
ATOM     23  O   UNL     1      -4.316  11.115  16.129  0.00  0.00    +0.000 OA
ENDBRANCH  14  15
ENDBRANCH  12  14
ENDBRANCH   5  10
BRANCH   1  24
ATOM     24  C   UNL     1       2.971   2.331  17.968  0.00  0.00    +0.000 C 
BRANCH  24  26
ATOM     25  C   UNL     1       4.339   2.154  20.071  0.00  0.00    +0.000 C 
ATOM     26  C   UNL     1       3.009   1.827  19.409  0.00  0.00    +0.000 C 
ENDBRANCH  24  26
ENDBRANCH   1  24
BRANCH   9  27
ATOM     27  O   UNL     1       5.090   3.777  16.583  0.00  0.00    +0.000 OA
BRANCH  27  28
ATOM     28  C   UNL     1       6.411   4.290  16.747  0.00  0.00    +0.000 C 
ATOM     29  C   UNL     1       7.023   4.663  15.417  0.00  0.00    +0.000 C 
ENDBRANCH  27  28
ENDBRANCH   9  27
TORSDOF 7
ENDMDL
MODEL 8
REMARK VINA RESULT:      -7.4      3.415      8.933
REMARK  Name = 
REMARK  9 active torsions:
REMARK  status: ('A' for Active; 'I' for Inactive)
REMARK    1  A    between atoms: C_1  and  C_2
REMARK    2  A    between atoms: C_2  and  C_3
REMARK    3  A    between atoms: C_3  and  N_4
REMARK    4  A    between atoms: C_8  and  C_9
REMARK    5  A    between atoms: N_11  and  C_12
REMARK    6  A    between atoms: C_12  and  C_13
REMARK    7  A    between atoms: C_25  and  O_26
REMARK    8  A    between atoms: O_26  and  C_27
REMARK    9  A    between atoms: C_27  and  C_28
REMARK                            x       y       z     vdW  Elec       q    Type
REMARK                         _______ _______ _______ _____ _____    ______ ____
ROOT
ATOM      1  N   UNL     1       0.131  11.819  20.247  0.00  0.00    +0.000 N 
ATOM      2  N   UNL     1       0.625  11.154  19.178  0.00  0.00    +0.000 NA
ATOM      3  C   UNL     1       1.026   9.969  19.666  0.00  0.00    +0.000 A 
ATOM      4  C   UNL     1       1.579   8.873  18.989  0.00  0.00    +0.000 A 
ATOM      5  C   UNL     1       1.853   7.769  19.826  0.00  0.00    +0.000 A 
ATOM      6  C   UNL     1       1.636   7.779  21.237  0.00  0.00    +0.000 A 
ATOM      7  C   UNL     1       1.092   8.868  21.933  0.00  0.00    +0.000 A 
ATOM      8  C   UNL     1       0.793   9.938  21.093  0.00  0.00    +0.000 A 
ATOM      9  C   UNL     1       0.214  11.139  21.447  0.00  0.00    +0.000 A 
ENDROOT
BRANCH   5  10
ATOM     10  C   UNL     1       2.391   6.523  19.202  0.00  0.00    +0.000 C 
ATOM     11  O   UNL     1       1.959   6.125  18.142  0.00  0.00    +0.000 OA
ATOM     12  N   UNL     1       3.420   5.904  19.911  0.00  0.00    +0.000 N 
ATOM     13  H   UNL     1       3.941   6.410  20.611  0.00  0.00    +0.000 HD
BRANCH  12  14
ATOM     14  C   UNL     1       4.046   4.742  19.334  0.00  0.00    +0.000 C 
BRANCH  14  15
ATOM     15  C   UNL     1       5.106   5.062  18.343  0.00  0.00    +0.000 A 
ATOM     16  C   UNL     1       6.442   5.445  18.634  0.00  0.00    +0.000 A 
ATOM     17  C   UNL     1       7.397   5.514  17.597  0.00  0.00    +0.000 A 
ATOM     18  C   UNL     1       6.956   5.234  16.317  0.00  0.00    +0.000 A 
ATOM     19  C   UNL     1       5.630   5.020  16.039  0.00  0.00    +0.000 A 
ATOM     20  C   UNL     1       4.699   4.885  17.021  0.00  0.00    +0.000 A 
ATOM     21  O   UNL     1       5.378   4.769  14.730  0.00  0.00    +0.000 OA
ATOM     22  C   UNL     1       6.699   4.352  14.377  0.00  0.00    +0.000 C 
ATOM     23  O   UNL     1       7.708   4.998  15.198  0.00  0.00    +0.000 OA
ENDBRANCH  14  15
ENDBRANCH  12  14
ENDBRANCH   5  10
BRANCH   1  24
ATOM     24  C   UNL     1      -0.430  13.145  20.048  0.00  0.00    +0.000 C 
BRANCH  24  26
ATOM     25  C   UNL     1       1.248  14.638  18.916  0.00  0.00    +0.000 C 
ATOM     26  C   UNL     1       0.593  14.263  20.236  0.00  0.00    +0.000 C 
ENDBRANCH  24  26
ENDBRANCH   1  24
BRANCH   9  27
ATOM     27  O   UNL     1      -0.228  11.713  22.580  0.00  0.00    +0.000 OA
BRANCH  27  28
ATOM     28  C   UNL     1      -1.447  11.202  23.114  0.00  0.00    +0.000 C 
ATOM     29  C   UNL     1      -2.533  12.253  23.104  0.00  0.00    +0.000 C 
ENDBRANCH  27  28
ENDBRANCH   9  27
TORSDOF 7
ENDMDL
MODEL 9
REMARK VINA RESULT:      -7.4      2.275      3.743
REMARK  Name = 
REMARK  9 active torsions:
REMARK  status: ('A' for Active; 'I' for Inactive)
REMARK    1  A    between atoms: C_1  and  C_2
REMARK    2  A    between atoms: C_2  and  C_3
REMARK    3  A    between atoms: C_3  and  N_4
REMARK    4  A    between atoms: C_8  and  C_9
REMARK    5  A    between atoms: N_11  and  C_12
REMARK    6  A    between atoms: C_12  and  C_13
REMARK    7  A    between atoms: C_25  and  O_26
REMARK    8  A    between atoms: O_26  and  C_27
REMARK    9  A    between atoms: C_27  and  C_28
REMARK                            x       y       z     vdW  Elec       q    Type
REMARK                         _______ _______ _______ _____ _____    ______ ____
ROOT
ATOM      1  N   UNL     1       2.442   5.653  19.975  0.00  0.00    +0.000 N 
ATOM      2  N   UNL     1       1.824   6.540  20.787  0.00  0.00    +0.000 NA
ATOM      3  C   UNL     1       1.707   7.656  20.051  0.00  0.00    +0.000 A 
ATOM      4  C   UNL     1       1.106   8.878  20.383  0.00  0.00    +0.000 A 
ATOM      5  C   UNL     1       1.141   9.829  19.340  0.00  0.00    +0.000 A 
ATOM      6  C   UNL     1       1.769   9.592  18.080  0.00  0.00    +0.000 A 
ATOM      7  C   UNL     1       2.383   8.381  17.733  0.00  0.00    +0.000 A 
ATOM      8  C   UNL     1       2.312   7.438  18.755  0.00  0.00    +0.000 A 
ATOM      9  C   UNL     1       2.779   6.140  18.726  0.00  0.00    +0.000 A 
ENDROOT
BRANCH   5  10
ATOM     10  C   UNL     1       0.477  11.149  19.562  0.00  0.00    +0.000 C 
ATOM     11  O   UNL     1       1.095  12.082  20.029  0.00  0.00    +0.000 OA
ATOM     12  N   UNL     1      -0.858  11.214  19.166  0.00  0.00    +0.000 N 
ATOM     13  H   UNL     1      -1.239  10.533  18.527  0.00  0.00    +0.000 HD
BRANCH  12  14
ATOM     14  C   UNL     1      -1.544  12.476  19.274  0.00  0.00    +0.000 C 
BRANCH  14  15
ATOM     15  C   UNL     1      -2.992  12.345  19.578  0.00  0.00    +0.000 A 
ATOM     16  C   UNL     1      -3.663  12.858  20.721  0.00  0.00    +0.000 A 
ATOM     17  C   UNL     1      -5.073  12.843  20.777  0.00  0.00    +0.000 A 
ATOM     18  C   UNL     1      -5.738  12.279  19.703  0.00  0.00    +0.000 A 
ATOM     19  C   UNL     1      -5.068  11.651  18.685  0.00  0.00    +0.000 A 
ATOM     20  C   UNL     1      -3.714  11.705  18.571  0.00  0.00    +0.000 A 
ATOM     21  O   UNL     1      -5.880  11.149  17.722  0.00  0.00    +0.000 OA
ATOM     22  C   UNL     1      -7.012  11.976  18.003  0.00  0.00    +0.000 C 
ATOM     23  O   UNL     1      -7.071  12.355  19.403  0.00  0.00    +0.000 OA
ENDBRANCH  14  15
ENDBRANCH  12  14
ENDBRANCH   5  10
BRANCH   1  24
ATOM     24  C   UNL     1       2.689   4.307  20.466  0.00  0.00    +0.000 C 
BRANCH  24  26
ATOM     25  C   UNL     1       0.968   2.841  19.363  0.00  0.00    +0.000 C 
ATOM     26  C   UNL     1       1.409   3.497  20.662  0.00  0.00    +0.000 C 
ENDBRANCH  24  26
ENDBRANCH   1  24
BRANCH   9  27
ATOM     27  O   UNL     1       3.417   5.352  17.844  0.00  0.00    +0.000 OA
BRANCH  27  28
ATOM     28  C   UNL     1       4.810   5.601  17.664  0.00  0.00    +0.000 C 
ATOM     29  C   UNL     1       5.078   6.295  16.349  0.00  0.00    +0.000 C 
ENDBRANCH  27  28
ENDBRANCH   9  27
TORSDOF 7
ENDMDL
