MODEL 1
REMARK VINA RESULT:      -7.3      0.000      0.000
REMARK  Name = 
REMARK  13 active torsions:
REMARK  status: ('A' for Active; 'I' for Inactive)
REMARK    1  A    between atoms: C_1  and  O_2
REMARK    2  A    between atoms: O_2  and  C_3
REMARK    3  A    between atoms: C_3  and  C_5
REMARK    4  A    between atoms: C_5  and  C_6
REMARK    5  A    between atoms: C_5  and  N_10
REMARK    6  A    between atoms: C_6  and  C_7
REMARK    7  A    between atoms: C_7  and  C_8
REMARK    8  A    between atoms: C_7  and  C_9
REMARK    9  A    between atoms: C_11  and  C_13
REMARK   10  A    between atoms: C_15  and  C_16
REMARK   11  A    between atoms: C_16  and  O_17
REMARK   12  A    between atoms: O_17  and  C_18
REMARK   13  A    between atoms: C_21  and  N_22
REMARK                            x       y       z     vdW  Elec       q    Type
REMARK                         _______ _______ _______ _____ _____    ______ ____
ROOT
ATOM      1  C   UNL     1       3.643   2.345  19.605  0.00  0.00    +0.000 C 
ATOM      2  O   UNL     1       2.319   1.796  19.493  0.00  0.00    +0.000 OA
ATOM      3  C   UNL     1       2.513   2.803  20.500  0.00  0.00    +0.000 C 
ENDROOT
BRANCH   1   5
ATOM      4  N   UNL     1       5.390   3.647  18.572  0.00  0.00    +0.000 N 
ATOM      5  C   UNL     1       4.110   3.169  18.468  0.00  0.00    +0.000 C 
ATOM      6  O   UNL     1       3.368   3.379  17.522  0.00  0.00    +0.000 OA
ATOM      7  H   UNL     1       5.910   3.447  19.422  0.00  0.00    +0.000 HD
BRANCH   4   8
ATOM      8  C   UNL     1       5.988   4.553  17.590  0.00  0.00    +0.000 C 
BRANCH   8   9
ATOM      9  C   UNL     1       7.434   4.862  18.028  0.00  0.00    +0.000 C 
ATOM     10  O   UNL     1       8.394   4.141  17.771  0.00  0.00    +0.000 OA
BRANCH   9  12
ATOM     11  C   UNL     1       7.695   7.224  17.873  0.00  0.00    +0.000 C 
ATOM     12  O   UNL     1       7.518   6.054  18.690  0.00  0.00    +0.000 OA
ENDBRANCH   9  12
ENDBRANCH   8   9
BRANCH   8  13
ATOM     13  C   UNL     1       5.995   3.883  16.208  0.00  0.00    +0.000 C 
BRANCH  13  14
ATOM     14  C   UNL     1       5.675   4.799  15.002  0.00  0.00    +0.000 C 
ATOM     15  C   UNL     1       5.247   6.214  15.396  0.00  0.00    +0.000 C 
ATOM     16  C   UNL     1       6.897   4.888  14.083  0.00  0.00    +0.000 C 
ENDBRANCH  13  14
ENDBRANCH   8  13
ENDBRANCH   4   8
ENDBRANCH   1   5
BRANCH   3  17
ATOM     17  C   UNL     1       1.740   4.063  20.274  0.00  0.00    +0.000 C 
BRANCH  17  18
ATOM     18  O   UNL     1       2.514   5.164  20.763  0.00  0.00    +0.000 OA
BRANCH  18  19
ATOM     19  C   UNL     1       2.225   6.381  20.210  0.00  0.00    +0.000 A 
ATOM     20  C   UNL     1       2.644   6.562  18.889  0.00  0.00    +0.000 A 
ATOM     21  C   UNL     1       2.391   7.764  18.222  0.00  0.00    +0.000 A 
ATOM     22  C   UNL     1       1.695   8.787  18.882  0.00  0.00    +0.000 A 
ATOM     23  C   UNL     1       1.250   8.599  20.202  0.00  0.00    +0.000 A 
ATOM     24  C   UNL     1       1.520   7.398  20.860  0.00  0.00    +0.000 A 
BRANCH  22  25
ATOM     25  N   UNL     1       1.416  10.049  18.199  0.00  0.00    +0.000 N 
ATOM     26  O   UNL     1       2.365  10.645  17.679  0.00  0.00    +0.000 OA
ATOM     27  O   UNL     1       0.237  10.454  18.183  0.00  0.00    +0.000 OA
ENDBRANCH  22  25
ENDBRANCH  18  19
ENDBRANCH  17  18
ENDBRANCH   3  17
TORSDOF 10
ENDMDL
MODEL 2
REMARK VINA RESULT:      -7.3      0.758      1.170
REMARK  Name = 
REMARK  13 active torsions:
REMARK  status: ('A' for Active; 'I' for Inactive)
REMARK    1  A    between atoms: C_1  and  O_2
REMARK    2  A    between atoms: O_2  and  C_3
REMARK    3  A    between atoms: C_3  and  C_5
REMARK    4  A    between atoms: C_5  and  C_6
REMARK    5  A    between atoms: C_5  and  N_10
REMARK    6  A    between atoms: C_6  and  C_7
REMARK    7  A    between atoms: C_7  and  C_8
REMARK    8  A    between atoms: C_7  and  C_9
REMARK    9  A    between atoms: C_11  and  C_13
REMARK   10  A    between atoms: C_15  and  C_16
REMARK   11  A    between atoms: C_16  and  O_17
REMARK   12  A    between atoms: O_17  and  C_18
REMARK   13  A    between atoms: C_21  and  N_22
REMARK                            x       y       z     vdW  Elec       q    Type
REMARK                         _______ _______ _______ _____ _____    ______ ____
ROOT
ATOM      1  C   UNL     1       4.113   2.516  19.508  0.00  0.00    +0.000 C 
ATOM      2  O   UNL     1       2.890   1.792  19.285  0.00  0.00    +0.000 OA
ATOM      3  C   UNL     1       2.863   2.799  20.310  0.00  0.00    +0.000 C 
ENDROOT
BRANCH   1   5
ATOM      4  N   UNL     1       5.747   4.051  18.622  0.00  0.00    +0.000 N 
ATOM      5  C   UNL     1       4.550   3.414  18.418  0.00  0.00    +0.000 C 
ATOM      6  O   UNL     1       3.858   3.546  17.421  0.00  0.00    +0.000 OA
ATOM      7  H   UNL     1       6.225   3.902  19.506  0.00  0.00    +0.000 HD
BRANCH   4   8
ATOM      8  C   UNL     1       6.292   5.046  17.697  0.00  0.00    +0.000 C 
BRANCH   8   9
ATOM      9  C   UNL     1       7.410   5.824  18.420  0.00  0.00    +0.000 C 
ATOM     10  O   UNL     1       7.755   5.606  19.578  0.00  0.00    +0.000 OA
BRANCH   9  12
ATOM     11  C   UNL     1       8.043   8.096  18.095  0.00  0.00    +0.000 C 
ATOM     12  O   UNL     1       7.996   6.746  17.600  0.00  0.00    +0.000 OA
ENDBRANCH   9  12
ENDBRANCH   8   9
BRANCH   8  13
ATOM     13  C   UNL     1       6.866   4.338  16.460  0.00  0.00    +0.000 C 
BRANCH  13  14
ATOM     14  C   UNL     1       6.455   4.921  15.086  0.00  0.00    +0.000 C 
ATOM     15  C   UNL     1       5.994   3.865  14.079  0.00  0.00    +0.000 C 
ATOM     16  C   UNL     1       5.336   5.949  15.275  0.00  0.00    +0.000 C 
ENDBRANCH  13  14
ENDBRANCH   8  13
ENDBRANCH   4   8
ENDBRANCH   1   5
BRANCH   3  17
ATOM     17  C   UNL     1       1.943   3.944  20.030  0.00  0.00    +0.000 C 
BRANCH  17  18
ATOM     18  O   UNL     1       2.329   5.049  20.856  0.00  0.00    +0.000 OA
BRANCH  18  19
ATOM     19  C   UNL     1       2.113   6.289  20.322  0.00  0.00    +0.000 A 
ATOM     20  C   UNL     1       2.586   6.480  19.020  0.00  0.00    +0.000 A 
ATOM     21  C   UNL     1       2.409   7.706  18.373  0.00  0.00    +0.000 A 
ATOM     22  C   UNL     1       1.737   8.745  19.033  0.00  0.00    +0.000 A 
ATOM     23  C   UNL     1       1.239   8.548  20.332  0.00  0.00    +0.000 A 
ATOM     24  C   UNL     1       1.432   7.322  20.971  0.00  0.00    +0.000 A 
BRANCH  22  25
ATOM     25  N   UNL     1       1.538  10.032  18.370  0.00  0.00    +0.000 N 
ATOM     26  O   UNL     1       0.625  10.757  18.780  0.00  0.00    +0.000 OA
ATOM     27  O   UNL     1       2.298  10.325  17.426  0.00  0.00    +0.000 OA
ENDBRANCH  22  25
ENDBRANCH  18  19
ENDBRANCH  17  18
ENDBRANCH   3  17
TORSDOF 10
ENDMDL
MODEL 3
REMARK VINA RESULT:      -7.1      1.841      3.037
REMARK  Name = 
REMARK  13 active torsions:
REMARK  status: ('A' for Active; 'I' for Inactive)
REMARK    1  A    between atoms: C_1  and  O_2
REMARK    2  A    between atoms: O_2  and  C_3
REMARK    3  A    between atoms: C_3  and  C_5
REMARK    4  A    between atoms: C_5  and  C_6
REMARK    5  A    between atoms: C_5  and  N_10
REMARK    6  A    between atoms: C_6  and  C_7
REMARK    7  A    between atoms: C_7  and  C_8
REMARK    8  A    between atoms: C_7  and  C_9
REMARK    9  A    between atoms: C_11  and  C_13
REMARK   10  A    between atoms: C_15  and  C_16
REMARK   11  A    between atoms: C_16  and  O_17
REMARK   12  A    between atoms: O_17  and  C_18
REMARK   13  A    between atoms: C_21  and  N_22
REMARK                            x       y       z     vdW  Elec       q    Type
REMARK                         _______ _______ _______ _____ _____    ______ ____
ROOT
ATOM      1  C   UNL     1       3.739   2.854  18.518  0.00  0.00    +0.000 C 
ATOM      2  O   UNL     1       2.986   2.614  17.316  0.00  0.00    +0.000 OA
ATOM      3  C   UNL     1       2.380   3.478  18.293  0.00  0.00    +0.000 C 
ENDROOT
BRANCH   1   5
ATOM      4  N   UNL     1       5.308   3.987  17.080  0.00  0.00    +0.000 N 
ATOM      5  C   UNL     1       4.984   3.639  18.365  0.00  0.00    +0.000 C 
ATOM      6  O   UNL     1       5.643   3.934  19.350  0.00  0.00    +0.000 OA
ATOM      7  H   UNL     1       4.712   3.656  16.328  0.00  0.00    +0.000 HD
BRANCH   4   8
ATOM      8  C   UNL     1       6.548   4.682  16.729  0.00  0.00    +0.000 C 
BRANCH   8   9
ATOM      9  C   UNL     1       6.735   4.603  15.200  0.00  0.00    +0.000 C 
ATOM     10  O   UNL     1       7.585   5.239  14.582  0.00  0.00    +0.000 OA
BRANCH   9  12
ATOM     11  C   UNL     1       5.908   3.620  13.195  0.00  0.00    +0.000 C 
ATOM     12  O   UNL     1       5.874   3.708  14.631  0.00  0.00    +0.000 OA
ENDBRANCH   9  12
ENDBRANCH   8   9
BRANCH   8  13
ATOM     13  C   UNL     1       6.457   6.152  17.166  0.00  0.00    +0.000 C 
BRANCH  13  14
ATOM     14  C   UNL     1       7.763   6.789  17.700  0.00  0.00    +0.000 C 
ATOM     15  C   UNL     1       7.754   8.319  17.690  0.00  0.00    +0.000 C 
ATOM     16  C   UNL     1       8.029   6.303  19.128  0.00  0.00    +0.000 C 
ENDBRANCH  13  14
ENDBRANCH   8  13
ENDBRANCH   4   8
ENDBRANCH   1   5
BRANCH   3  17
ATOM     17  C   UNL     1       2.184   4.889  17.835  0.00  0.00    +0.000 C 
BRANCH  17  18
ATOM     18  O   UNL     1       2.969   5.749  18.670  0.00  0.00    +0.000 OA
BRANCH  18  19
ATOM     19  C   UNL     1       2.371   6.923  19.035  0.00  0.00    +0.000 A 
ATOM     20  C   UNL     1       1.986   7.015  20.377  0.00  0.00    +0.000 A 
ATOM     21  C   UNL     1       1.376   8.175  20.862  0.00  0.00    +0.000 A 
ATOM     22  C   UNL     1       1.167   9.259  19.997  0.00  0.00    +0.000 A 
ATOM     23  C   UNL     1       1.575   9.179  18.655  0.00  0.00    +0.000 A 
ATOM     24  C   UNL     1       2.174   8.010  18.181  0.00  0.00    +0.000 A 
BRANCH  22  25
ATOM     25  N   UNL     1       0.536  10.483  20.488  0.00  0.00    +0.000 N 
ATOM     26  O   UNL     1       0.893  10.914  21.589  0.00  0.00    +0.000 OA
ATOM     27  O   UNL     1      -0.331  11.019  19.770  0.00  0.00    +0.000 OA
ENDBRANCH  22  25
ENDBRANCH  18  19
ENDBRANCH  17  18
ENDBRANCH   3  17
TORSDOF 10
ENDMDL
MODEL 4
REMARK VINA RESULT:      -7.1      1.728      2.839
REMARK  Name = 
REMARK  13 active torsions:
REMARK  status: ('A' for Active; 'I' for Inactive)
REMARK    1  A    between atoms: C_1  and  O_2
REMARK    2  A    between atoms: O_2  and  C_3
REMARK    3  A    between atoms: C_3  and  C_5
REMARK    4  A    between atoms: C_5  and  C_6
REMARK    5  A    between atoms: C_5  and  N_10
REMARK    6  A    between atoms: C_6  and  C_7
REMARK    7  A    between atoms: C_7  and  C_8
REMARK    8  A    between atoms: C_7  and  C_9
REMARK    9  A    between atoms: C_11  and  C_13
REMARK   10  A    between atoms: C_15  and  C_16
REMARK   11  A    between atoms: C_16  and  O_17
REMARK   12  A    between atoms: O_17  and  C_18
REMARK   13  A    between atoms: C_21  and  N_22
REMARK                            x       y       z     vdW  Elec       q    Type
REMARK                         _______ _______ _______ _____ _____    ______ ____
ROOT
ATOM      1  C   UNL     1       3.179   3.070  18.810  0.00  0.00    +0.000 C 
ATOM      2  O   UNL     1       2.087   3.768  18.187  0.00  0.00    +0.000 OA
ATOM      3  C   UNL     1       2.141   3.812  19.623  0.00  0.00    +0.000 C 
ENDROOT
BRANCH   1   5
ATOM      4  N   UNL     1       4.685   4.349  17.430  0.00  0.00    +0.000 N 
ATOM      5  C   UNL     1       4.529   3.630  18.586  0.00  0.00    +0.000 C 
ATOM      6  O   UNL     1       5.413   3.439  19.407  0.00  0.00    +0.000 OA
ATOM      7  H   UNL     1       3.895   4.414  16.795  0.00  0.00    +0.000 HD
BRANCH   4   8
ATOM      8  C   UNL     1       5.972   4.898  16.997  0.00  0.00    +0.000 C 
BRANCH   8   9
ATOM      9  C   UNL     1       5.952   5.034  15.461  0.00  0.00    +0.000 C 
ATOM     10  O   UNL     1       5.602   6.052  14.869  0.00  0.00    +0.000 OA
BRANCH   9  12
ATOM     11  C   UNL     1       6.213   3.826  13.425  0.00  0.00    +0.000 C 
ATOM     12  O   UNL     1       6.415   3.904  14.848  0.00  0.00    +0.000 OA
ENDBRANCH   9  12
ENDBRANCH   8   9
BRANCH   8  13
ATOM     13  C   UNL     1       6.185   6.278  17.639  0.00  0.00    +0.000 C 
BRANCH  13  14
ATOM     14  C   UNL     1       7.654   6.739  17.797  0.00  0.00    +0.000 C 
ATOM     15  C   UNL     1       7.848   8.249  17.652  0.00  0.00    +0.000 C 
ATOM     16  C   UNL     1       8.189   6.299  19.163  0.00  0.00    +0.000 C 
ENDBRANCH  13  14
ENDBRANCH   8  13
ENDBRANCH   4   8
ENDBRANCH   1   5
BRANCH   3  17
ATOM     17  C   UNL     1       2.360   5.177  20.193  0.00  0.00    +0.000 C 
BRANCH  17  18
ATOM     18  O   UNL     1       2.640   6.079  19.116  0.00  0.00    +0.000 OA
BRANCH  18  19
ATOM     19  C   UNL     1       2.127   7.339  19.253  0.00  0.00    +0.000 A 
ATOM     20  C   UNL     1       2.146   8.130  18.100  0.00  0.00    +0.000 A 
ATOM     21  C   UNL     1       1.637   9.431  18.123  0.00  0.00    +0.000 A 
ATOM     22  C   UNL     1       1.088   9.937  19.310  0.00  0.00    +0.000 A 
ATOM     23  C   UNL     1       1.046   9.137  20.464  0.00  0.00    +0.000 A 
ATOM     24  C   UNL     1       1.568   7.842  20.430  0.00  0.00    +0.000 A 
BRANCH  22  25
ATOM     25  N   UNL     1       0.546  11.294  19.352  0.00  0.00    +0.000 N 
ATOM     26  O   UNL     1      -0.403  11.513  20.113  0.00  0.00    +0.000 OA
ATOM     27  O   UNL     1       1.069  12.153  18.616  0.00  0.00    +0.000 OA
ENDBRANCH  22  25
ENDBRANCH  18  19
ENDBRANCH  17  18
ENDBRANCH   3  17
TORSDOF 10
ENDMDL
MODEL 5
REMARK VINA RESULT:      -6.8      1.250      1.893
REMARK  Name = 
REMARK  13 active torsions:
REMARK  status: ('A' for Active; 'I' for Inactive)
REMARK    1  A    between atoms: C_1  and  O_2
REMARK    2  A    between atoms: O_2  and  C_3
REMARK    3  A    between atoms: C_3  and  C_5
REMARK    4  A    between atoms: C_5  and  C_6
REMARK    5  A    between atoms: C_5  and  N_10
REMARK    6  A    between atoms: C_6  and  C_7
REMARK    7  A    between atoms: C_7  and  C_8
REMARK    8  A    between atoms: C_7  and  C_9
REMARK    9  A    between atoms: C_11  and  C_13
REMARK   10  A    between atoms: C_15  and  C_16
REMARK   11  A    between atoms: C_16  and  O_17
REMARK   12  A    between atoms: O_17  and  C_18
REMARK   13  A    between atoms: C_21  and  N_22
REMARK                            x       y       z     vdW  Elec       q    Type
REMARK                         _______ _______ _______ _____ _____    ______ ____
ROOT
ATOM      1  C   UNL     1       3.684   2.298  18.660  0.00  0.00    +0.000 C 
ATOM      2  O   UNL     1       2.399   1.760  19.017  0.00  0.00    +0.000 OA
ATOM      3  C   UNL     1       2.930   2.781  19.879  0.00  0.00    +0.000 C 
ENDROOT
BRANCH   1   5
ATOM      4  N   UNL     1       4.978   3.566  17.070  0.00  0.00    +0.000 N 
ATOM      5  C   UNL     1       3.737   3.099  17.418  0.00  0.00    +0.000 C 
ATOM      6  O   UNL     1       2.717   3.302  16.779  0.00  0.00    +0.000 OA
ATOM      7  H   UNL     1       5.756   3.373  17.694  0.00  0.00    +0.000 HD
BRANCH   4   8
ATOM      8  C   UNL     1       5.207   4.451  15.926  0.00  0.00    +0.000 C 
BRANCH   8   9
ATOM      9  C   UNL     1       5.852   5.754  16.440  0.00  0.00    +0.000 C 
ATOM     10  O   UNL     1       5.647   6.860  15.945  0.00  0.00    +0.000 OA
BRANCH   9  12
ATOM     11  C   UNL     1       7.367   6.668  18.035  0.00  0.00    +0.000 C 
ATOM     12  O   UNL     1       6.636   5.533  17.536  0.00  0.00    +0.000 OA
ENDBRANCH   9  12
ENDBRANCH   8   9
BRANCH   8  13
ATOM     13  C   UNL     1       6.149   3.765  14.925  0.00  0.00    +0.000 C 
BRANCH  13  14
ATOM     14  C   UNL     1       6.245   4.413  13.522  0.00  0.00    +0.000 C 
ATOM     15  C   UNL     1       7.627   4.986  13.200  0.00  0.00    +0.000 C 
ATOM     16  C   UNL     1       5.872   3.384  12.451  0.00  0.00    +0.000 C 
ENDBRANCH  13  14
ENDBRANCH   8  13
ENDBRANCH   4   8
ENDBRANCH   1   5
BRANCH   3  17
ATOM     17  C   UNL     1       2.131   4.045  19.909  0.00  0.00    +0.000 C 
BRANCH  17  18
ATOM     18  O   UNL     1       3.031   5.146  20.080  0.00  0.00    +0.000 OA
BRANCH  18  19
ATOM     19  C   UNL     1       2.535   6.374  19.738  0.00  0.00    +0.000 A 
ATOM     20  C   UNL     1       1.861   7.060  20.753  0.00  0.00    +0.000 A 
ATOM     21  C   UNL     1       1.323   8.328  20.517  0.00  0.00    +0.000 A 
ATOM     22  C   UNL     1       1.478   8.920  19.255  0.00  0.00    +0.000 A 
ATOM     23  C   UNL     1       2.176   8.243  18.240  0.00  0.00    +0.000 A 
ATOM     24  C   UNL     1       2.699   6.972  18.486  0.00  0.00    +0.000 A 
BRANCH  22  25
ATOM     25  N   UNL     1       0.927  10.247  18.991  0.00  0.00    +0.000 N 
ATOM     26  O   UNL     1       0.255  10.399  17.964  0.00  0.00    +0.000 OA
ATOM     27  O   UNL     1       1.169  11.152  19.812  0.00  0.00    +0.000 OA
ENDBRANCH  22  25
ENDBRANCH  18  19
ENDBRANCH  17  18
ENDBRANCH   3  17
TORSDOF 10
ENDMDL
MODEL 6
REMARK VINA RESULT:      -6.8      1.911      3.118
REMARK  Name = 
REMARK  13 active torsions:
REMARK  status: ('A' for Active; 'I' for Inactive)
REMARK    1  A    between atoms: C_1  and  O_2
REMARK    2  A    between atoms: O_2  and  C_3
REMARK    3  A    between atoms: C_3  and  C_5
REMARK    4  A    between atoms: C_5  and  C_6
REMARK    5  A    between atoms: C_5  and  N_10
REMARK    6  A    between atoms: C_6  and  C_7
REMARK    7  A    between atoms: C_7  and  C_8
REMARK    8  A    between atoms: C_7  and  C_9
REMARK    9  A    between atoms: C_11  and  C_13
REMARK   10  A    between atoms: C_15  and  C_16
REMARK   11  A    between atoms: C_16  and  O_17
REMARK   12  A    between atoms: O_17  and  C_18
REMARK   13  A    between atoms: C_21  and  N_22
REMARK                            x       y       z     vdW  Elec       q    Type
REMARK                         _______ _______ _______ _____ _____    ______ ____
ROOT
ATOM      1  C   UNL     1       3.813   3.656  18.675  0.00  0.00    +0.000 C 
ATOM      2  O   UNL     1       2.772   4.080  17.778  0.00  0.00    +0.000 OA
ATOM      3  C   UNL     1       2.659   4.514  19.144  0.00  0.00    +0.000 C 
ENDROOT
BRANCH   1   5
ATOM      4  N   UNL     1       5.355   4.775  17.199  0.00  0.00    +0.000 N 
ATOM      5  C   UNL     1       5.155   4.230  18.440  0.00  0.00    +0.000 C 
ATOM      6  O   UNL     1       5.996   4.197  19.325  0.00  0.00    +0.000 OA
ATOM      7  H   UNL     1       4.601   4.714  16.521  0.00  0.00    +0.000 HD
BRANCH   4   8
ATOM      8  C   UNL     1       6.646   5.304  16.756  0.00  0.00    +0.000 C 
BRANCH   8   9
ATOM      9  C   UNL     1       6.813   4.992  15.255  0.00  0.00    +0.000 C 
ATOM     10  O   UNL     1       7.703   5.465  14.553  0.00  0.00    +0.000 OA
BRANCH   9  12
ATOM     11  C   UNL     1       5.935   3.749  13.423  0.00  0.00    +0.000 C 
ATOM     12  O   UNL     1       5.881   4.094  14.819  0.00  0.00    +0.000 OA
ENDBRANCH   9  12
ENDBRANCH   8   9
BRANCH   8  13
ATOM     13  C   UNL     1       6.684   6.824  16.979  0.00  0.00    +0.000 C 
BRANCH  13  14
ATOM     14  C   UNL     1       7.968   7.388  17.634  0.00  0.00    +0.000 C 
ATOM     15  C   UNL     1       7.968   8.910  17.786  0.00  0.00    +0.000 C 
ATOM     16  C   UNL     1       8.167   6.751  19.013  0.00  0.00    +0.000 C 
ENDBRANCH  13  14
ENDBRANCH   8  13
ENDBRANCH   4   8
ENDBRANCH   1   5
BRANCH   3  17
ATOM     17  C   UNL     1       2.754   5.995  19.333  0.00  0.00    +0.000 C 
BRANCH  17  18
ATOM     18  O   UNL     1       1.811   6.384  20.338  0.00  0.00    +0.000 OA
BRANCH  18  19
ATOM     19  C   UNL     1       1.546   7.724  20.412  0.00  0.00    +0.000 A 
ATOM     20  C   UNL     1       1.627   8.425  19.205  0.00  0.00    +0.000 A 
ATOM     21  C   UNL     1       1.365   9.798  19.163  0.00  0.00    +0.000 A 
ATOM     22  C   UNL     1       1.001  10.468  20.339  0.00  0.00    +0.000 A 
ATOM     23  C   UNL     1       0.894   9.761  21.549  0.00  0.00    +0.000 A 
ATOM     24  C   UNL     1       1.169   8.393  21.579  0.00  0.00    +0.000 A 
BRANCH  22  25
ATOM     25  N   UNL     1       0.718  11.902  20.313  0.00  0.00    +0.000 N 
ATOM     26  O   UNL     1       0.452  12.418  19.222  0.00  0.00    +0.000 OA
ATOM     27  O   UNL     1       0.764  12.524  21.392  0.00  0.00    +0.000 OA
ENDBRANCH  22  25
ENDBRANCH  18  19
ENDBRANCH  17  18
ENDBRANCH   3  17
TORSDOF 10
ENDMDL
MODEL 7
REMARK VINA RESULT:      -6.8      1.634      2.106
REMARK  Name = 
REMARK  13 active torsions:
REMARK  status: ('A' for Active; 'I' for Inactive)
REMARK    1  A    between atoms: C_1  and  O_2
REMARK    2  A    between atoms: O_2  and  C_3
REMARK    3  A    between atoms: C_3  and  C_5
REMARK    4  A    between atoms: C_5  and  C_6
REMARK    5  A    between atoms: C_5  and  N_10
REMARK    6  A    between atoms: C_6  and  C_7
REMARK    7  A    between atoms: C_7  and  C_8
REMARK    8  A    between atoms: C_7  and  C_9
REMARK    9  A    between atoms: C_11  and  C_13
REMARK   10  A    between atoms: C_15  and  C_16
REMARK   11  A    between atoms: C_16  and  O_17
REMARK   12  A    between atoms: O_17  and  C_18
REMARK   13  A    between atoms: C_21  and  N_22
REMARK                            x       y       z     vdW  Elec       q    Type
REMARK                         _______ _______ _______ _____ _____    ______ ____
ROOT
ATOM      1  C   UNL     1       4.132   2.814  18.516  0.00  0.00    +0.000 C 
ATOM      2  O   UNL     1       2.944   2.892  19.323  0.00  0.00    +0.000 OA
ATOM      3  C   UNL     1       4.093   3.614  19.799  0.00  0.00    +0.000 C 
ENDROOT
BRANCH   1   5
ATOM      4  N   UNL     1       5.275   3.660  16.569  0.00  0.00    +0.000 N 
ATOM      5  C   UNL     1       4.069   3.473  17.193  0.00  0.00    +0.000 C 
ATOM      6  O   UNL     1       2.991   3.809  16.730  0.00  0.00    +0.000 OA
ATOM      7  H   UNL     1       6.119   3.379  17.061  0.00  0.00    +0.000 HD
BRANCH   4   8
ATOM      8  C   UNL     1       5.417   4.377  15.301  0.00  0.00    +0.000 C 
BRANCH   8   9
ATOM      9  C   UNL     1       6.527   5.435  15.460  0.00  0.00    +0.000 C 
ATOM     10  O   UNL     1       7.721   5.204  15.290  0.00  0.00    +0.000 OA
BRANCH   9  12
ATOM     11  C   UNL     1       5.682   6.888  17.147  0.00  0.00    +0.000 C 
ATOM     12  O   UNL     1       6.014   6.664  15.765  0.00  0.00    +0.000 OA
ENDBRANCH   9  12
ENDBRANCH   8   9
BRANCH   8  13
ATOM     13  C   UNL     1       5.798   3.386  14.189  0.00  0.00    +0.000 C 
BRANCH  13  14
ATOM     14  C   UNL     1       5.762   3.935  12.742  0.00  0.00    +0.000 C 
ATOM     15  C   UNL     1       7.086   3.784  11.990  0.00  0.00    +0.000 C 
ATOM     16  C   UNL     1       4.657   3.231  11.950  0.00  0.00    +0.000 C 
ENDBRANCH  13  14
ENDBRANCH   8  13
ENDBRANCH   4   8
ENDBRANCH   1   5
BRANCH   3  17
ATOM     17  C   UNL     1       3.918   5.098  19.842  0.00  0.00    +0.000 C 
BRANCH  17  18
ATOM     18  O   UNL     1       2.520   5.386  19.967  0.00  0.00    +0.000 OA
BRANCH  18  19
ATOM     19  C   UNL     1       2.164   6.689  19.752  0.00  0.00    +0.000 A 
ATOM     20  C   UNL     1       2.399   7.177  18.463  0.00  0.00    +0.000 A 
ATOM     21  C   UNL     1       2.063   8.491  18.129  0.00  0.00    +0.000 A 
ATOM     22  C   UNL     1       1.469   9.318  19.093  0.00  0.00    +0.000 A 
ATOM     23  C   UNL     1       1.209   8.824  20.382  0.00  0.00    +0.000 A 
ATOM     24  C   UNL     1       1.560   7.512  20.705  0.00  0.00    +0.000 A 
BRANCH  22  25
ATOM     25  N   UNL     1       1.106  10.695  18.761  0.00  0.00    +0.000 N 
ATOM     26  O   UNL     1      -0.042  11.069  19.026  0.00  0.00    +0.000 OA
ATOM     27  O   UNL     1       1.972  11.412  18.224  0.00  0.00    +0.000 OA
ENDBRANCH  22  25
ENDBRANCH  18  19
ENDBRANCH  17  18
ENDBRANCH   3  17
TORSDOF 10
ENDMDL
MODEL 8
REMARK VINA RESULT:      -6.8      1.101      1.715
REMARK  Name = 
REMARK  13 active torsions:
REMARK  status: ('A' for Active; 'I' for Inactive)
REMARK    1  A    between atoms: C_1  and  O_2
REMARK    2  A    between atoms: O_2  and  C_3
REMARK    3  A    between atoms: C_3  and  C_5
REMARK    4  A    between atoms: C_5  and  C_6
REMARK    5  A    between atoms: C_5  and  N_10
REMARK    6  A    between atoms: C_6  and  C_7
REMARK    7  A    between atoms: C_7  and  C_8
REMARK    8  A    between atoms: C_7  and  C_9
REMARK    9  A    between atoms: C_11  and  C_13
REMARK   10  A    between atoms: C_15  and  C_16
REMARK   11  A    between atoms: C_16  and  O_17
REMARK   12  A    between atoms: O_17  and  C_18
REMARK   13  A    between atoms: C_21  and  N_22
REMARK                            x       y       z     vdW  Elec       q    Type
REMARK                         _______ _______ _______ _____ _____    ______ ____
ROOT
ATOM      1  C   UNL     1       4.138   2.921  19.749  0.00  0.00    +0.000 C 
ATOM      2  O   UNL     1       2.859   2.280  19.602  0.00  0.00    +0.000 OA
ATOM      3  C   UNL     1       2.913   3.410  20.488  0.00  0.00    +0.000 C 
ENDROOT
BRANCH   1   5
ATOM      4  N   UNL     1       5.746   4.433  18.778  0.00  0.00    +0.000 N 
ATOM      5  C   UNL     1       4.656   3.631  18.559  0.00  0.00    +0.000 C 
ATOM      6  O   UNL     1       4.116   3.479  17.475  0.00  0.00    +0.000 OA
ATOM      7  H   UNL     1       6.093   4.521  19.729  0.00  0.00    +0.000 HD
BRANCH   4   8
ATOM      8  C   UNL     1       6.335   5.282  17.741  0.00  0.00    +0.000 C 
BRANCH   8   9
ATOM      9  C   UNL     1       7.513   6.061  18.361  0.00  0.00    +0.000 C 
ATOM     10  O   UNL     1       7.939   5.867  19.496  0.00  0.00    +0.000 OA
BRANCH   9  12
ATOM     11  C   UNL     1       7.762   8.342  17.723  0.00  0.00    +0.000 C 
ATOM     12  O   UNL     1       8.049   6.954  17.477  0.00  0.00    +0.000 OA
ENDBRANCH   9  12
ENDBRANCH   8   9
BRANCH   8  13
ATOM     13  C   UNL     1       6.841   4.406  16.585  0.00  0.00    +0.000 C 
BRANCH  13  14
ATOM     14  C   UNL     1       6.514   4.903  15.156  0.00  0.00    +0.000 C 
ATOM     15  C   UNL     1       6.174   3.781  14.174  0.00  0.00    +0.000 C 
ATOM     16  C   UNL     1       5.344   5.890  15.208  0.00  0.00    +0.000 C 
ENDBRANCH  13  14
ENDBRANCH   8  13
ENDBRANCH   4   8
ENDBRANCH   1   5
BRANCH   3  17
ATOM     17  C   UNL     1       2.095   4.583  20.048  0.00  0.00    +0.000 C 
BRANCH  17  18
ATOM     18  O   UNL     1       2.966   5.709  19.891  0.00  0.00    +0.000 OA
BRANCH  18  19
ATOM     19  C   UNL     1       2.345   6.918  19.737  0.00  0.00    +0.000 A 
ATOM     20  C   UNL     1       1.650   7.389  20.855  0.00  0.00    +0.000 A 
ATOM     21  C   UNL     1       0.988   8.619  20.813  0.00  0.00    +0.000 A 
ATOM     22  C   UNL     1       1.040   9.392  19.644  0.00  0.00    +0.000 A 
ATOM     23  C   UNL     1       1.759   8.933  18.527  0.00  0.00    +0.000 A 
ATOM     24  C   UNL     1       2.406   7.697  18.579  0.00  0.00    +0.000 A 
BRANCH  22  25
ATOM     25  N   UNL     1       0.359  10.684  19.583  0.00  0.00    +0.000 N 
ATOM     26  O   UNL     1       0.153  11.278  20.647  0.00  0.00    +0.000 OA
ATOM     27  O   UNL     1       0.020  11.111  18.462  0.00  0.00    +0.000 OA
ENDBRANCH  22  25
ENDBRANCH  18  19
ENDBRANCH  17  18
ENDBRANCH   3  17
TORSDOF 10
ENDMDL
MODEL 9
REMARK VINA RESULT:      -6.7      2.811      7.285
REMARK  Name = 
REMARK  13 active torsions:
REMARK  status: ('A' for Active; 'I' for Inactive)
REMARK    1  A    between atoms: C_1  and  O_2
REMARK    2  A    between atoms: O_2  and  C_3
REMARK    3  A    between atoms: C_3  and  C_5
REMARK    4  A    between atoms: C_5  and  C_6
REMARK    5  A    between atoms: C_5  and  N_10
REMARK    6  A    between atoms: C_6  and  C_7
REMARK    7  A    between atoms: C_7  and  C_8
REMARK    8  A    between atoms: C_7  and  C_9
REMARK    9  A    between atoms: C_11  and  C_13
REMARK   10  A    between atoms: C_15  and  C_16
REMARK   11  A    between atoms: C_16  and  O_17
REMARK   12  A    between atoms: O_17  and  C_18
REMARK   13  A    between atoms: C_21  and  N_22
REMARK                            x       y       z     vdW  Elec       q    Type
REMARK                         _______ _______ _______ _____ _____    ______ ____
ROOT
ATOM      1  C   UNL     1       6.985   4.297  18.746  0.00  0.00    +0.000 C 
ATOM      2  O   UNL     1       7.953   5.360  18.785  0.00  0.00    +0.000 OA
ATOM      3  C   UNL     1       7.604   4.855  17.484  0.00  0.00    +0.000 C 
ENDROOT
BRANCH   1   5
ATOM      4  N   UNL     1       4.644   3.729  18.829  0.00  0.00    +0.000 N 
ATOM      5  C   UNL     1       5.607   4.649  19.150  0.00  0.00    +0.000 C 
ATOM      6  O   UNL     1       5.392   5.701  19.732  0.00  0.00    +0.000 OA
ATOM      7  H   UNL     1       4.924   2.903  18.307  0.00  0.00    +0.000 HD
BRANCH   4   8
ATOM      8  C   UNL     1       3.216   3.949  19.067  0.00  0.00    +0.000 C 
BRANCH   8   9
ATOM      9  C   UNL     1       2.585   4.503  17.772  0.00  0.00    +0.000 C 
ATOM     10  O   UNL     1       2.355   3.819  16.778  0.00  0.00    +0.000 OA
BRANCH   9  12
ATOM     11  C   UNL     1       3.286   6.757  17.457  0.00  0.00    +0.000 C 
ATOM     12  O   UNL     1       2.275   5.828  17.888  0.00  0.00    +0.000 OA
ENDBRANCH   9  12
ENDBRANCH   8   9
BRANCH   8  13
ATOM     13  C   UNL     1       2.545   2.619  19.444  0.00  0.00    +0.000 C 
BRANCH  13  14
ATOM     14  C   UNL     1       1.415   2.698  20.499  0.00  0.00    +0.000 C 
ATOM     15  C   UNL     1       1.892   2.471  21.935  0.00  0.00    +0.000 C 
ATOM     16  C   UNL     1       0.725   4.063  20.415  0.00  0.00    +0.000 C 
ENDBRANCH  13  14
ENDBRANCH   8  13
ENDBRANCH   4   8
ENDBRANCH   1   5
BRANCH   3  17
ATOM     17  C   UNL     1       6.921   5.847  16.597  0.00  0.00    +0.000 C 
BRANCH  17  18
ATOM     18  O   UNL     1       7.599   5.869  15.336  0.00  0.00    +0.000 OA
BRANCH  18  19
ATOM     19  C   UNL     1       7.065   5.069  14.364  0.00  0.00    +0.000 A 
ATOM     20  C   UNL     1       5.836   4.478  14.672  0.00  0.00    +0.000 A 
ATOM     21  C   UNL     1       5.193   3.651  13.747  0.00  0.00    +0.000 A 
ATOM     22  C   UNL     1       5.782   3.429  12.494  0.00  0.00    +0.000 A 
ATOM     23  C   UNL     1       7.005   4.041  12.171  0.00  0.00    +0.000 A 
ATOM     24  C   UNL     1       7.641   4.857  13.109  0.00  0.00    +0.000 A 
BRANCH  22  25
ATOM     25  N   UNL     1       5.122   2.571  11.511  0.00  0.00    +0.000 N 
ATOM     26  O   UNL     1       5.667   1.500  11.222  0.00  0.00    +0.000 OA
ATOM     27  O   UNL     1       4.050   2.970  11.017  0.00  0.00    +0.000 OA
ENDBRANCH  22  25
ENDBRANCH  18  19
ENDBRANCH  17  18
ENDBRANCH   3  17
TORSDOF 10
ENDMDL
