MODEL 1
REMARK VINA RESULT:      -7.4      0.000      0.000
REMARK  Name = 
REMARK  4 active torsions:
REMARK  status: ('A' for Active; 'I' for Inactive)
REMARK    1  A    between atoms: C_1  and  C_2
REMARK    2  A    between atoms: C_2  and  N_3
REMARK    3  A    between atoms: C_6  and  C_7
REMARK    4  A    between atoms: N_22  and  C_23
REMARK                            x       y       z     vdW  Elec       q    Type
REMARK                         _______ _______ _______ _____ _____    ______ ____
ROOT
ATOM      1  N   UNL     1       0.409  13.313  19.521  0.00  0.00    +0.000 N 
ATOM      2  C   UNL     1       0.624  14.467  20.300  0.00  0.00    +0.000 A 
ATOM      3  C   UNL     1       1.396  15.554  19.840  0.00  0.00    +0.000 A 
ATOM      4  C   UNL     1       1.623  16.714  20.599  0.00  0.00    +0.000 A 
ATOM      5  C   UNL     1       2.354  17.882  20.007  0.00  0.00    +0.000 C 
ATOM      6  C   UNL     1       1.128  16.783  21.897  0.00  0.00    +0.000 A 
ATOM      7  C   UNL     1       0.344  15.744  22.390  0.00  0.00    +0.000 A 
ATOM      8  C   UNL     1       0.057  14.629  21.581  0.00  0.00    +0.000 A 
ATOM      9  N   UNL     1      -0.867  13.657  22.021  0.00  0.00    +0.000 N 
ATOM     10  C   UNL     1      -1.380  13.495  23.291  0.00  0.00    +0.000 A 
ATOM     11  C   UNL     1      -2.209  12.398  23.291  0.00  0.00    +0.000 A 
ATOM     12  C   UNL     1      -2.219  11.872  21.971  0.00  0.00    +0.000 A 
ATOM     13  C   UNL     1      -1.265  12.575  21.245  0.00  0.00    +0.000 A 
ATOM     14  C   UNL     1      -0.284  12.129  20.147  0.00  0.00    +0.000 C 
ATOM     15  C   UNL     1       0.718  11.355  21.010  0.00  0.00    +0.000 C 
ATOM     16  C   UNL     1       0.823   9.880  20.710  0.00  0.00    +0.000 C 
ATOM     17  N   UNL     1       0.819   9.332  19.436  0.00  0.00    +0.000 N 
ATOM     18  C   UNL     1       1.693   8.211  19.375  0.00  0.00    +0.000 C 
ATOM     19  O   UNL     1       2.187   7.739  20.388  0.00  0.00    +0.000 OA
ATOM     20  N   UNL     1       2.030   7.769  18.135  0.00  0.00    +0.000 N 
ATOM     21  C   UNL     1       0.058  10.078  18.426  0.00  0.00    +0.000 C 
ATOM     22  C   UNL     1      -0.901  11.191  19.033  0.00  0.00    +0.000 C 
ATOM     23  H   UNL     1       1.393   8.011  17.395  0.00  0.00    +0.000 HD
ENDROOT
BRANCH  20  24
ATOM     24  C   UNL     1       3.095   6.904  17.799  0.00  0.00    +0.000 A 
ATOM     25  C   UNL     1       4.382   7.277  17.373  0.00  0.00    +0.000 A 
ATOM     26  C   UNL     1       5.300   6.275  17.017  0.00  0.00    +0.000 A 
ATOM     27  F   UNL     1       6.551   6.591  16.639  0.00  0.00    +0.000 F 
ATOM     28  C   UNL     1       4.965   4.932  17.101  0.00  0.00    +0.000 A 
ATOM     29  C   UNL     1       3.685   4.558  17.491  0.00  0.00    +0.000 A 
ATOM     30  C   UNL     1       2.776   5.552  17.853  0.00  0.00    +0.000 A 
ATOM     31  F   UNL     1       1.550   5.206  18.277  0.00  0.00    +0.000 F 
ENDBRANCH  20  24
BRANCH   1  33
ATOM     32  C   UNL     1       2.644  12.718  18.536  0.00  0.00    +0.000 C 
ATOM     33  C   UNL     1       1.202  13.140  18.291  0.00  0.00    +0.000 C 
ENDBRANCH   1  33
TORSDOF 2
ENDMDL
MODEL 2
REMARK VINA RESULT:      -7.0      0.970      1.008
REMARK  Name = 
REMARK  4 active torsions:
REMARK  status: ('A' for Active; 'I' for Inactive)
REMARK    1  A    between atoms: C_1  and  C_2
REMARK    2  A    between atoms: C_2  and  N_3
REMARK    3  A    between atoms: C_6  and  C_7
REMARK    4  A    between atoms: N_22  and  C_23
REMARK                            x       y       z     vdW  Elec       q    Type
REMARK                         _______ _______ _______ _____ _____    ______ ____
ROOT
ATOM      1  N   UNL     1       1.455  13.046  19.648  0.00  0.00    +0.000 N 
ATOM      2  C   UNL     1       1.683  14.109  20.544  0.00  0.00    +0.000 A 
ATOM      3  C   UNL     1       2.714  15.051  20.350  0.00  0.00    +0.000 A 
ATOM      4  C   UNL     1       2.958  16.119  21.229  0.00  0.00    +0.000 A 
ATOM      5  C   UNL     1       3.994  17.153  20.903  0.00  0.00    +0.000 C 
ATOM      6  C   UNL     1       2.202  16.227  22.391  0.00  0.00    +0.000 A 
ATOM      7  C   UNL     1       1.161  15.333  22.620  0.00  0.00    +0.000 A 
ATOM      8  C   UNL     1       0.876  14.323  21.682  0.00  0.00    +0.000 A 
ATOM      9  N   UNL     1      -0.275  13.522  21.834  0.00  0.00    +0.000 N 
ATOM     10  C   UNL     1      -1.083  13.409  22.947  0.00  0.00    +0.000 A 
ATOM     11  C   UNL     1      -2.066  12.485  22.681  0.00  0.00    +0.000 A 
ATOM     12  C   UNL     1      -1.868  12.022  21.352  0.00  0.00    +0.000 A 
ATOM     13  C   UNL     1      -0.668  12.564  20.907  0.00  0.00    +0.000 A 
ATOM     14  C   UNL     1       0.445  11.988  20.014  0.00  0.00    +0.000 C 
ATOM     15  C   UNL     1       1.077  11.008  21.008  0.00  0.00    +0.000 C 
ATOM     16  C   UNL     1       0.992   9.552  20.622  0.00  0.00    +0.000 C 
ATOM     17  N   UNL     1       1.183   9.064  19.337  0.00  0.00    +0.000 N 
ATOM     18  C   UNL     1       1.842   7.805  19.377  0.00  0.00    +0.000 C 
ATOM     19  O   UNL     1       2.005   7.210  20.432  0.00  0.00    +0.000 OA
ATOM     20  N   UNL     1       2.369   7.357  18.208  0.00  0.00    +0.000 N 
ATOM     21  C   UNL     1       0.810   9.978  18.250  0.00  0.00    +0.000 C 
ATOM     22  C   UNL     1      -0.056  11.225  18.723  0.00  0.00    +0.000 C 
ATOM     23  H   UNL     1       1.967   7.741  17.370  0.00  0.00    +0.000 HD
ENDROOT
BRANCH  20  24
ATOM     24  C   UNL     1       3.318   6.323  18.041  0.00  0.00    +0.000 A 
ATOM     25  C   UNL     1       4.718   6.450  18.070  0.00  0.00    +0.000 A 
ATOM     26  C   UNL     1       5.511   5.319  17.819  0.00  0.00    +0.000 A 
ATOM     27  F   UNL     1       6.853   5.393  17.874  0.00  0.00    +0.000 F 
ATOM     28  C   UNL     1       4.938   4.082  17.568  0.00  0.00    +0.000 A 
ATOM     29  C   UNL     1       3.556   3.956  17.507  0.00  0.00    +0.000 A 
ATOM     30  C   UNL     1       2.767   5.077  17.765  0.00  0.00    +0.000 A 
ATOM     31  F   UNL     1       1.430   4.962  17.756  0.00  0.00    +0.000 F 
ENDBRANCH  20  24
BRANCH   1  33
ATOM     32  C   UNL     1       2.498  13.817  17.494  0.00  0.00    +0.000 C 
ATOM     33  C   UNL     1       2.463  12.778  18.608  0.00  0.00    +0.000 C 
ENDBRANCH   1  33
TORSDOF 2
ENDMDL
MODEL 3
REMARK VINA RESULT:      -7.0      1.652      2.018
REMARK  Name = 
REMARK  4 active torsions:
REMARK  status: ('A' for Active; 'I' for Inactive)
REMARK    1  A    between atoms: C_1  and  C_2
REMARK    2  A    between atoms: C_2  and  N_3
REMARK    3  A    between atoms: C_6  and  C_7
REMARK    4  A    between atoms: N_22  and  C_23
REMARK                            x       y       z     vdW  Elec       q    Type
REMARK                         _______ _______ _______ _____ _____    ______ ____
ROOT
ATOM      1  N   UNL     1      -0.723  13.897  19.508  0.00  0.00    +0.000 N 
ATOM      2  C   UNL     1      -0.482  15.227  19.905  0.00  0.00    +0.000 A 
ATOM      3  C   UNL     1       0.094  16.180  19.040  0.00  0.00    +0.000 A 
ATOM      4  C   UNL     1       0.342  17.511  19.414  0.00  0.00    +0.000 A 
ATOM      5  C   UNL     1       0.847  18.504  18.409  0.00  0.00    +0.000 C 
ATOM      6  C   UNL     1       0.078  17.908  20.720  0.00  0.00    +0.000 A 
ATOM      7  C   UNL     1      -0.508  17.011  21.607  0.00  0.00    +0.000 A 
ATOM      8  C   UNL     1      -0.829  15.707  21.186  0.00  0.00    +0.000 A 
ATOM      9  N   UNL     1      -1.567  14.853  22.033  0.00  0.00    +0.000 N 
ATOM     10  C   UNL     1      -1.832  15.021  23.376  0.00  0.00    +0.000 A 
ATOM     11  C   UNL     1      -2.544  13.932  23.820  0.00  0.00    +0.000 A 
ATOM     12  C   UNL     1      -2.737  13.067  22.709  0.00  0.00    +0.000 A 
ATOM     13  C   UNL     1      -1.994  13.586  21.655  0.00  0.00    +0.000 A 
ATOM     14  C   UNL     1      -1.183  12.900  20.541  0.00  0.00    +0.000 C 
ATOM     15  C   UNL     1       0.022  12.432  21.364  0.00  0.00    +0.000 C 
ATOM     16  C   UNL     1       0.208  10.937  21.443  0.00  0.00    +0.000 C 
ATOM     17  N   UNL     1       0.032  10.063  20.379  0.00  0.00    +0.000 N 
ATOM     18  C   UNL     1       0.980   9.006  20.442  0.00  0.00    +0.000 C 
ATOM     19  O   UNL     1       1.686   8.848  21.427  0.00  0.00    +0.000 OA
ATOM     20  N   UNL     1       1.134   8.258  19.318  0.00  0.00    +0.000 N 
ATOM     21  C   UNL     1      -0.961  10.475  19.378  0.00  0.00    +0.000 C 
ATOM     22  C   UNL     1      -1.896  11.670  19.850  0.00  0.00    +0.000 C 
ATOM     23  H   UNL     1       0.358   8.263  18.679  0.00  0.00    +0.000 HD
ENDROOT
BRANCH  20  24
ATOM     24  C   UNL     1       2.199   7.380  19.017  0.00  0.00    +0.000 A 
ATOM     25  C   UNL     1       2.558   6.216  19.721  0.00  0.00    +0.000 A 
ATOM     26  C   UNL     1       3.693   5.496  19.315  0.00  0.00    +0.000 A 
ATOM     27  F   UNL     1       4.047   4.360  19.940  0.00  0.00    +0.000 F 
ATOM     28  C   UNL     1       4.446   5.899  18.223  0.00  0.00    +0.000 A 
ATOM     29  C   UNL     1       4.115   7.065  17.543  0.00  0.00    +0.000 A 
ATOM     30  C   UNL     1       2.984   7.777  17.940  0.00  0.00    +0.000 A 
ATOM     31  F   UNL     1       2.623   8.879  17.264  0.00  0.00    +0.000 F 
ENDBRANCH  20  24
BRANCH   1  33
ATOM     32  C   UNL     1       1.342  13.111  18.309  0.00  0.00    +0.000 C 
ATOM     33  C   UNL     1      -0.146  13.430  18.236  0.00  0.00    +0.000 C 
ENDBRANCH   1  33
TORSDOF 2
ENDMDL
MODEL 4
REMARK VINA RESULT:      -6.8      4.113      7.242
REMARK  Name = 
REMARK  4 active torsions:
REMARK  status: ('A' for Active; 'I' for Inactive)
REMARK    1  A    between atoms: C_1  and  C_2
REMARK    2  A    between atoms: C_2  and  N_3
REMARK    3  A    between atoms: C_6  and  C_7
REMARK    4  A    between atoms: N_22  and  C_23
REMARK                            x       y       z     vdW  Elec       q    Type
REMARK                         _______ _______ _______ _____ _____    ______ ____
ROOT
ATOM      1  N   UNL     1      -1.010  11.424  18.831  0.00  0.00    +0.000 N 
ATOM      2  C   UNL     1      -2.185  11.363  18.055  0.00  0.00    +0.000 A 
ATOM      3  C   UNL     1      -2.214  10.768  16.777  0.00  0.00    +0.000 A 
ATOM      4  C   UNL     1      -3.373  10.695  15.987  0.00  0.00    +0.000 A 
ATOM      5  C   UNL     1      -3.365   9.945  14.688  0.00  0.00    +0.000 C 
ATOM      6  C   UNL     1      -4.542  11.296  16.441  0.00  0.00    +0.000 A 
ATOM      7  C   UNL     1      -4.570  11.880  17.704  0.00  0.00    +0.000 A 
ATOM      8  C   UNL     1      -3.420  11.865  18.516  0.00  0.00    +0.000 A 
ATOM      9  N   UNL     1      -3.494  12.311  19.853  0.00  0.00    +0.000 N 
ATOM     10  C   UNL     1      -4.515  13.021  20.450  0.00  0.00    +0.000 A 
ATOM     11  C   UNL     1      -4.158  13.288  21.750  0.00  0.00    +0.000 A 
ATOM     12  C   UNL     1      -2.877  12.711  21.969  0.00  0.00    +0.000 A 
ATOM     13  C   UNL     1      -2.425  12.247  20.739  0.00  0.00    +0.000 A 
ATOM     14  C   UNL     1      -1.021  12.223  20.110  0.00  0.00    +0.000 C 
ATOM     15  C   UNL     1      -0.873  13.711  19.777  0.00  0.00    +0.000 C 
ATOM     16  C   UNL     1       0.240  14.427  20.501  0.00  0.00    +0.000 C 
ATOM     17  N   UNL     1       1.501  13.896  20.729  0.00  0.00    +0.000 N 
ATOM     18  C   UNL     1       2.492  14.912  20.637  0.00  0.00    +0.000 C 
ATOM     19  O   UNL     1       2.181  16.092  20.562  0.00  0.00    +0.000 OA
ATOM     20  N   UNL     1       3.780  14.498  20.527  0.00  0.00    +0.000 N 
ATOM     21  C   UNL     1       1.559  12.436  20.870  0.00  0.00    +0.000 C 
ATOM     22  C   UNL     1       0.140  11.750  21.073  0.00  0.00    +0.000 C 
ATOM     23  H   UNL     1       3.974  13.571  20.867  0.00  0.00    +0.000 HD
ENDROOT
BRANCH  20  24
ATOM     24  C   UNL     1       4.892  15.267  20.114  0.00  0.00    +0.000 A 
ATOM     25  C   UNL     1       5.581  16.229  20.874  0.00  0.00    +0.000 A 
ATOM     26  C   UNL     1       6.628  16.948  20.276  0.00  0.00    +0.000 A 
ATOM     27  F   UNL     1       7.334  17.850  20.980  0.00  0.00    +0.000 F 
ATOM     28  C   UNL     1       7.006  16.708  18.963  0.00  0.00    +0.000 A 
ATOM     29  C   UNL     1       6.309  15.782  18.198  0.00  0.00    +0.000 A 
ATOM     30  C   UNL     1       5.274  15.061  18.793  0.00  0.00    +0.000 A 
ATOM     31  F   UNL     1       4.621  14.128  18.082  0.00  0.00    +0.000 F 
ENDBRANCH  20  24
BRANCH   1  33
ATOM     32  C   UNL     1       0.685   9.615  18.412  0.00  0.00    +0.000 C 
ATOM     33  C   UNL     1       0.269  11.064  18.195  0.00  0.00    +0.000 C 
ENDBRANCH   1  33
TORSDOF 2
ENDMDL
MODEL 5
REMARK VINA RESULT:      -6.8      3.639      5.541
REMARK  Name = 
REMARK  4 active torsions:
REMARK  status: ('A' for Active; 'I' for Inactive)
REMARK    1  A    between atoms: C_1  and  C_2
REMARK    2  A    between atoms: C_2  and  N_3
REMARK    3  A    between atoms: C_6  and  C_7
REMARK    4  A    between atoms: N_22  and  C_23
REMARK                            x       y       z     vdW  Elec       q    Type
REMARK                         _______ _______ _______ _____ _____    ______ ____
ROOT
ATOM      1  N   UNL     1      -4.352  14.099  22.462  0.00  0.00    +0.000 N 
ATOM      2  C   UNL     1      -4.893  15.376  22.212  0.00  0.00    +0.000 A 
ATOM      3  C   UNL     1      -5.921  15.588  21.270  0.00  0.00    +0.000 A 
ATOM      4  C   UNL     1      -6.476  16.851  21.006  0.00  0.00    +0.000 A 
ATOM      5  C   UNL     1      -7.647  16.991  20.078  0.00  0.00    +0.000 C 
ATOM      6  C   UNL     1      -5.950  17.970  21.644  0.00  0.00    +0.000 A 
ATOM      7  C   UNL     1      -4.949  17.811  22.596  0.00  0.00    +0.000 A 
ATOM      8  C   UNL     1      -4.467  16.526  22.909  0.00  0.00    +0.000 A 
ATOM      9  N   UNL     1      -3.570  16.351  23.985  0.00  0.00    +0.000 N 
ATOM     10  C   UNL     1      -2.867  17.324  24.664  0.00  0.00    +0.000 A 
ATOM     11  C   UNL     1      -2.076  16.713  25.607  0.00  0.00    +0.000 A 
ATOM     12  C   UNL     1      -2.308  15.314  25.517  0.00  0.00    +0.000 A 
ATOM     13  C   UNL     1      -3.119  15.107  24.407  0.00  0.00    +0.000 A 
ATOM     14  C   UNL     1      -3.145  13.982  23.357  0.00  0.00    +0.000 C 
ATOM     15  C   UNL     1      -1.888  14.355  22.564  0.00  0.00    +0.000 C 
ATOM     16  C   UNL     1      -0.779  13.333  22.593  0.00  0.00    +0.000 C 
ATOM     17  N   UNL     1      -0.968  11.961  22.505  0.00  0.00    +0.000 N 
ATOM     18  C   UNL     1       0.087  11.361  21.765  0.00  0.00    +0.000 C 
ATOM     19  O   UNL     1       1.083  11.998  21.455  0.00  0.00    +0.000 OA
ATOM     20  N   UNL     1      -0.118  10.090  21.333  0.00  0.00    +0.000 N 
ATOM     21  C   UNL     1      -2.238  11.459  23.046  0.00  0.00    +0.000 C 
ATOM     22  C   UNL     1      -3.022  12.516  23.938  0.00  0.00    +0.000 C 
ATOM     23  H   UNL     1      -0.804   9.558  21.843  0.00  0.00    +0.000 HD
ENDROOT
BRANCH  20  24
ATOM     24  C   UNL     1       0.612   9.397  20.341  0.00  0.00    +0.000 A 
ATOM     25  C   UNL     1       1.487   8.314  20.538  0.00  0.00    +0.000 A 
ATOM     26  C   UNL     1       2.181   7.789  19.437  0.00  0.00    +0.000 A 
ATOM     27  F   UNL     1       2.998   6.730  19.580  0.00  0.00    +0.000 F 
ATOM     28  C   UNL     1       2.001   8.303  18.162  0.00  0.00    +0.000 A 
ATOM     29  C   UNL     1       1.163   9.393  17.965  0.00  0.00    +0.000 A 
ATOM     30  C   UNL     1       0.466   9.911  19.057  0.00  0.00    +0.000 A 
ATOM     31  F   UNL     1      -0.384  10.934  18.875  0.00  0.00    +0.000 F 
ENDBRANCH  20  24
BRANCH   1  33
ATOM     32  C   UNL     1      -3.912  12.986  20.251  0.00  0.00    +0.000 C 
ATOM     33  C   UNL     1      -4.707  12.998  21.550  0.00  0.00    +0.000 C 
ENDBRANCH   1  33
TORSDOF 2
ENDMDL
MODEL 6
REMARK VINA RESULT:      -6.8      1.404      1.508
REMARK  Name = 
REMARK  4 active torsions:
REMARK  status: ('A' for Active; 'I' for Inactive)
REMARK    1  A    between atoms: C_1  and  C_2
REMARK    2  A    between atoms: C_2  and  N_3
REMARK    3  A    between atoms: C_6  and  C_7
REMARK    4  A    between atoms: N_22  and  C_23
REMARK                            x       y       z     vdW  Elec       q    Type
REMARK                         _______ _______ _______ _____ _____    ______ ____
ROOT
ATOM      1  N   UNL     1      -0.762  13.791  19.492  0.00  0.00    +0.000 N 
ATOM      2  C   UNL     1      -0.575  15.118  19.929  0.00  0.00    +0.000 A 
ATOM      3  C   UNL     1      -0.023  16.115  19.099  0.00  0.00    +0.000 A 
ATOM      4  C   UNL     1       0.171  17.443  19.514  0.00  0.00    +0.000 A 
ATOM      5  C   UNL     1       0.653  18.481  18.545  0.00  0.00    +0.000 C 
ATOM      6  C   UNL     1      -0.123  17.793  20.827  0.00  0.00    +0.000 A 
ATOM      7  C   UNL     1      -0.687  16.850  21.680  0.00  0.00    +0.000 A 
ATOM      8  C   UNL     1      -0.955  15.548  21.218  0.00  0.00    +0.000 A 
ATOM      9  N   UNL     1      -1.673  14.644  22.031  0.00  0.00    +0.000 N 
ATOM     10  C   UNL     1      -1.961  14.764  23.374  0.00  0.00    +0.000 A 
ATOM     11  C   UNL     1      -2.638  13.637  23.778  0.00  0.00    +0.000 A 
ATOM     12  C   UNL     1      -2.785  12.798  22.640  0.00  0.00    +0.000 A 
ATOM     13  C   UNL     1      -2.048  13.373  21.612  0.00  0.00    +0.000 A 
ATOM     14  C   UNL     1      -1.199  12.749  20.490  0.00  0.00    +0.000 C 
ATOM     15  C   UNL     1       0.012  12.302  21.316  0.00  0.00    +0.000 C 
ATOM     16  C   UNL     1       0.251  10.812  21.355  0.00  0.00    +0.000 C 
ATOM     17  N   UNL     1       0.120   9.964  20.265  0.00  0.00    +0.000 N 
ATOM     18  C   UNL     1       1.106   8.940  20.312  0.00  0.00    +0.000 C 
ATOM     19  O   UNL     1       1.804   8.780  21.302  0.00  0.00    +0.000 OA
ATOM     20  N   UNL     1       1.301   8.231  19.170  0.00  0.00    +0.000 N 
ATOM     21  C   UNL     1      -0.873  10.368  19.262  0.00  0.00    +0.000 C 
ATOM     22  C   UNL     1      -1.858  11.514  19.755  0.00  0.00    +0.000 C 
ATOM     23  H   UNL     1       0.533   8.226  18.520  0.00  0.00    +0.000 HD
ENDROOT
BRANCH  20  24
ATOM     24  C   UNL     1       2.402   7.401  18.859  0.00  0.00    +0.000 A 
ATOM     25  C   UNL     1       3.397   7.644  17.896  0.00  0.00    +0.000 A 
ATOM     26  C   UNL     1       4.385   6.671  17.676  0.00  0.00    +0.000 A 
ATOM     27  F   UNL     1       5.374   6.882  16.789  0.00  0.00    +0.000 F 
ATOM     28  C   UNL     1       4.408   5.492  18.406  0.00  0.00    +0.000 A 
ATOM     29  C   UNL     1       3.410   5.232  19.336  0.00  0.00    +0.000 A 
ATOM     30  C   UNL     1       2.432   6.201  19.562  0.00  0.00    +0.000 A 
ATOM     31  F   UNL     1       1.487   5.986  20.491  0.00  0.00    +0.000 F 
ENDBRANCH  20  24
BRANCH   1  33
ATOM     32  C   UNL     1       1.341  13.094  18.304  0.00  0.00    +0.000 C 
ATOM     33  C   UNL     1      -0.152  13.382  18.215  0.00  0.00    +0.000 C 
ENDBRANCH   1  33
TORSDOF 2
ENDMDL
MODEL 7
REMARK VINA RESULT:      -6.7      4.782      6.883
REMARK  Name = 
REMARK  4 active torsions:
REMARK  status: ('A' for Active; 'I' for Inactive)
REMARK    1  A    between atoms: C_1  and  C_2
REMARK    2  A    between atoms: C_2  and  N_3
REMARK    3  A    between atoms: C_6  and  C_7
REMARK    4  A    between atoms: N_22  and  C_23
REMARK                            x       y       z     vdW  Elec       q    Type
REMARK                         _______ _______ _______ _____ _____    ______ ____
ROOT
ATOM      1  N   UNL     1      -2.862  12.109  20.077  0.00  0.00    +0.000 N 
ATOM      2  C   UNL     1      -4.208  12.480  19.892  0.00  0.00    +0.000 A 
ATOM      3  C   UNL     1      -4.834  12.440  18.629  0.00  0.00    +0.000 A 
ATOM      4  C   UNL     1      -6.175  12.804  18.421  0.00  0.00    +0.000 A 
ATOM      5  C   UNL     1      -6.813  12.627  17.075  0.00  0.00    +0.000 C 
ATOM      6  C   UNL     1      -6.917  13.297  19.488  0.00  0.00    +0.000 A 
ATOM      7  C   UNL     1      -6.351  13.338  20.758  0.00  0.00    +0.000 A 
ATOM      8  C   UNL     1      -5.033  12.887  20.961  0.00  0.00    +0.000 A 
ATOM      9  N   UNL     1      -4.518  12.777  22.270  0.00  0.00    +0.000 N 
ATOM     10  C   UNL     1      -5.049  13.298  23.432  0.00  0.00    +0.000 A 
ATOM     11  C   UNL     1      -4.203  12.995  24.473  0.00  0.00    +0.000 A 
ATOM     12  C   UNL     1      -3.118  12.250  23.938  0.00  0.00    +0.000 A 
ATOM     13  C   UNL     1      -3.260  12.260  22.555  0.00  0.00    +0.000 A 
ATOM     14  C   UNL     1      -2.221  12.340  21.422  0.00  0.00    +0.000 C 
ATOM     15  C   UNL     1      -1.828  13.815  21.549  0.00  0.00    +0.000 C 
ATOM     16  C   UNL     1      -0.389  14.069  21.925  0.00  0.00    +0.000 C 
ATOM     17  N   UNL     1       0.694  13.364  21.421  0.00  0.00    +0.000 N 
ATOM     18  C   UNL     1       1.812  14.226  21.249  0.00  0.00    +0.000 C 
ATOM     19  O   UNL     1       1.804  15.366  21.689  0.00  0.00    +0.000 OA
ATOM     20  N   UNL     1       2.830  13.756  20.482  0.00  0.00    +0.000 N 
ATOM     21  C   UNL     1       0.426  11.968  21.053  0.00  0.00    +0.000 C 
ATOM     22  C   UNL     1      -0.956  11.408  21.604  0.00  0.00    +0.000 C 
ATOM     23  H   UNL     1       2.889  12.756  20.396  0.00  0.00    +0.000 HD
ENDROOT
BRANCH  20  24
ATOM     24  C   UNL     1       3.882  14.506  19.909  0.00  0.00    +0.000 A 
ATOM     25  C   UNL     1       4.979  15.073  20.581  0.00  0.00    +0.000 A 
ATOM     26  C   UNL     1       5.899  15.846  19.855  0.00  0.00    +0.000 A 
ATOM     27  F   UNL     1       6.979  16.374  20.456  0.00  0.00    +0.000 F 
ATOM     28  C   UNL     1       5.756  16.037  18.490  0.00  0.00    +0.000 A 
ATOM     29  C   UNL     1       4.658  15.506  17.825  0.00  0.00    +0.000 A 
ATOM     30  C   UNL     1       3.748  14.732  18.543  0.00  0.00    +0.000 A 
ATOM     31  F   UNL     1       2.706  14.172  17.907  0.00  0.00    +0.000 F 
ENDBRANCH  20  24
BRANCH   1  33
ATOM     32  C   UNL     1      -1.982  10.453  18.403  0.00  0.00    +0.000 C 
ATOM     33  C   UNL     1      -2.023  11.897  18.885  0.00  0.00    +0.000 C 
ENDBRANCH   1  33
TORSDOF 2
ENDMDL
MODEL 8
REMARK VINA RESULT:      -6.7      1.281      1.670
REMARK  Name = 
REMARK  4 active torsions:
REMARK  status: ('A' for Active; 'I' for Inactive)
REMARK    1  A    between atoms: C_1  and  C_2
REMARK    2  A    between atoms: C_2  and  N_3
REMARK    3  A    between atoms: C_6  and  C_7
REMARK    4  A    between atoms: N_22  and  C_23
REMARK                            x       y       z     vdW  Elec       q    Type
REMARK                         _______ _______ _______ _____ _____    ______ ____
ROOT
ATOM      1  N   UNL     1       1.358  13.162  19.889  0.00  0.00    +0.000 N 
ATOM      2  C   UNL     1       1.532  14.240  20.779  0.00  0.00    +0.000 A 
ATOM      3  C   UNL     1       2.583  15.170  20.642  0.00  0.00    +0.000 A 
ATOM      4  C   UNL     1       2.774  16.252  21.516  0.00  0.00    +0.000 A 
ATOM      5  C   UNL     1       3.841  17.272  21.246  0.00  0.00    +0.000 C 
ATOM      6  C   UNL     1       1.939  16.389  22.619  0.00  0.00    +0.000 A 
ATOM      7  C   UNL     1       0.875  15.508  22.789  0.00  0.00    +0.000 A 
ATOM      8  C   UNL     1       0.648  14.482  21.853  0.00  0.00    +0.000 A 
ATOM      9  N   UNL     1      -0.519  13.694  21.937  0.00  0.00    +0.000 N 
ATOM     10  C   UNL     1      -1.404  13.609  22.991  0.00  0.00    +0.000 A 
ATOM     11  C   UNL     1      -2.375  12.689  22.673  0.00  0.00    +0.000 A 
ATOM     12  C   UNL     1      -2.087  12.198  21.371  0.00  0.00    +0.000 A 
ATOM     13  C   UNL     1      -0.853  12.722  21.002  0.00  0.00    +0.000 A 
ATOM     14  C   UNL     1       0.315  12.119  20.202  0.00  0.00    +0.000 C 
ATOM     15  C   UNL     1       0.865  11.154  21.257  0.00  0.00    +0.000 C 
ATOM     16  C   UNL     1       0.794   9.691  20.893  0.00  0.00    +0.000 C 
ATOM     17  N   UNL     1       1.071   9.177  19.634  0.00  0.00    +0.000 N 
ATOM     18  C   UNL     1       1.713   7.913  19.744  0.00  0.00    +0.000 C 
ATOM     19  O   UNL     1       1.796   7.338  20.819  0.00  0.00    +0.000 OA
ATOM     20  N   UNL     1       2.318   7.439  18.624  0.00  0.00    +0.000 N 
ATOM     21  C   UNL     1       0.785  10.073  18.506  0.00  0.00    +0.000 C 
ATOM     22  C   UNL     1      -0.100  11.336  18.893  0.00  0.00    +0.000 C 
ATOM     23  H   UNL     1       1.981   7.810  17.752  0.00  0.00    +0.000 HD
ENDROOT
BRANCH  20  24
ATOM     24  C   UNL     1       3.267   6.395  18.545  0.00  0.00    +0.000 A 
ATOM     25  C   UNL     1       3.389   5.297  19.415  0.00  0.00    +0.000 A 
ATOM     26  C   UNL     1       4.438   4.385  19.220  0.00  0.00    +0.000 A 
ATOM     27  F   UNL     1       4.566   3.304  20.010  0.00  0.00    +0.000 F 
ATOM     28  C   UNL     1       5.336   4.536  18.175  0.00  0.00    +0.000 A 
ATOM     29  C   UNL     1       5.240   5.635  17.330  0.00  0.00    +0.000 A 
ATOM     30  C   UNL     1       4.193   6.538  17.518  0.00  0.00    +0.000 A 
ATOM     31  F   UNL     1       4.059   7.579  16.682  0.00  0.00    +0.000 F 
ENDBRANCH  20  24
BRANCH   1  33
ATOM     32  C   UNL     1       2.418  13.746  17.686  0.00  0.00    +0.000 C 
ATOM     33  C   UNL     1       2.435  12.866  18.929  0.00  0.00    +0.000 C 
ENDBRANCH   1  33
TORSDOF 2
ENDMDL
MODEL 9
REMARK VINA RESULT:      -6.6      4.210      7.264
REMARK  Name = 
REMARK  4 active torsions:
REMARK  status: ('A' for Active; 'I' for Inactive)
REMARK    1  A    between atoms: C_1  and  C_2
REMARK    2  A    between atoms: C_2  and  N_3
REMARK    3  A    between atoms: C_6  and  C_7
REMARK    4  A    between atoms: N_22  and  C_23
REMARK                            x       y       z     vdW  Elec       q    Type
REMARK                         _______ _______ _______ _____ _____    ______ ____
ROOT
ATOM      1  N   UNL     1      -0.893  11.346  18.915  0.00  0.00    +0.000 N 
ATOM      2  C   UNL     1      -2.044  11.277  18.106  0.00  0.00    +0.000 A 
ATOM      3  C   UNL     1      -2.041  10.656  16.841  0.00  0.00    +0.000 A 
ATOM      4  C   UNL     1      -3.177  10.575  16.018  0.00  0.00    +0.000 A 
ATOM      5  C   UNL     1      -3.136   9.797  14.736  0.00  0.00    +0.000 C 
ATOM      6  C   UNL     1      -4.354  11.194  16.425  0.00  0.00    +0.000 A 
ATOM      7  C   UNL     1      -4.414  11.804  17.673  0.00  0.00    +0.000 A 
ATOM      8  C   UNL     1      -3.289  11.798  18.520  0.00  0.00    +0.000 A 
ATOM      9  N   UNL     1      -3.399  12.272  19.844  0.00  0.00    +0.000 N 
ATOM     10  C   UNL     1      -4.431  13.002  20.396  0.00  0.00    +0.000 A 
ATOM     11  C   UNL     1      -4.111  13.294  21.700  0.00  0.00    +0.000 A 
ATOM     12  C   UNL     1      -2.842  12.713  21.969  0.00  0.00    +0.000 A 
ATOM     13  C   UNL     1      -2.357  12.219  20.763  0.00  0.00    +0.000 A 
ATOM     14  C   UNL     1      -0.935  12.172  20.176  0.00  0.00    +0.000 C 
ATOM     15  C   UNL     1      -0.767  13.652  19.817  0.00  0.00    +0.000 C 
ATOM     16  C   UNL     1       0.330  14.375  20.559  0.00  0.00    +0.000 C 
ATOM     17  N   UNL     1       1.581  13.840  20.835  0.00  0.00    +0.000 N 
ATOM     18  C   UNL     1       2.581  14.847  20.751  0.00  0.00    +0.000 C 
ATOM     19  O   UNL     1       2.282  16.027  20.642  0.00  0.00    +0.000 OA
ATOM     20  N   UNL     1       3.869  14.422  20.688  0.00  0.00    +0.000 N 
ATOM     21  C   UNL     1       1.623  12.383  21.008  0.00  0.00    +0.000 C 
ATOM     22  C   UNL     1       0.193  11.711  21.183  0.00  0.00    +0.000 C 
ATOM     23  H   UNL     1       4.045  13.501  21.052  0.00  0.00    +0.000 HD
ENDROOT
BRANCH  20  24
ATOM     24  C   UNL     1       4.998  15.174  20.292  0.00  0.00    +0.000 A 
ATOM     25  C   UNL     1       5.631  15.149  19.037  0.00  0.00    +0.000 A 
ATOM     26  C   UNL     1       6.787  15.921  18.841  0.00  0.00    +0.000 A 
ATOM     27  F   UNL     1       7.400  15.951  17.644  0.00  0.00    +0.000 F 
ATOM     28  C   UNL     1       7.298  16.720  19.852  0.00  0.00    +0.000 A 
ATOM     29  C   UNL     1       6.695  16.725  21.104  0.00  0.00    +0.000 A 
ATOM     30  C   UNL     1       5.542  15.965  21.298  0.00  0.00    +0.000 A 
ATOM     31  F   UNL     1       4.920  15.996  22.488  0.00  0.00    +0.000 F 
ENDBRANCH  20  24
BRANCH   1  33
ATOM     32  C   UNL     1       0.776   9.504  18.541  0.00  0.00    +0.000 C 
ATOM     33  C   UNL     1       0.402  10.965  18.325  0.00  0.00    +0.000 C 
ENDBRANCH   1  33
TORSDOF 2
ENDMDL
