MODEL 1
REMARK VINA RESULT:      -9.0      0.000      0.000
REMARK  Name = 
REMARK  3 active torsions:
REMARK  status: ('A' for Active; 'I' for Inactive)
REMARK    1  A    between atoms: C_4  and  C_6
REMARK    2  A    between atoms: N_14  and  C_15
REMARK    3  A    between atoms: C_18  and  C_19
REMARK                            x       y       z     vdW  Elec       q    Type
REMARK                         _______ _______ _______ _____ _____    ______ ____
ROOT
ATOM      1  O   UNL     1      -1.301  11.162  18.977  0.00  0.00    +0.000 OA
ATOM      2  C   UNL     1      -0.865  11.108  20.125  0.00  0.00    +0.000 C 
ATOM      3  N   UNL     1      -1.406  11.960  21.068  0.00  0.00    +0.000 N 
ATOM      4  C   UNL     1      -1.017  12.115  22.387  0.00  0.00    +0.000 C 
ATOM      5  O   UNL     1      -0.152  11.414  22.906  0.00  0.00    +0.000 OA
ATOM      6  N   UNL     1       0.132  10.285  20.588  0.00  0.00    +0.000 N 
ATOM      7  H   UNL     1      -2.140  12.543  20.684  0.00  0.00    +0.000 HD
ATOM      8  H   UNL     1       0.350  10.397  21.580  0.00  0.00    +0.000 HD
ENDROOT
BRANCH   4   9
ATOM      9  C   UNL     1      -1.702  13.148  23.192  0.00  0.00    +0.000 A 
ATOM     10  C   UNL     1      -1.214  14.447  23.319  0.00  0.00    +0.000 A 
ATOM     11  F   UNL     1      -0.038  14.795  22.773  0.00  0.00    +0.000 F 
ATOM     12  C   UNL     1      -1.938  15.426  24.003  0.00  0.00    +0.000 A 
ATOM     13  C   UNL     1      -3.167  15.106  24.579  0.00  0.00    +0.000 A 
ATOM     14  C   UNL     1      -3.652  13.803  24.485  0.00  0.00    +0.000 A 
ATOM     15  C   UNL     1      -2.922  12.836  23.797  0.00  0.00    +0.000 A 
ATOM     16  F   UNL     1      -3.420  11.593  23.758  0.00  0.00    +0.000 F 
ENDBRANCH   4   9
BRANCH   6  17
ATOM     17  C   UNL     1       0.918   9.367  19.876  0.00  0.00    +0.000 A 
ATOM     18  C   UNL     1       1.326   9.566  18.558  0.00  0.00    +0.000 A 
ATOM     19  C   UNL     1       2.157   8.639  17.926  0.00  0.00    +0.000 A 
ATOM     20  C   UNL     1       2.592   7.503  18.613  0.00  0.00    +0.000 A 
ATOM     21  C   UNL     1       2.167   7.280  19.924  0.00  0.00    +0.000 A 
ATOM     22  C   UNL     1       1.327   8.207  20.549  0.00  0.00    +0.000 A 
BRANCH  20  23
ATOM     23  C   UNL     1       3.536   6.566  17.979  0.00  0.00    +0.000 C 
ATOM     24  N   UNL     1       3.240   5.341  17.685  0.00  0.00    +0.000 NA
ATOM     25  O   UNL     1       4.412   4.747  17.158  0.00  0.00    +0.000 OA
ATOM     26  C   UNL     1       5.322   5.798  16.783  0.00  0.00    +0.000 C 
ATOM     27  C   UNL     1       6.759   5.340  17.068  0.00  0.00    +0.000 C 
ATOM     28  C   UNL     1       7.184   4.177  16.172  0.00  0.00    +0.000 C 
ATOM     29  C   UNL     1       6.987   4.506  14.697  0.00  0.00    +0.000 C 
ATOM     30  C   UNL     1       5.551   4.930  14.405  0.00  0.00    +0.000 C 
ATOM     31  C   UNL     1       5.124   6.103  15.288  0.00  0.00    +0.000 C 
ATOM     32  C   UNL     1       4.936   6.967  17.671  0.00  0.00    +0.000 C 
ENDBRANCH  20  23
ENDBRANCH   6  17
TORSDOF 3
ENDMDL
MODEL 2
REMARK VINA RESULT:      -8.9      0.273      1.518
REMARK  Name = 
REMARK  3 active torsions:
REMARK  status: ('A' for Active; 'I' for Inactive)
REMARK    1  A    between atoms: C_4  and  C_6
REMARK    2  A    between atoms: N_14  and  C_15
REMARK    3  A    between atoms: C_18  and  C_19
REMARK                            x       y       z     vdW  Elec       q    Type
REMARK                         _______ _______ _______ _____ _____    ______ ____
ROOT
ATOM      1  O   UNL     1      -1.526  10.869  18.900  0.00  0.00    +0.000 OA
ATOM      2  C   UNL     1      -1.005  10.975  20.008  0.00  0.00    +0.000 C 
ATOM      3  N   UNL     1      -1.557  11.871  20.903  0.00  0.00    +0.000 N 
ATOM      4  C   UNL     1      -1.091  12.197  22.165  0.00  0.00    +0.000 C 
ATOM      5  O   UNL     1      -0.128  11.635  22.678  0.00  0.00    +0.000 OA
ATOM      6  N   UNL     1       0.097  10.297  20.468  0.00  0.00    +0.000 N 
ATOM      7  H   UNL     1      -2.369  12.342  20.525  0.00  0.00    +0.000 HD
ATOM      8  H   UNL     1       0.374  10.533  21.423  0.00  0.00    +0.000 HD
ENDROOT
BRANCH   4   9
ATOM      9  C   UNL     1      -1.814  13.245  22.917  0.00  0.00    +0.000 A 
ATOM     10  C   UNL     1      -2.882  12.960  23.766  0.00  0.00    +0.000 A 
ATOM     11  F   UNL     1      -3.358  11.709  23.873  0.00  0.00    +0.000 F 
ATOM     12  C   UNL     1      -3.477  13.960  24.537  0.00  0.00    +0.000 A 
ATOM     13  C   UNL     1      -3.008  15.271  24.458  0.00  0.00    +0.000 A 
ATOM     14  C   UNL     1      -1.960  15.575  23.591  0.00  0.00    +0.000 A 
ATOM     15  C   UNL     1      -1.372  14.568  22.829  0.00  0.00    +0.000 A 
ATOM     16  F   UNL     1      -0.386  14.917  21.992  0.00  0.00    +0.000 F 
ENDBRANCH   4   9
BRANCH   6  17
ATOM     17  C   UNL     1       0.915   9.383  19.788  0.00  0.00    +0.000 A 
ATOM     18  C   UNL     1       1.354   9.572  18.478  0.00  0.00    +0.000 A 
ATOM     19  C   UNL     1       2.215   8.650  17.880  0.00  0.00    +0.000 A 
ATOM     20  C   UNL     1       2.649   7.530  18.593  0.00  0.00    +0.000 A 
ATOM     21  C   UNL     1       2.195   7.317  19.895  0.00  0.00    +0.000 A 
ATOM     22  C   UNL     1       1.325   8.239  20.487  0.00  0.00    +0.000 A 
BRANCH  20  23
ATOM     23  C   UNL     1       3.624   6.600  17.995  0.00  0.00    +0.000 C 
ATOM     24  N   UNL     1       3.403   5.334  17.839  0.00  0.00    +0.000 NA
ATOM     25  O   UNL     1       4.585   4.770  17.301  0.00  0.00    +0.000 OA
ATOM     26  C   UNL     1       5.394   5.838  16.772  0.00  0.00    +0.000 C 
ATOM     27  C   UNL     1       6.874   5.508  17.011  0.00  0.00    +0.000 C 
ATOM     28  C   UNL     1       7.334   4.293  16.207  0.00  0.00    +0.000 C 
ATOM     29  C   UNL     1       7.033   4.459  14.722  0.00  0.00    +0.000 C 
ATOM     30  C   UNL     1       5.556   4.753  14.478  0.00  0.00    +0.000 C 
ATOM     31  C   UNL     1       5.093   5.977  15.269  0.00  0.00    +0.000 C 
ATOM     32  C   UNL     1       4.972   7.061  17.565  0.00  0.00    +0.000 C 
ENDBRANCH  20  23
ENDBRANCH   6  17
TORSDOF 3
ENDMDL
MODEL 3
REMARK VINA RESULT:      -8.8      3.582      4.230
REMARK  Name = 
REMARK  3 active torsions:
REMARK  status: ('A' for Active; 'I' for Inactive)
REMARK    1  A    between atoms: C_4  and  C_6
REMARK    2  A    between atoms: N_14  and  C_15
REMARK    3  A    between atoms: C_18  and  C_19
REMARK                            x       y       z     vdW  Elec       q    Type
REMARK                         _______ _______ _______ _____ _____    ______ ____
ROOT
ATOM      1  O   UNL     1      -1.265  11.593  17.792  0.00  0.00    +0.000 OA
ATOM      2  C   UNL     1      -0.597  12.273  18.569  0.00  0.00    +0.000 C 
ATOM      3  N   UNL     1      -0.824  13.635  18.601  0.00  0.00    +0.000 N 
ATOM      4  C   UNL     1      -0.142  14.586  19.340  0.00  0.00    +0.000 C 
ATOM      5  O   UNL     1       0.733  14.290  20.149  0.00  0.00    +0.000 OA
ATOM      6  N   UNL     1       0.380  11.825  19.423  0.00  0.00    +0.000 N 
ATOM      7  H   UNL     1      -1.555  13.919  17.961  0.00  0.00    +0.000 HD
ATOM      8  H   UNL     1       0.819  12.555  19.987  0.00  0.00    +0.000 HD
ENDROOT
BRANCH   4   9
ATOM      9  C   UNL     1      -0.518  16.004  19.154  0.00  0.00    +0.000 A 
ATOM     10  C   UNL     1       0.225  16.882  18.367  0.00  0.00    +0.000 A 
ATOM     11  F   UNL     1       1.377  16.488  17.801  0.00  0.00    +0.000 F 
ATOM     12  C   UNL     1      -0.213  18.186  18.131  0.00  0.00    +0.000 A 
ATOM     13  C   UNL     1      -1.408  18.631  18.695  0.00  0.00    +0.000 A 
ATOM     14  C   UNL     1      -2.145  17.773  19.510  0.00  0.00    +0.000 A 
ATOM     15  C   UNL     1      -1.699  16.472  19.735  0.00  0.00    +0.000 A 
ATOM     16  F   UNL     1      -2.431  15.696  20.545  0.00  0.00    +0.000 F 
ENDBRANCH   4   9
BRANCH   6  17
ATOM     17  C   UNL     1       0.886  10.527  19.578  0.00  0.00    +0.000 A 
ATOM     18  C   UNL     1       0.820   9.814  20.775  0.00  0.00    +0.000 A 
ATOM     19  C   UNL     1       1.293   8.502  20.845  0.00  0.00    +0.000 A 
ATOM     20  C   UNL     1       1.833   7.889  19.713  0.00  0.00    +0.000 A 
ATOM     21  C   UNL     1       1.929   8.602  18.516  0.00  0.00    +0.000 A 
ATOM     22  C   UNL     1       1.463   9.919  18.454  0.00  0.00    +0.000 A 
BRANCH  20  23
ATOM     23  C   UNL     1       2.254   6.478  19.761  0.00  0.00    +0.000 C 
ATOM     24  N   UNL     1       1.761   5.612  20.587  0.00  0.00    +0.000 NA
ATOM     25  O   UNL     1       2.457   4.397  20.377  0.00  0.00    +0.000 OA
ATOM     26  C   UNL     1       3.125   4.472  19.103  0.00  0.00    +0.000 C 
ATOM     27  C   UNL     1       4.470   3.740  19.201  0.00  0.00    +0.000 C 
ATOM     28  C   UNL     1       4.296   2.236  19.412  0.00  0.00    +0.000 C 
ATOM     29  C   UNL     1       3.402   1.621  18.341  0.00  0.00    +0.000 C 
ATOM     30  C   UNL     1       2.052   2.326  18.265  0.00  0.00    +0.000 C 
ATOM     31  C   UNL     1       2.219   3.830  18.040  0.00  0.00    +0.000 C 
ATOM     32  C   UNL     1       3.329   5.959  18.872  0.00  0.00    +0.000 C 
ENDBRANCH  20  23
ENDBRANCH   6  17
TORSDOF 3
ENDMDL
MODEL 4
REMARK VINA RESULT:      -8.6      3.521     11.263
REMARK  Name = 
REMARK  3 active torsions:
REMARK  status: ('A' for Active; 'I' for Inactive)
REMARK    1  A    between atoms: C_4  and  C_6
REMARK    2  A    between atoms: N_14  and  C_15
REMARK    3  A    between atoms: C_18  and  C_19
REMARK                            x       y       z     vdW  Elec       q    Type
REMARK                         _______ _______ _______ _____ _____    ______ ____
ROOT
ATOM      1  O   UNL     1       1.904   5.844  20.784  0.00  0.00    +0.000 OA
ATOM      2  C   UNL     1       2.329   6.524  19.853  0.00  0.00    +0.000 C 
ATOM      3  N   UNL     1       3.256   5.955  19.001  0.00  0.00    +0.000 N 
ATOM      4  C   UNL     1       3.912   6.559  17.943  0.00  0.00    +0.000 C 
ATOM      5  O   UNL     1       3.665   7.707  17.584  0.00  0.00    +0.000 OA
ATOM      6  N   UNL     1       1.989   7.822  19.559  0.00  0.00    +0.000 N 
ATOM      7  H   UNL     1       3.472   4.998  19.252  0.00  0.00    +0.000 HD
ATOM      8  H   UNL     1       2.458   8.210  18.739  0.00  0.00    +0.000 HD
ENDROOT
BRANCH   4   9
ATOM      9  C   UNL     1       4.922   5.764  17.214  0.00  0.00    +0.000 A 
ATOM     10  C   UNL     1       4.633   4.531  16.634  0.00  0.00    +0.000 A 
ATOM     11  F   UNL     1       3.423   3.968  16.787  0.00  0.00    +0.000 F 
ATOM     12  C   UNL     1       5.582   3.853  15.866  0.00  0.00    +0.000 A 
ATOM     13  C   UNL     1       6.848   4.408  15.679  0.00  0.00    +0.000 A 
ATOM     14  C   UNL     1       7.161   5.627  16.279  0.00  0.00    +0.000 A 
ATOM     15  C   UNL     1       6.203   6.295  17.039  0.00  0.00    +0.000 A 
ATOM     16  F   UNL     1       6.562   7.449  17.615  0.00  0.00    +0.000 F 
ENDBRANCH   4   9
BRANCH   6  17
ATOM     17  C   UNL     1       1.140   8.690  20.261  0.00  0.00    +0.000 A 
ATOM     18  C   UNL     1       1.032   8.700  21.651  0.00  0.00    +0.000 A 
ATOM     19  C   UNL     1       0.209   9.631  22.290  0.00  0.00    +0.000 A 
ATOM     20  C   UNL     1      -0.510  10.564  21.540  0.00  0.00    +0.000 A 
ATOM     21  C   UNL     1      -0.429  10.545  20.147  0.00  0.00    +0.000 A 
ATOM     22  C   UNL     1       0.388   9.605  19.511  0.00  0.00    +0.000 A 
BRANCH  20  23
ATOM     23  C   UNL     1      -1.311  11.601  22.214  0.00  0.00    +0.000 C 
ATOM     24  N   UNL     1      -1.929  11.411  23.335  0.00  0.00    +0.000 NA
ATOM     25  O   UNL     1      -2.636  12.603  23.626  0.00  0.00    +0.000 OA
ATOM     26  C   UNL     1      -2.090  13.661  22.815  0.00  0.00    +0.000 C 
ATOM     27  C   UNL     1      -3.225  14.605  22.396  0.00  0.00    +0.000 C 
ATOM     28  C   UNL     1      -3.825  15.354  23.586  0.00  0.00    +0.000 C 
ATOM     29  C   UNL     1      -2.752  16.090  24.380  0.00  0.00    +0.000 C 
ATOM     30  C   UNL     1      -1.639  15.148  24.827  0.00  0.00    +0.000 C 
ATOM     31  C   UNL     1      -1.026  14.406  23.639  0.00  0.00    +0.000 C 
ATOM     32  C   UNL     1      -1.500  12.949  21.612  0.00  0.00    +0.000 C 
ENDBRANCH  20  23
ENDBRANCH   6  17
TORSDOF 3
ENDMDL
MODEL 5
REMARK VINA RESULT:      -8.6      3.504     11.309
REMARK  Name = 
REMARK  3 active torsions:
REMARK  status: ('A' for Active; 'I' for Inactive)
REMARK    1  A    between atoms: C_4  and  C_6
REMARK    2  A    between atoms: N_14  and  C_15
REMARK    3  A    between atoms: C_18  and  C_19
REMARK                            x       y       z     vdW  Elec       q    Type
REMARK                         _______ _______ _______ _____ _____    ______ ____
ROOT
ATOM      1  O   UNL     1       1.807   6.215  20.777  0.00  0.00    +0.000 OA
ATOM      2  C   UNL     1       2.242   6.816  19.796  0.00  0.00    +0.000 C 
ATOM      3  N   UNL     1       3.174   6.177  19.002  0.00  0.00    +0.000 N 
ATOM      4  C   UNL     1       3.840   6.692  17.903  0.00  0.00    +0.000 C 
ATOM      5  O   UNL     1       3.599   7.808  17.450  0.00  0.00    +0.000 OA
ATOM      6  N   UNL     1       1.907   8.085  19.395  0.00  0.00    +0.000 N 
ATOM      7  H   UNL     1       3.385   5.244  19.331  0.00  0.00    +0.000 HD
ATOM      8  H   UNL     1       2.384   8.404  18.550  0.00  0.00    +0.000 HD
ENDROOT
BRANCH   4   9
ATOM      9  C   UNL     1       4.855   5.839  17.250  0.00  0.00    +0.000 A 
ATOM     10  C   UNL     1       4.555   4.584  16.724  0.00  0.00    +0.000 A 
ATOM     11  F   UNL     1       3.328   4.056  16.864  0.00  0.00    +0.000 F 
ATOM     12  C   UNL     1       5.513   3.847  16.024  0.00  0.00    +0.000 A 
ATOM     13  C   UNL     1       6.796   4.363  15.852  0.00  0.00    +0.000 A 
ATOM     14  C   UNL     1       7.119   5.604  16.399  0.00  0.00    +0.000 A 
ATOM     15  C   UNL     1       6.153   6.331  17.092  0.00  0.00    +0.000 A 
ATOM     16  F   UNL     1       6.520   7.506  17.620  0.00  0.00    +0.000 F 
ENDBRANCH   4   9
BRANCH   6  17
ATOM     17  C   UNL     1       1.054   9.009  20.017  0.00  0.00    +0.000 A 
ATOM     18  C   UNL     1       0.936   9.135  21.400  0.00  0.00    +0.000 A 
ATOM     19  C   UNL     1       0.111  10.116  21.955  0.00  0.00    +0.000 A 
ATOM     20  C   UNL     1      -0.602  10.985  21.125  0.00  0.00    +0.000 A 
ATOM     21  C   UNL     1      -0.512  10.850  19.738  0.00  0.00    +0.000 A 
ATOM     22  C   UNL     1       0.308   9.860  19.188  0.00  0.00    +0.000 A 
BRANCH  20  23
ATOM     23  C   UNL     1      -1.406  12.074  21.705  0.00  0.00    +0.000 C 
ATOM     24  N   UNL     1      -1.503  13.252  21.176  0.00  0.00    +0.000 NA
ATOM     25  O   UNL     1      -2.299  14.033  22.048  0.00  0.00    +0.000 OA
ATOM     26  C   UNL     1      -3.005  13.144  22.935  0.00  0.00    +0.000 C 
ATOM     27  C   UNL     1      -3.113  13.800  24.318  0.00  0.00    +0.000 C 
ATOM     28  C   UNL     1      -3.999  15.046  24.299  0.00  0.00    +0.000 C 
ATOM     29  C   UNL     1      -5.375  14.745  23.716  0.00  0.00    +0.000 C 
ATOM     30  C   UNL     1      -5.270  14.123  22.327  0.00  0.00    +0.000 C 
ATOM     31  C   UNL     1      -4.397  12.868  22.341  0.00  0.00    +0.000 C 
ATOM     32  C   UNL     1      -2.138  11.899  22.989  0.00  0.00    +0.000 C 
ENDBRANCH  20  23
ENDBRANCH   6  17
TORSDOF 3
ENDMDL
MODEL 6
REMARK VINA RESULT:      -8.5      3.718     11.178
REMARK  Name = 
REMARK  3 active torsions:
REMARK  status: ('A' for Active; 'I' for Inactive)
REMARK    1  A    between atoms: C_4  and  C_6
REMARK    2  A    between atoms: N_14  and  C_15
REMARK    3  A    between atoms: C_18  and  C_19
REMARK                            x       y       z     vdW  Elec       q    Type
REMARK                         _______ _______ _______ _____ _____    ______ ____
ROOT
ATOM      1  O   UNL     1       1.981   9.632  17.485  0.00  0.00    +0.000 OA
ATOM      2  C   UNL     1       1.833   8.786  18.365  0.00  0.00    +0.000 C 
ATOM      3  N   UNL     1       2.418   7.548  18.182  0.00  0.00    +0.000 N 
ATOM      4  C   UNL     1       2.318   6.439  19.005  0.00  0.00    +0.000 C 
ATOM      5  O   UNL     1       1.729   6.468  20.082  0.00  0.00    +0.000 OA
ATOM      6  N   UNL     1       1.127   8.930  19.534  0.00  0.00    +0.000 N 
ATOM      7  H   UNL     1       2.931   7.490  17.312  0.00  0.00    +0.000 HD
ATOM      8  H   UNL     1       1.125   8.103  20.134  0.00  0.00    +0.000 HD
ENDROOT
BRANCH   4   9
ATOM      9  C   UNL     1       2.977   5.192  18.562  0.00  0.00    +0.000 A 
ATOM     10  C   UNL     1       4.267   4.843  18.957  0.00  0.00    +0.000 A 
ATOM     11  F   UNL     1       5.007   5.680  19.702  0.00  0.00    +0.000 F 
ATOM     12  C   UNL     1       4.822   3.612  18.603  0.00  0.00    +0.000 A 
ATOM     13  C   UNL     1       4.083   2.712  17.835  0.00  0.00    +0.000 A 
ATOM     14  C   UNL     1       2.803   3.061  17.408  0.00  0.00    +0.000 A 
ATOM     15  C   UNL     1       2.259   4.291  17.771  0.00  0.00    +0.000 A 
ATOM     16  F   UNL     1       1.036   4.589  17.314  0.00  0.00    +0.000 F 
ENDBRANCH   4   9
BRANCH   6  17
ATOM     17  C   UNL     1       0.373  10.026  19.978  0.00  0.00    +0.000 A 
ATOM     18  C   UNL     1      -0.658  10.600  19.234  0.00  0.00    +0.000 A 
ATOM     19  C   UNL     1      -1.409  11.653  19.760  0.00  0.00    +0.000 A 
ATOM     20  C   UNL     1      -1.136  12.138  21.041  0.00  0.00    +0.000 A 
ATOM     21  C   UNL     1      -0.090  11.589  21.784  0.00  0.00    +0.000 A 
ATOM     22  C   UNL     1       0.666  10.541  21.249  0.00  0.00    +0.000 A 
BRANCH  20  23
ATOM     23  C   UNL     1      -1.981  13.192  21.633  0.00  0.00    +0.000 C 
ATOM     24  N   UNL     1      -2.279  14.294  21.024  0.00  0.00    +0.000 NA
ATOM     25  O   UNL     1      -3.043  15.072  21.928  0.00  0.00    +0.000 OA
ATOM     26  C   UNL     1      -3.522  14.207  22.976  0.00  0.00    +0.000 C 
ATOM     27  C   UNL     1      -3.529  14.983  24.300  0.00  0.00    +0.000 C 
ATOM     28  C   UNL     1      -4.548  16.122  24.298  0.00  0.00    +0.000 C 
ATOM     29  C   UNL     1      -5.942  15.625  23.936  0.00  0.00    +0.000 C 
ATOM     30  C   UNL     1      -5.945  14.883  22.604  0.00  0.00    +0.000 C 
ATOM     31  C   UNL     1      -4.937  13.732  22.604  0.00  0.00    +0.000 C 
ATOM     32  C   UNL     1      -2.518  13.070  23.015  0.00  0.00    +0.000 C 
ENDBRANCH  20  23
ENDBRANCH   6  17
TORSDOF 3
ENDMDL
MODEL 7
REMARK VINA RESULT:      -8.5      3.494     11.175
REMARK  Name = 
REMARK  3 active torsions:
REMARK  status: ('A' for Active; 'I' for Inactive)
REMARK    1  A    between atoms: C_4  and  C_6
REMARK    2  A    between atoms: N_14  and  C_15
REMARK    3  A    between atoms: C_18  and  C_19
REMARK                            x       y       z     vdW  Elec       q    Type
REMARK                         _______ _______ _______ _____ _____    ______ ____
ROOT
ATOM      1  O   UNL     1       1.842   6.037  20.855  0.00  0.00    +0.000 OA
ATOM      2  C   UNL     1       2.234   6.714  19.906  0.00  0.00    +0.000 C 
ATOM      3  N   UNL     1       3.163   6.157  19.049  0.00  0.00    +0.000 N 
ATOM      4  C   UNL     1       3.785   6.763  17.972  0.00  0.00    +0.000 C 
ATOM      5  O   UNL     1       3.501   7.898  17.598  0.00  0.00    +0.000 OA
ATOM      6  N   UNL     1       1.852   7.996  19.598  0.00  0.00    +0.000 N 
ATOM      7  H   UNL     1       3.410   5.211  19.311  0.00  0.00    +0.000 HD
ATOM      8  H   UNL     1       2.298   8.384  18.765  0.00  0.00    +0.000 HD
ENDROOT
BRANCH   4   9
ATOM      9  C   UNL     1       4.807   5.985  17.239  0.00  0.00    +0.000 A 
ATOM     10  C   UNL     1       6.104   6.452  17.035  0.00  0.00    +0.000 A 
ATOM     11  F   UNL     1       6.460   7.685  17.432  0.00  0.00    +0.000 F 
ATOM     12  C   UNL     1       7.073   5.651  16.428  0.00  0.00    +0.000 A 
ATOM     13  C   UNL     1       6.744   4.363  16.007  0.00  0.00    +0.000 A 
ATOM     14  C   UNL     1       5.443   3.894  16.177  0.00  0.00    +0.000 A 
ATOM     15  C   UNL     1       4.486   4.702  16.788  0.00  0.00    +0.000 A 
ATOM     16  F   UNL     1       3.244   4.215  16.905  0.00  0.00    +0.000 F 
ENDBRANCH   4   9
BRANCH   6  17
ATOM     17  C   UNL     1       0.989   8.851  20.299  0.00  0.00    +0.000 A 
ATOM     18  C   UNL     1       0.742   8.738  21.667  0.00  0.00    +0.000 A 
ATOM     19  C   UNL     1      -0.084   9.659  22.315  0.00  0.00    +0.000 A 
ATOM     20  C   UNL     1      -0.667  10.707  21.597  0.00  0.00    +0.000 A 
ATOM     21  C   UNL     1      -0.447  10.813  20.223  0.00  0.00    +0.000 A 
ATOM     22  C   UNL     1       0.373   9.882  19.577  0.00  0.00    +0.000 A 
BRANCH  20  23
ATOM     23  C   UNL     1      -1.469  11.728  22.293  0.00  0.00    +0.000 C 
ATOM     24  N   UNL     1      -2.129  11.500  23.383  0.00  0.00    +0.000 NA
ATOM     25  O   UNL     1      -2.821  12.692  23.706  0.00  0.00    +0.000 OA
ATOM     26  C   UNL     1      -2.227  13.775  22.964  0.00  0.00    +0.000 C 
ATOM     27  C   UNL     1      -3.328  14.761  22.552  0.00  0.00    +0.000 C 
ATOM     28  C   UNL     1      -3.951  15.467  23.755  0.00  0.00    +0.000 C 
ATOM     29  C   UNL     1      -2.892  16.143  24.618  0.00  0.00    +0.000 C 
ATOM     30  C   UNL     1      -1.814  15.157  25.057  0.00  0.00    +0.000 C 
ATOM     31  C   UNL     1      -1.176  14.457  23.856  0.00  0.00    +0.000 C 
ATOM     32  C   UNL     1      -1.611  13.106  21.748  0.00  0.00    +0.000 C 
ENDBRANCH  20  23
ENDBRANCH   6  17
TORSDOF 3
ENDMDL
MODEL 8
REMARK VINA RESULT:      -8.5      3.418     11.283
REMARK  Name = 
REMARK  3 active torsions:
REMARK  status: ('A' for Active; 'I' for Inactive)
REMARK    1  A    between atoms: C_4  and  C_6
REMARK    2  A    between atoms: N_14  and  C_15
REMARK    3  A    between atoms: C_18  and  C_19
REMARK                            x       y       z     vdW  Elec       q    Type
REMARK                         _______ _______ _______ _____ _____    ______ ____
ROOT
ATOM      1  O   UNL     1       1.922   9.611  17.435  0.00  0.00    +0.000 OA
ATOM      2  C   UNL     1       2.241   8.694  18.188  0.00  0.00    +0.000 C 
ATOM      3  N   UNL     1       3.108   7.731  17.709  0.00  0.00    +0.000 N 
ATOM      4  C   UNL     1       3.537   6.585  18.358  0.00  0.00    +0.000 C 
ATOM      5  O   UNL     1       3.235   6.334  19.521  0.00  0.00    +0.000 OA
ATOM      6  N   UNL     1       1.818   8.506  19.481  0.00  0.00    +0.000 N 
ATOM      7  H   UNL     1       3.398   7.913  16.757  0.00  0.00    +0.000 HD
ATOM      8  H   UNL     1       2.202   7.676  19.937  0.00  0.00    +0.000 HD
ENDROOT
BRANCH   4   9
ATOM      9  C   UNL     1       4.415   5.659  17.612  0.00  0.00    +0.000 A 
ATOM     10  C   UNL     1       3.967   4.438  17.112  0.00  0.00    +0.000 A 
ATOM     11  F   UNL     1       2.719   4.010  17.363  0.00  0.00    +0.000 F 
ATOM     12  C   UNL     1       4.793   3.633  16.326  0.00  0.00    +0.000 A 
ATOM     13  C   UNL     1       6.093   4.045  16.037  0.00  0.00    +0.000 A 
ATOM     14  C   UNL     1       6.565   5.250  16.556  0.00  0.00    +0.000 A 
ATOM     15  C   UNL     1       5.728   6.046  17.336  0.00  0.00    +0.000 A 
ATOM     16  F   UNL     1       6.237   7.182  17.832  0.00  0.00    +0.000 F 
ENDBRANCH   4   9
BRANCH   6  17
ATOM     17  C   UNL     1       0.898   9.258  20.224  0.00  0.00    +0.000 A 
ATOM     18  C   UNL     1       0.623   9.023  21.571  0.00  0.00    +0.000 A 
ATOM     19  C   UNL     1      -0.263   9.847  22.268  0.00  0.00    +0.000 A 
ATOM     20  C   UNL     1      -0.880  10.920  21.621  0.00  0.00    +0.000 A 
ATOM     21  C   UNL     1      -0.633  11.149  20.267  0.00  0.00    +0.000 A 
ATOM     22  C   UNL     1       0.248  10.314  19.570  0.00  0.00    +0.000 A 
BRANCH  20  23
ATOM     23  C   UNL     1      -1.749  11.842  22.374  0.00  0.00    +0.000 C 
ATOM     24  N   UNL     1      -2.387  11.506  23.449  0.00  0.00    +0.000 NA
ATOM     25  O   UNL     1      -3.159  12.626  23.840  0.00  0.00    +0.000 OA
ATOM     26  C   UNL     1      -2.644  13.788  23.162  0.00  0.00    +0.000 C 
ATOM     27  C   UNL     1      -3.813  14.718  22.807  0.00  0.00    +0.000 C 
ATOM     28  C   UNL     1      -4.480  15.308  24.049  0.00  0.00    +0.000 C 
ATOM     29  C   UNL     1      -3.467  16.006  24.949  0.00  0.00    +0.000 C 
ATOM     30  C   UNL     1      -2.321  15.074  25.331  0.00  0.00    +0.000 C 
ATOM     31  C   UNL     1      -1.640  14.490  24.092  0.00  0.00    +0.000 C 
ATOM     32  C   UNL     1      -1.989  13.235  21.909  0.00  0.00    +0.000 C 
ENDBRANCH  20  23
ENDBRANCH   6  17
TORSDOF 3
ENDMDL
MODEL 9
REMARK VINA RESULT:      -8.5      3.397     11.225
REMARK  Name = 
REMARK  3 active torsions:
REMARK  status: ('A' for Active; 'I' for Inactive)
REMARK    1  A    between atoms: C_4  and  C_6
REMARK    2  A    between atoms: N_14  and  C_15
REMARK    3  A    between atoms: C_18  and  C_19
REMARK                            x       y       z     vdW  Elec       q    Type
REMARK                         _______ _______ _______ _____ _____    ______ ____
ROOT
ATOM      1  O   UNL     1       1.709   9.981  17.501  0.00  0.00    +0.000 OA
ATOM      2  C   UNL     1       1.784   9.045  18.294  0.00  0.00    +0.000 C 
ATOM      3  N   UNL     1       2.482   7.918  17.906  0.00  0.00    +0.000 N 
ATOM      4  C   UNL     1       2.628   6.734  18.608  0.00  0.00    +0.000 C 
ATOM      5  O   UNL     1       2.192   6.584  19.746  0.00  0.00    +0.000 OA
ATOM      6  N   UNL     1       1.231   8.985  19.549  0.00  0.00    +0.000 N 
ATOM      7  H   UNL     1       2.877   8.010  16.979  0.00  0.00    +0.000 HD
ATOM      8  H   UNL     1       1.408   8.113  20.051  0.00  0.00    +0.000 HD
ENDROOT
BRANCH   4   9
ATOM      9  C   UNL     1       3.366   5.632  17.955  0.00  0.00    +0.000 A 
ATOM     10  C   UNL     1       4.736   5.690  17.704  0.00  0.00    +0.000 A 
ATOM     11  F   UNL     1       5.437   6.802  17.977  0.00  0.00    +0.000 F 
ATOM     12  C   UNL     1       5.420   4.593  17.177  0.00  0.00    +0.000 A 
ATOM     13  C   UNL     1       4.728   3.417  16.887  0.00  0.00    +0.000 A 
ATOM     14  C   UNL     1       3.353   3.356  17.104  0.00  0.00    +0.000 A 
ATOM     15  C   UNL     1       2.682   4.457  17.634  0.00  0.00    +0.000 A 
ATOM     16  F   UNL     1       1.357   4.356  17.800  0.00  0.00    +0.000 F 
ENDBRANCH   4   9
BRANCH   6  17
ATOM     17  C   UNL     1       0.417   9.924  20.199  0.00  0.00    +0.000 A 
ATOM     18  C   UNL     1      -0.327  10.892  19.525  0.00  0.00    +0.000 A 
ATOM     19  C   UNL     1      -1.163  11.761  20.231  0.00  0.00    +0.000 A 
ATOM     20  C   UNL     1      -1.265  11.663  21.620  0.00  0.00    +0.000 A 
ATOM     21  C   UNL     1      -0.504  10.715  22.307  0.00  0.00    +0.000 A 
ATOM     22  C   UNL     1       0.339   9.854  21.597  0.00  0.00    +0.000 A 
BRANCH  20  23
ATOM     23  C   UNL     1      -2.209  12.521  22.358  0.00  0.00    +0.000 C 
ATOM     24  N   UNL     1      -2.851  12.134  23.414  0.00  0.00    +0.000 NA
ATOM     25  O   UNL     1      -3.702  13.200  23.795  0.00  0.00    +0.000 OA
ATOM     26  C   UNL     1      -3.245  14.399  23.139  0.00  0.00    +0.000 C 
ATOM     27  C   UNL     1      -4.461  15.256  22.763  0.00  0.00    +0.000 C 
ATOM     28  C   UNL     1      -5.195  15.791  23.992  0.00  0.00    +0.000 C 
ATOM     29  C   UNL     1      -4.251  16.541  24.924  0.00  0.00    +0.000 C 
ATOM     30  C   UNL     1      -3.058  15.680  25.327  0.00  0.00    +0.000 C 
ATOM     31  C   UNL     1      -2.311  15.153  24.101  0.00  0.00    +0.000 C 
ATOM     32  C   UNL     1      -2.525  13.900  21.900  0.00  0.00    +0.000 C 
ENDBRANCH  20  23
ENDBRANCH   6  17
TORSDOF 3
ENDMDL
