MODEL 1
REMARK VINA RESULT:      -7.5      0.000      0.000
REMARK  Name = 
REMARK  8 active torsions:
REMARK  status: ('A' for Active; 'I' for Inactive)
REMARK    1  A    between atoms: C_1  and  O_2
REMARK    2  A    between atoms: O_2  and  C_3
REMARK    3  A    between atoms: C_8  and  C_9
REMARK    4  A    between atoms: C_12  and  C_14
REMARK    5  A    between atoms: C_14  and  S_15
REMARK    6  A    between atoms: S_15  and  C_16
REMARK    7  A    between atoms: C_19  and  C_20
REMARK    8  A    between atoms: C_21  and  C_22
REMARK                            x       y       z     vdW  Elec       q    Type
REMARK                         _______ _______ _______ _____ _____    ______ ____
ROOT
ATOM      1  C   UNL     1       3.943   3.953  18.406  0.00  0.00    +0.000 C 
ATOM      2  O   UNL     1       3.471   2.792  18.380  0.00  0.00    +0.000 OA
ATOM      3  N   UNL     1       3.431   4.940  19.199  0.00  0.00    +0.000 N 
ATOM      4  C   UNL     1       2.274   4.767  19.938  0.00  0.00    +0.000 C 
ATOM      5  O   UNL     1       1.652   3.702  20.009  0.00  0.00    +0.000 OA
ATOM      6  H   UNL     1       3.987   5.770  19.356  0.00  0.00    +0.000 HD
ENDROOT
BRANCH   1  12
ATOM      7  C   UNL     1       6.352   4.737  17.948  0.00  0.00    +0.000 A 
ATOM      8  C   UNL     1       7.349   4.995  16.990  0.00  0.00    +0.000 A 
ATOM      9  C   UNL     1       7.155   4.725  15.642  0.00  0.00    +0.000 A 
ATOM     10  C   UNL     1       5.958   4.173  15.226  0.00  0.00    +0.000 A 
ATOM     11  C   UNL     1       4.954   3.917  16.162  0.00  0.00    +0.000 A 
ATOM     12  C   UNL     1       5.122   4.205  17.532  0.00  0.00    +0.000 A 
BRANCH   7  14
ATOM     13  C   UNL     1       7.843   5.700  19.462  0.00  0.00    +0.000 C 
ATOM     14  O   UNL     1       6.584   5.047  19.268  0.00  0.00    +0.000 OA
ENDBRANCH   7  14
ENDBRANCH   1  12
BRANCH   4  15
ATOM     15  C   UNL     1       1.803   5.967  20.762  0.00  0.00    +0.000 C 
BRANCH  15  16
ATOM     16  S   UNL     1       2.058   7.515  19.810  0.00  0.00    +0.000 S 
BRANCH  16  17
ATOM     17  C   UNL     1       1.012   8.690  20.637  0.00  0.00    +0.000 A 
ATOM     18  C   UNL     1       1.002   8.690  22.032  0.00  0.00    +0.000 A 
ATOM     19  C   UNL     1       0.261   9.641  22.734  0.00  0.00    +0.000 A 
ATOM     20  C   UNL     1      -0.483  10.617  22.056  0.00  0.00    +0.000 A 
ATOM     21  C   UNL     1      -1.252  11.630  22.860  0.00  0.00    +0.000 C 
ATOM     22  C   UNL     1      -0.469  10.634  20.648  0.00  0.00    +0.000 A 
ATOM     23  C   UNL     1      -1.217  11.655  19.834  0.00  0.00    +0.000 C 
ATOM     24  C   UNL     1       0.293   9.673  19.956  0.00  0.00    +0.000 A 
ENDBRANCH  16  17
ENDBRANCH  15  16
ENDBRANCH   4  15
TORSDOF 5
ENDMDL
MODEL 2
REMARK VINA RESULT:      -7.5      2.630      3.909
REMARK  Name = 
REMARK  8 active torsions:
REMARK  status: ('A' for Active; 'I' for Inactive)
REMARK    1  A    between atoms: C_1  and  O_2
REMARK    2  A    between atoms: O_2  and  C_3
REMARK    3  A    between atoms: C_8  and  C_9
REMARK    4  A    between atoms: C_12  and  C_14
REMARK    5  A    between atoms: C_14  and  S_15
REMARK    6  A    between atoms: S_15  and  C_16
REMARK    7  A    between atoms: C_19  and  C_20
REMARK    8  A    between atoms: C_21  and  C_22
REMARK                            x       y       z     vdW  Elec       q    Type
REMARK                         _______ _______ _______ _____ _____    ______ ____
ROOT
ATOM      1  C   UNL     1       3.843   6.348  18.245  0.00  0.00    +0.000 C 
ATOM      2  O   UNL     1       3.723   5.870  19.398  0.00  0.00    +0.000 OA
ATOM      3  N   UNL     1       3.169   7.461  17.833  0.00  0.00    +0.000 N 
ATOM      4  C   UNL     1       2.206   8.072  18.616  0.00  0.00    +0.000 C 
ATOM      5  O   UNL     1       1.926   7.721  19.767  0.00  0.00    +0.000 OA
ATOM      6  H   UNL     1       3.480   7.930  16.993  0.00  0.00    +0.000 HD
ENDROOT
BRANCH   1  12
ATOM      7  C   UNL     1       4.576   4.392  16.739  0.00  0.00    +0.000 A 
ATOM      8  C   UNL     1       5.599   3.815  15.965  0.00  0.00    +0.000 A 
ATOM      9  C   UNL     1       6.813   4.457  15.762  0.00  0.00    +0.000 A 
ATOM     10  C   UNL     1       7.022   5.705  16.321  0.00  0.00    +0.000 A 
ATOM     11  C   UNL     1       6.021   6.289  17.098  0.00  0.00    +0.000 A 
ATOM     12  C   UNL     1       4.790   5.643  17.335  0.00  0.00    +0.000 A 
BRANCH   7  14
ATOM     13  C   UNL     1       3.544   2.633  17.873  0.00  0.00    +0.000 C 
ATOM     14  O   UNL     1       3.402   3.702  16.932  0.00  0.00    +0.000 OA
ENDBRANCH   7  14
ENDBRANCH   1  12
BRANCH   4  15
ATOM     15  C   UNL     1       1.513   9.297  18.016  0.00  0.00    +0.000 C 
BRANCH  15  16
ATOM     16  S   UNL     1       0.641  10.229  19.335  0.00  0.00    +0.000 S 
BRANCH  16  17
ATOM     17  C   UNL     1      -0.958  10.551  18.630  0.00  0.00    +0.000 A 
ATOM     18  C   UNL     1      -1.799  11.443  19.296  0.00  0.00    +0.000 A 
ATOM     19  C   UNL     1      -3.034  11.794  18.748  0.00  0.00    +0.000 A 
ATOM     20  C   UNL     1      -3.453  11.264  17.519  0.00  0.00    +0.000 A 
ATOM     21  C   UNL     1      -4.785  11.687  16.963  0.00  0.00    +0.000 C 
ATOM     22  C   UNL     1      -2.605  10.373  16.833  0.00  0.00    +0.000 A 
ATOM     23  C   UNL     1      -2.957   9.770  15.500  0.00  0.00    +0.000 C 
ATOM     24  C   UNL     1      -1.358  10.037  17.396  0.00  0.00    +0.000 A 
ENDBRANCH  16  17
ENDBRANCH  15  16
ENDBRANCH   4  15
TORSDOF 5
ENDMDL
MODEL 3
REMARK VINA RESULT:      -7.4      4.938      7.987
REMARK  Name = 
REMARK  8 active torsions:
REMARK  status: ('A' for Active; 'I' for Inactive)
REMARK    1  A    between atoms: C_1  and  O_2
REMARK    2  A    between atoms: O_2  and  C_3
REMARK    3  A    between atoms: C_8  and  C_9
REMARK    4  A    between atoms: C_12  and  C_14
REMARK    5  A    between atoms: C_14  and  S_15
REMARK    6  A    between atoms: S_15  and  C_16
REMARK    7  A    between atoms: C_19  and  C_20
REMARK    8  A    between atoms: C_21  and  C_22
REMARK                            x       y       z     vdW  Elec       q    Type
REMARK                         _______ _______ _______ _____ _____    ______ ____
ROOT
ATOM      1  C   UNL     1       8.693   9.713  18.449  0.00  0.00    +0.000 C 
ATOM      2  O   UNL     1       8.157  10.127  17.395  0.00  0.00    +0.000 OA
ATOM      3  N   UNL     1       8.636   8.406  18.842  0.00  0.00    +0.000 N 
ATOM      4  C   UNL     1       7.873   7.467  18.171  0.00  0.00    +0.000 C 
ATOM      5  O   UNL     1       7.247   7.699  17.131  0.00  0.00    +0.000 OA
ATOM      6  H   UNL     1       9.275   8.089  19.559  0.00  0.00    +0.000 HD
ENDROOT
BRANCH   1  12
ATOM      7  C   UNL     1      10.461  11.552  18.794  0.00  0.00    +0.000 A 
ATOM      8  C   UNL     1      11.118  12.406  19.698  0.00  0.00    +0.000 A 
ATOM      9  C   UNL     1      10.762  12.464  21.039  0.00  0.00    +0.000 A 
ATOM     10  C   UNL     1       9.725  11.674  21.501  0.00  0.00    +0.000 A 
ATOM     11  C   UNL     1       9.067  10.816  20.619  0.00  0.00    +0.000 A 
ATOM     12  C   UNL     1       9.428  10.725  19.258  0.00  0.00    +0.000 A 
BRANCH   7  14
ATOM     13  C   UNL     1      11.566  12.702  17.090  0.00  0.00    +0.000 C 
ATOM     14  O   UNL     1      10.870  11.513  17.481  0.00  0.00    +0.000 OA
ENDBRANCH   7  14
ENDBRANCH   1  12
BRANCH   4  15
ATOM     15  C   UNL     1       7.883   6.046  18.738  0.00  0.00    +0.000 C 
BRANCH  15  16
ATOM     16  S   UNL     1       7.130   4.887  17.530  0.00  0.00    +0.000 S 
BRANCH  16  17
ATOM     17  C   UNL     1       5.507   4.594  18.189  0.00  0.00    +0.000 A 
ATOM     18  C   UNL     1       5.038   5.457  19.180  0.00  0.00    +0.000 A 
ATOM     19  C   UNL     1       3.741   5.324  19.679  0.00  0.00    +0.000 A 
ATOM     20  C   UNL     1       2.882   4.327  19.193  0.00  0.00    +0.000 A 
ATOM     21  C   UNL     1       1.488   4.236  19.751  0.00  0.00    +0.000 C 
ATOM     22  C   UNL     1       3.342   3.460  18.183  0.00  0.00    +0.000 A 
ATOM     23  C   UNL     1       2.488   2.375  17.585  0.00  0.00    +0.000 C 
ATOM     24  C   UNL     1       4.651   3.615  17.685  0.00  0.00    +0.000 A 
ENDBRANCH  16  17
ENDBRANCH  15  16
ENDBRANCH   4  15
TORSDOF 5
ENDMDL
MODEL 4
REMARK VINA RESULT:      -7.3      2.251      6.932
REMARK  Name = 
REMARK  8 active torsions:
REMARK  status: ('A' for Active; 'I' for Inactive)
REMARK    1  A    between atoms: C_1  and  O_2
REMARK    2  A    between atoms: O_2  and  C_3
REMARK    3  A    between atoms: C_8  and  C_9
REMARK    4  A    between atoms: C_12  and  C_14
REMARK    5  A    between atoms: C_14  and  S_15
REMARK    6  A    between atoms: S_15  and  C_16
REMARK    7  A    between atoms: C_19  and  C_20
REMARK    8  A    between atoms: C_21  and  C_22
REMARK                            x       y       z     vdW  Elec       q    Type
REMARK                         _______ _______ _______ _____ _____    ______ ____
ROOT
ATOM      1  C   UNL     1       2.227   5.850  20.081  0.00  0.00    +0.000 C 
ATOM      2  O   UNL     1       1.753   5.631  21.221  0.00  0.00    +0.000 OA
ATOM      3  N   UNL     1       2.875   4.892  19.355  0.00  0.00    +0.000 N 
ATOM      4  C   UNL     1       3.169   3.644  19.876  0.00  0.00    +0.000 C 
ATOM      5  O   UNL     1       2.813   3.261  20.995  0.00  0.00    +0.000 OA
ATOM      6  H   UNL     1       3.021   5.052  18.367  0.00  0.00    +0.000 HD
ENDROOT
BRANCH   1  12
ATOM      7  C   UNL     1       1.364   8.273  20.185  0.00  0.00    +0.000 A 
ATOM      8  C   UNL     1       1.182   9.493  19.509  0.00  0.00    +0.000 A 
ATOM      9  C   UNL     1       1.657   9.692  18.219  0.00  0.00    +0.000 A 
ATOM     10  C   UNL     1       2.339   8.672  17.582  0.00  0.00    +0.000 A 
ATOM     11  C   UNL     1       2.522   7.452  18.235  0.00  0.00    +0.000 A 
ATOM     12  C   UNL     1       2.028   7.221  19.536  0.00  0.00    +0.000 A 
BRANCH   7  14
ATOM     13  C   UNL     1       1.222   9.191  22.325  0.00  0.00    +0.000 C 
ATOM     14  O   UNL     1       0.852   8.118  21.452  0.00  0.00    +0.000 OA
ENDBRANCH   7  14
ENDBRANCH   1  12
BRANCH   4  15
ATOM     15  C   UNL     1       3.922   2.680  18.957  0.00  0.00    +0.000 C 
BRANCH  15  16
ATOM     16  S   UNL     1       3.960   3.349  17.248  0.00  0.00    +0.000 S 
BRANCH  16  17
ATOM     17  C   UNL     1       5.167   4.650  17.338  0.00  0.00    +0.000 A 
ATOM     18  C   UNL     1       5.032   5.730  16.465  0.00  0.00    +0.000 A 
ATOM     19  C   UNL     1       5.903   6.817  16.543  0.00  0.00    +0.000 A 
ATOM     20  C   UNL     1       6.926   6.851  17.501  0.00  0.00    +0.000 A 
ATOM     21  C   UNL     1       7.829   8.054  17.556  0.00  0.00    +0.000 C 
ATOM     22  C   UNL     1       7.063   5.773  18.396  0.00  0.00    +0.000 A 
ATOM     23  C   UNL     1       8.115   5.729  19.471  0.00  0.00    +0.000 C 
ATOM     24  C   UNL     1       6.168   4.688  18.309  0.00  0.00    +0.000 A 
ENDBRANCH  16  17
ENDBRANCH  15  16
ENDBRANCH   4  15
TORSDOF 5
ENDMDL
MODEL 5
REMARK VINA RESULT:      -7.2      4.930      7.680
REMARK  Name = 
REMARK  8 active torsions:
REMARK  status: ('A' for Active; 'I' for Inactive)
REMARK    1  A    between atoms: C_1  and  O_2
REMARK    2  A    between atoms: O_2  and  C_3
REMARK    3  A    between atoms: C_8  and  C_9
REMARK    4  A    between atoms: C_12  and  C_14
REMARK    5  A    between atoms: C_14  and  S_15
REMARK    6  A    between atoms: S_15  and  C_16
REMARK    7  A    between atoms: C_19  and  C_20
REMARK    8  A    between atoms: C_21  and  C_22
REMARK                            x       y       z     vdW  Elec       q    Type
REMARK                         _______ _______ _______ _____ _____    ______ ____
ROOT
ATOM      1  C   UNL     1       8.737   9.782  18.482  0.00  0.00    +0.000 C 
ATOM      2  O   UNL     1       8.222  10.185  17.413  0.00  0.00    +0.000 OA
ATOM      3  N   UNL     1       8.688   8.476  18.879  0.00  0.00    +0.000 N 
ATOM      4  C   UNL     1       7.955   7.524  18.193  0.00  0.00    +0.000 C 
ATOM      5  O   UNL     1       7.352   7.743  17.137  0.00  0.00    +0.000 OA
ATOM      6  H   UNL     1       9.313   8.171  19.613  0.00  0.00    +0.000 HD
ENDROOT
BRANCH   1  12
ATOM      7  C   UNL     1      10.497  11.620  18.873  0.00  0.00    +0.000 A 
ATOM      8  C   UNL     1      11.115  12.489  19.791  0.00  0.00    +0.000 A 
ATOM      9  C   UNL     1      10.694  12.577  21.111  0.00  0.00    +0.000 A 
ATOM     10  C   UNL     1       9.632  11.802  21.538  0.00  0.00    +0.000 A 
ATOM     11  C   UNL     1       9.012  10.929  20.643  0.00  0.00    +0.000 A 
ATOM     12  C   UNL     1       9.438  10.807  19.304  0.00  0.00    +0.000 A 
BRANCH   7  14
ATOM     13  C   UNL     1      11.109  12.843  16.984  0.00  0.00    +0.000 C 
ATOM     14  O   UNL     1      10.968  11.551  17.583  0.00  0.00    +0.000 OA
ENDBRANCH   7  14
ENDBRANCH   1  12
BRANCH   4  15
ATOM     15  C   UNL     1       7.970   6.105  18.767  0.00  0.00    +0.000 C 
BRANCH  15  16
ATOM     16  S   UNL     1       7.066   4.969  17.645  0.00  0.00    +0.000 S 
BRANCH  16  17
ATOM     17  C   UNL     1       5.416   4.958  18.304  0.00  0.00    +0.000 A 
ATOM     18  C   UNL     1       5.031   3.870  19.088  0.00  0.00    +0.000 A 
ATOM     19  C   UNL     1       3.776   3.845  19.697  0.00  0.00    +0.000 A 
ATOM     20  C   UNL     1       2.878   4.911  19.540  0.00  0.00    +0.000 A 
ATOM     21  C   UNL     1       1.544   4.843  20.231  0.00  0.00    +0.000 C 
ATOM     22  C   UNL     1       3.262   6.020  18.761  0.00  0.00    +0.000 A 
ATOM     23  C   UNL     1       2.378   7.219  18.553  0.00  0.00    +0.000 C 
ATOM     24  C   UNL     1       4.537   6.033  18.162  0.00  0.00    +0.000 A 
ENDBRANCH  16  17
ENDBRANCH  15  16
ENDBRANCH   4  15
TORSDOF 5
ENDMDL
MODEL 6
REMARK VINA RESULT:      -7.2      0.893      1.612
REMARK  Name = 
REMARK  8 active torsions:
REMARK  status: ('A' for Active; 'I' for Inactive)
REMARK    1  A    between atoms: C_1  and  O_2
REMARK    2  A    between atoms: O_2  and  C_3
REMARK    3  A    between atoms: C_8  and  C_9
REMARK    4  A    between atoms: C_12  and  C_14
REMARK    5  A    between atoms: C_14  and  S_15
REMARK    6  A    between atoms: S_15  and  C_16
REMARK    7  A    between atoms: C_19  and  C_20
REMARK    8  A    between atoms: C_21  and  C_22
REMARK                            x       y       z     vdW  Elec       q    Type
REMARK                         _______ _______ _______ _____ _____    ______ ____
ROOT
ATOM      1  C   UNL     1       4.380   3.986  17.868  0.00  0.00    +0.000 C 
ATOM      2  O   UNL     1       4.093   2.788  18.103  0.00  0.00    +0.000 OA
ATOM      3  N   UNL     1       3.819   5.027  18.551  0.00  0.00    +0.000 N 
ATOM      4  C   UNL     1       2.798   4.843  19.467  0.00  0.00    +0.000 C 
ATOM      5  O   UNL     1       2.360   3.738  19.802  0.00  0.00    +0.000 OA
ATOM      6  H   UNL     1       4.256   5.937  18.487  0.00  0.00    +0.000 HD
ENDROOT
BRANCH   1  12
ATOM      7  C   UNL     1       6.721   4.632  17.013  0.00  0.00    +0.000 A 
ATOM      8  C   UNL     1       7.543   4.897  15.903  0.00  0.00    +0.000 A 
ATOM      9  C   UNL     1       7.081   4.752  14.601  0.00  0.00    +0.000 A 
ATOM     10  C   UNL     1       5.784   4.323  14.384  0.00  0.00    +0.000 A 
ATOM     11  C   UNL     1       4.953   4.063  15.475  0.00  0.00    +0.000 A 
ATOM     12  C   UNL     1       5.395   4.225  16.805  0.00  0.00    +0.000 A 
BRANCH   7  14
ATOM     13  C   UNL     1       7.642   6.164  18.513  0.00  0.00    +0.000 C 
ATOM     14  O   UNL     1       7.218   4.816  18.282  0.00  0.00    +0.000 OA
ENDBRANCH   7  14
ENDBRANCH   1  12
BRANCH   4  15
ATOM     15  C   UNL     1       2.248   6.103  20.140  0.00  0.00    +0.000 C 
BRANCH  15  16
ATOM     16  S   UNL     1       2.269   7.503  18.953  0.00  0.00    +0.000 S 
BRANCH  16  17
ATOM     17  C   UNL     1       1.323   8.761  19.777  0.00  0.00    +0.000 A 
ATOM     18  C   UNL     1       0.811   9.805  19.006  0.00  0.00    +0.000 A 
ATOM     19  C   UNL     1      -0.005  10.779  19.585  0.00  0.00    +0.000 A 
ATOM     20  C   UNL     1      -0.330  10.726  20.948  0.00  0.00    +0.000 A 
ATOM     21  C   UNL     1      -1.226  11.790  21.521  0.00  0.00    +0.000 C 
ATOM     22  C   UNL     1       0.172   9.669  21.732  0.00  0.00    +0.000 A 
ATOM     23  C   UNL     1      -0.140   9.517  23.196  0.00  0.00    +0.000 C 
ATOM     24  C   UNL     1       0.985   8.690  21.129  0.00  0.00    +0.000 A 
ENDBRANCH  16  17
ENDBRANCH  15  16
ENDBRANCH   4  15
TORSDOF 5
ENDMDL
MODEL 7
REMARK VINA RESULT:      -7.2      1.355      2.289
REMARK  Name = 
REMARK  8 active torsions:
REMARK  status: ('A' for Active; 'I' for Inactive)
REMARK    1  A    between atoms: C_1  and  O_2
REMARK    2  A    between atoms: O_2  and  C_3
REMARK    3  A    between atoms: C_8  and  C_9
REMARK    4  A    between atoms: C_12  and  C_14
REMARK    5  A    between atoms: C_14  and  S_15
REMARK    6  A    between atoms: S_15  and  C_16
REMARK    7  A    between atoms: C_19  and  C_20
REMARK    8  A    between atoms: C_21  and  C_22
REMARK                            x       y       z     vdW  Elec       q    Type
REMARK                         _______ _______ _______ _____ _____    ______ ____
ROOT
ATOM      1  C   UNL     1       4.057   3.171  17.640  0.00  0.00    +0.000 C 
ATOM      2  O   UNL     1       3.976   1.929  17.490  0.00  0.00    +0.000 OA
ATOM      3  N   UNL     1       3.189   3.878  18.422  0.00  0.00    +0.000 N 
ATOM      4  C   UNL     1       2.078   3.294  19.006  0.00  0.00    +0.000 C 
ATOM      5  O   UNL     1       1.816   2.089  18.939  0.00  0.00    +0.000 OA
ATOM      6  H   UNL     1       3.441   4.819  18.693  0.00  0.00    +0.000 HD
ENDROOT
BRANCH   1  12
ATOM      7  C   UNL     1       6.127   4.698  17.519  0.00  0.00    +0.000 A 
ATOM      8  C   UNL     1       7.081   5.333  16.704  0.00  0.00    +0.000 A 
ATOM      9  C   UNL     1       7.119   5.132  15.331  0.00  0.00    +0.000 A 
ATOM     10  C   UNL     1       6.207   4.274  14.745  0.00  0.00    +0.000 A 
ATOM     11  C   UNL     1       5.248   3.641  15.537  0.00  0.00    +0.000 A 
ATOM     12  C   UNL     1       5.177   3.849  16.931  0.00  0.00    +0.000 A 
BRANCH   7  14
ATOM     13  C   UNL     1       7.292   5.637  19.309  0.00  0.00    +0.000 C 
ATOM     14  O   UNL     1       6.115   4.951  18.871  0.00  0.00    +0.000 OA
ENDBRANCH   7  14
ENDBRANCH   1  12
BRANCH   4  15
ATOM     15  C   UNL     1       1.180   4.213  19.836  0.00  0.00    +0.000 C 
BRANCH  15  16
ATOM     16  S   UNL     1       2.210   5.283  20.915  0.00  0.00    +0.000 S 
BRANCH  16  17
ATOM     17  C   UNL     1       1.915   6.917  20.283  0.00  0.00    +0.000 A 
ATOM     18  C   UNL     1       2.304   7.192  18.972  0.00  0.00    +0.000 A 
ATOM     19  C   UNL     1       2.027   8.434  18.397  0.00  0.00    +0.000 A 
ATOM     20  C   UNL     1       1.349   9.426  19.120  0.00  0.00    +0.000 A 
ATOM     21  C   UNL     1       1.059  10.741  18.449  0.00  0.00    +0.000 C 
ATOM     22  C   UNL     1       0.940   9.153  20.440  0.00  0.00    +0.000 A 
ATOM     23  C   UNL     1       0.190  10.146  21.286  0.00  0.00    +0.000 C 
ATOM     24  C   UNL     1       1.220   7.892  21.001  0.00  0.00    +0.000 A 
ENDBRANCH  16  17
ENDBRANCH  15  16
ENDBRANCH   4  15
TORSDOF 5
ENDMDL
MODEL 8
REMARK VINA RESULT:      -7.2      2.600      4.176
REMARK  Name = 
REMARK  8 active torsions:
REMARK  status: ('A' for Active; 'I' for Inactive)
REMARK    1  A    between atoms: C_1  and  O_2
REMARK    2  A    between atoms: O_2  and  C_3
REMARK    3  A    between atoms: C_8  and  C_9
REMARK    4  A    between atoms: C_12  and  C_14
REMARK    5  A    between atoms: C_14  and  S_15
REMARK    6  A    between atoms: S_15  and  C_16
REMARK    7  A    between atoms: C_19  and  C_20
REMARK    8  A    between atoms: C_21  and  C_22
REMARK                            x       y       z     vdW  Elec       q    Type
REMARK                         _______ _______ _______ _____ _____    ______ ____
ROOT
ATOM      1  C   UNL     1       2.164   5.977  19.468  0.00  0.00    +0.000 C 
ATOM      2  O   UNL     1       1.884   5.980  20.691  0.00  0.00    +0.000 OA
ATOM      3  N   UNL     1       2.172   7.112  18.710  0.00  0.00    +0.000 N 
ATOM      4  C   UNL     1       1.748   8.333  19.205  0.00  0.00    +0.000 C 
ATOM      5  O   UNL     1       1.403   8.522  20.376  0.00  0.00    +0.000 OA
ATOM      6  H   UNL     1       2.628   7.087  17.808  0.00  0.00    +0.000 HD
ENDROOT
BRANCH   1  12
ATOM      7  C   UNL     1       3.708   4.349  18.206  0.00  0.00    +0.000 A 
ATOM      8  C   UNL     1       3.864   3.076  17.626  0.00  0.00    +0.000 A 
ATOM      9  C   UNL     1       2.873   2.108  17.712  0.00  0.00    +0.000 A 
ATOM     10  C   UNL     1       1.704   2.391  18.395  0.00  0.00    +0.000 A 
ATOM     11  C   UNL     1       1.530   3.650  18.970  0.00  0.00    +0.000 A 
ATOM     12  C   UNL     1       2.514   4.656  18.876  0.00  0.00    +0.000 A 
BRANCH   7  14
ATOM     13  C   UNL     1       5.862   4.964  18.859  0.00  0.00    +0.000 C 
ATOM     14  O   UNL     1       4.709   5.282  18.071  0.00  0.00    +0.000 OA
ENDBRANCH   7  14
ENDBRANCH   1  12
BRANCH   4  15
ATOM     15  C   UNL     1       1.788   9.515  18.234  0.00  0.00    +0.000 C 
BRANCH  15  16
ATOM     16  S   UNL     1       1.115  11.015  19.051  0.00  0.00    +0.000 S 
BRANCH  16  17
ATOM     17  C   UNL     1      -0.609  10.985  18.621  0.00  0.00    +0.000 A 
ATOM     18  C   UNL     1      -1.482  11.782  19.362  0.00  0.00    +0.000 A 
ATOM     19  C   UNL     1      -2.833  11.859  19.020  0.00  0.00    +0.000 A 
ATOM     20  C   UNL     1      -3.339  11.145  17.925  0.00  0.00    +0.000 A 
ATOM     21  C   UNL     1      -4.800  11.275  17.587  0.00  0.00    +0.000 C 
ATOM     22  C   UNL     1      -2.463  10.348  17.162  0.00  0.00    +0.000 A 
ATOM     23  C   UNL     1      -2.909   9.564  15.958  0.00  0.00    +0.000 C 
ATOM     24  C   UNL     1      -1.101  10.290  17.516  0.00  0.00    +0.000 A 
ENDBRANCH  16  17
ENDBRANCH  15  16
ENDBRANCH   4  15
TORSDOF 5
ENDMDL
MODEL 9
REMARK VINA RESULT:      -7.2      1.139      1.925
REMARK  Name = 
REMARK  8 active torsions:
REMARK  status: ('A' for Active; 'I' for Inactive)
REMARK    1  A    between atoms: C_1  and  O_2
REMARK    2  A    between atoms: O_2  and  C_3
REMARK    3  A    between atoms: C_8  and  C_9
REMARK    4  A    between atoms: C_12  and  C_14
REMARK    5  A    between atoms: C_14  and  S_15
REMARK    6  A    between atoms: S_15  and  C_16
REMARK    7  A    between atoms: C_19  and  C_20
REMARK    8  A    between atoms: C_21  and  C_22
REMARK                            x       y       z     vdW  Elec       q    Type
REMARK                         _______ _______ _______ _____ _____    ______ ____
ROOT
ATOM      1  C   UNL     1       4.003   4.683  18.498  0.00  0.00    +0.000 C 
ATOM      2  O   UNL     1       3.571   3.599  18.956  0.00  0.00    +0.000 OA
ATOM      3  N   UNL     1       3.540   5.898  18.917  0.00  0.00    +0.000 N 
ATOM      4  C   UNL     1       2.470   6.019  19.786  0.00  0.00    +0.000 C 
ATOM      5  O   UNL     1       1.895   5.061  20.313  0.00  0.00    +0.000 OA
ATOM      6  H   UNL     1       4.081   6.723  18.695  0.00  0.00    +0.000 HD
ENDROOT
BRANCH   1  12
ATOM      7  C   UNL     1       6.459   4.577  17.730  0.00  0.00    +0.000 A 
ATOM      8  C   UNL     1       7.360   4.561  16.651  0.00  0.00    +0.000 A 
ATOM      9  C   UNL     1       6.922   4.537  15.333  0.00  0.00    +0.000 A 
ATOM     10  C   UNL     1       5.565   4.514  15.070  0.00  0.00    +0.000 A 
ATOM     11  C   UNL     1       4.656   4.538  16.129  0.00  0.00    +0.000 A 
ATOM     12  C   UNL     1       5.079   4.585  17.474  0.00  0.00    +0.000 A 
BRANCH   7  14
ATOM     13  C   UNL     1       7.701   5.815  19.269  0.00  0.00    +0.000 C 
ATOM     14  O   UNL     1       6.943   4.627  19.017  0.00  0.00    +0.000 OA
ENDBRANCH   7  14
ENDBRANCH   1  12
BRANCH   4  15
ATOM     15  C   UNL     1       2.043   7.443  20.150  0.00  0.00    +0.000 C 
BRANCH  15  16
ATOM     16  S   UNL     1       1.990   8.483  18.639  0.00  0.00    +0.000 S 
BRANCH  16  17
ATOM     17  C   UNL     1       0.728   9.680  19.001  0.00  0.00    +0.000 A 
ATOM     18  C   UNL     1      -0.214   9.958  18.011  0.00  0.00    +0.000 A 
ATOM     19  C   UNL     1      -1.274  10.830  18.266  0.00  0.00    +0.000 A 
ATOM     20  C   UNL     1      -1.417  11.439  19.522  0.00  0.00    +0.000 A 
ATOM     21  C   UNL     1      -2.586  12.358  19.752  0.00  0.00    +0.000 C 
ATOM     22  C   UNL     1      -0.479  11.154  20.533  0.00  0.00    +0.000 A 
ATOM     23  C   UNL     1      -0.562  11.742  21.915  0.00  0.00    +0.000 C 
ATOM     24  C   UNL     1       0.579  10.264  20.260  0.00  0.00    +0.000 A 
ENDBRANCH  16  17
ENDBRANCH  15  16
ENDBRANCH   4  15
TORSDOF 5
ENDMDL
