MODEL 1
REMARK VINA RESULT:      -9.4      0.000      0.000
REMARK  Name = 
REMARK  3 active torsions:
REMARK  status: ('A' for Active; 'I' for Inactive)
REMARK    1  A    between atoms: C_2  and  C_20
REMARK    2  A    between atoms: N_3  and  C_4
REMARK    3  A    between atoms: C_6  and  C_7
REMARK                            x       y       z     vdW  Elec       q    Type
REMARK                         _______ _______ _______ _____ _____    ______ ____
ROOT
ATOM      1  C   UNL     1       3.042   6.253  18.877  0.00  0.00    +0.000 A 
ATOM      2  C   UNL     1       3.777   6.249  17.623  0.00  0.00    +0.000 A 
ATOM      3  C   UNL     1       4.469   5.076  17.118  0.00  0.00    +0.000 A 
ATOM      4  C   UNL     1       4.412   3.912  17.913  0.00  0.00    +0.000 A 
ATOM      5  C   UNL     1       3.729   3.894  19.127  0.00  0.00    +0.000 A 
ATOM      6  C   UNL     1       3.065   5.038  19.597  0.00  0.00    +0.000 A 
ATOM      7 CL   UNL     1       2.240   4.892  21.116  0.00  0.00    +0.000 Cl
ENDROOT
BRANCH   3   8
ATOM      8  C   UNL     1       5.252   4.906  15.837  0.00  0.00    +0.000 A 
ATOM      9  N   UNL     1       6.343   5.594  15.482  0.00  0.00    +0.000 NA
ATOM     10  C   UNL     1       6.711   5.090  14.255  0.00  0.00    +0.000 A 
ATOM     11  C   UNL     1       7.781   5.393  13.386  0.00  0.00    +0.000 A 
ATOM     12  C   UNL     1       7.902   4.683  12.180  0.00  0.00    +0.000 A 
ATOM     13  C   UNL     1       6.968   3.693  11.842  0.00  0.00    +0.000 A 
ATOM     14  C   UNL     1       5.898   3.388  12.698  0.00  0.00    +0.000 A 
ATOM     15  C   UNL     1       5.809   4.101  13.890  0.00  0.00    +0.000 A 
ATOM     16  O   UNL     1       4.878   3.968  14.907  0.00  0.00    +0.000 OA
ENDBRANCH   3   8
BRANCH   1  19
ATOM     17  O   UNL     1       1.771   8.569  17.704  0.00  0.00    +0.000 OA
ATOM     18  C   UNL     1       1.714   8.484  18.938  0.00  0.00    +0.000 C 
ATOM     19  N   UNL     1       2.279   7.361  19.531  0.00  0.00    +0.000 N 
ATOM     20  H   UNL     1       2.140   7.233  20.527  0.00  0.00    +0.000 HD
BRANCH  18  21
ATOM     21  C   UNL     1       1.111   9.754  19.700  0.00  0.00    +0.000 A 
ATOM     22  C   UNL     1       1.207  10.810  18.780  0.00  0.00    +0.000 A 
ATOM     23  C   UNL     1       0.975  12.104  19.154  0.00  0.00    +0.000 A 
ATOM     24  C   UNL     1      -0.241  12.215  19.767  0.00  0.00    +0.000 A 
ATOM     25  C   UNL     1      -0.481  11.323  20.812  0.00  0.00    +0.000 A 
ATOM     26  C   UNL     1      -1.484  11.728  21.734  0.00  0.00    +0.000 A 
ATOM     27 CL   UNL     1      -2.696  12.931  21.388  0.00  0.00    +0.000 Cl
ATOM     28  C   UNL     1      -1.522  11.196  23.020  0.00  0.00    +0.000 A 
ATOM     29  C   UNL     1      -0.604  10.197  23.322  0.00  0.00    +0.000 A 
ATOM     30  C   UNL     1       0.248   9.634  22.312  0.00  0.00    +0.000 A 
ATOM     31  C   UNL     1       0.351  10.138  20.951  0.00  0.00    +0.000 A 
ENDBRANCH  18  21
ENDBRANCH   1  19
TORSDOF 3
ENDMDL
MODEL 2
REMARK VINA RESULT:      -9.2      0.598      1.072
REMARK  Name = 
REMARK  3 active torsions:
REMARK  status: ('A' for Active; 'I' for Inactive)
REMARK    1  A    between atoms: C_2  and  C_20
REMARK    2  A    between atoms: N_3  and  C_4
REMARK    3  A    between atoms: C_6  and  C_7
REMARK                            x       y       z     vdW  Elec       q    Type
REMARK                         _______ _______ _______ _____ _____    ______ ____
ROOT
ATOM      1  C   UNL     1       3.054   6.146  18.889  0.00  0.00    +0.000 A 
ATOM      2  C   UNL     1       3.761   6.118  17.620  0.00  0.00    +0.000 A 
ATOM      3  C   UNL     1       4.457   4.941  17.130  0.00  0.00    +0.000 A 
ATOM      4  C   UNL     1       4.432   3.797  17.956  0.00  0.00    +0.000 A 
ATOM      5  C   UNL     1       3.776   3.803  19.185  0.00  0.00    +0.000 A 
ATOM      6  C   UNL     1       3.108   4.950  19.639  0.00  0.00    +0.000 A 
ATOM      7 CL   UNL     1       2.319   4.833  21.180  0.00  0.00    +0.000 Cl
ENDROOT
BRANCH   3   8
ATOM      8  C   UNL     1       5.213   4.747  15.837  0.00  0.00    +0.000 A 
ATOM      9  N   UNL     1       4.946   3.834  14.895  0.00  0.00    +0.000 NA
ATOM     10  C   UNL     1       5.881   4.044  13.905  0.00  0.00    +0.000 A 
ATOM     11  C   UNL     1       6.103   3.418  12.661  0.00  0.00    +0.000 A 
ATOM     12  C   UNL     1       7.151   3.873  11.846  0.00  0.00    +0.000 A 
ATOM     13  C   UNL     1       7.971   4.930  12.267  0.00  0.00    +0.000 A 
ATOM     14  C   UNL     1       7.761   5.557  13.506  0.00  0.00    +0.000 A 
ATOM     15  C   UNL     1       6.708   5.091  14.287  0.00  0.00    +0.000 A 
ATOM     16  O   UNL     1       6.276   5.556  15.519  0.00  0.00    +0.000 OA
ENDBRANCH   3   8
BRANCH   1  19
ATOM     17  O   UNL     1       1.875   8.504  17.705  0.00  0.00    +0.000 OA
ATOM     18  C   UNL     1       1.772   8.404  18.934  0.00  0.00    +0.000 C 
ATOM     19  N   UNL     1       2.291   7.261  19.532  0.00  0.00    +0.000 N 
ATOM     20  H   UNL     1       2.113   7.122  20.519  0.00  0.00    +0.000 HD
BRANCH  18  21
ATOM     21  C   UNL     1       1.168   9.676  19.692  0.00  0.00    +0.000 A 
ATOM     22  C   UNL     1       1.258  10.728  18.767  0.00  0.00    +0.000 A 
ATOM     23  C   UNL     1       1.024  12.023  19.135  0.00  0.00    +0.000 A 
ATOM     24  C   UNL     1      -0.190  12.133  19.754  0.00  0.00    +0.000 A 
ATOM     25  C   UNL     1      -0.423  11.246  20.803  0.00  0.00    +0.000 A 
ATOM     26  C   UNL     1      -1.423  11.653  21.728  0.00  0.00    +0.000 A 
ATOM     27 CL   UNL     1      -2.640  12.851  21.381  0.00  0.00    +0.000 Cl
ATOM     28  C   UNL     1      -1.454  11.128  23.017  0.00  0.00    +0.000 A 
ATOM     29  C   UNL     1      -0.533  10.132  23.320  0.00  0.00    +0.000 A 
ATOM     30  C   UNL     1       0.317   9.567  22.308  0.00  0.00    +0.000 A 
ATOM     31  C   UNL     1       0.413  10.064  20.945  0.00  0.00    +0.000 A 
ENDBRANCH  18  21
ENDBRANCH   1  19
TORSDOF 3
ENDMDL
MODEL 3
REMARK VINA RESULT:      -9.1      3.408     10.099
REMARK  Name = 
REMARK  3 active torsions:
REMARK  status: ('A' for Active; 'I' for Inactive)
REMARK    1  A    between atoms: C_2  and  C_20
REMARK    2  A    between atoms: N_3  and  C_4
REMARK    3  A    between atoms: C_6  and  C_7
REMARK                            x       y       z     vdW  Elec       q    Type
REMARK                         _______ _______ _______ _____ _____    ______ ____
ROOT
ATOM      1  C   UNL     1       0.774  10.476  20.872  0.00  0.00    +0.000 A 
ATOM      2  C   UNL     1       0.983  11.700  20.118  0.00  0.00    +0.000 A 
ATOM      3  C   UNL     1       0.237  12.921  20.370  0.00  0.00    +0.000 A 
ATOM      4  C   UNL     1      -0.732  12.874  21.395  0.00  0.00    +0.000 A 
ATOM      5  C   UNL     1      -0.964  11.708  22.122  0.00  0.00    +0.000 A 
ATOM      6  C   UNL     1      -0.231  10.540  21.863  0.00  0.00    +0.000 A 
ATOM      7 CL   UNL     1      -0.601   9.155  22.841  0.00  0.00    +0.000 Cl
ENDROOT
BRANCH   3   8
ATOM      8  C   UNL     1       0.350  14.267  19.694  0.00  0.00    +0.000 A 
ATOM      9  N   UNL     1       1.472  14.821  19.221  0.00  0.00    +0.000 NA
ATOM     10  C   UNL     1       1.087  16.029  18.685  0.00  0.00    +0.000 A 
ATOM     11  C   UNL     1       1.808  17.050  18.030  0.00  0.00    +0.000 A 
ATOM     12  C   UNL     1       1.119  18.186  17.575  0.00  0.00    +0.000 A 
ATOM     13  C   UNL     1      -0.262  18.307  17.776  0.00  0.00    +0.000 A 
ATOM     14  C   UNL     1      -0.988  17.298  18.430  0.00  0.00    +0.000 A 
ATOM     15  C   UNL     1      -0.281  16.180  18.862  0.00  0.00    +0.000 A 
ATOM     16  O   UNL     1      -0.763  15.046  19.496  0.00  0.00    +0.000 OA
ENDBRANCH   3   8
BRANCH   1  19
ATOM     17  O   UNL     1       1.671   9.077  18.507  0.00  0.00    +0.000 OA
ATOM     18  C   UNL     1       1.834   8.487  19.583  0.00  0.00    +0.000 C 
ATOM     19  N   UNL     1       1.452   9.149  20.744  0.00  0.00    +0.000 N 
ATOM     20  H   UNL     1       1.683   8.718  21.632  0.00  0.00    +0.000 HD
BRANCH  18  21
ATOM     21  C   UNL     1       2.344   6.974  19.481  0.00  0.00    +0.000 A 
ATOM     22  C   UNL     1       1.676   6.295  20.513  0.00  0.00    +0.000 A 
ATOM     23  C   UNL     1       2.018   5.019  20.863  0.00  0.00    +0.000 A 
ATOM     24  C   UNL     1       2.004   4.201  19.769  0.00  0.00    +0.000 A 
ATOM     25  C   UNL     1       2.730   4.647  18.665  0.00  0.00    +0.000 A 
ATOM     26  C   UNL     1       3.115   3.633  17.745  0.00  0.00    +0.000 A 
ATOM     27 CL   UNL     1       2.359   2.067  17.651  0.00  0.00    +0.000 Cl
ATOM     28  C   UNL     1       4.181   3.835  16.873  0.00  0.00    +0.000 A 
ATOM     29  C   UNL     1       4.780   5.089  16.879  0.00  0.00    +0.000 A 
ATOM     30  C   UNL     1       4.233   6.174  17.645  0.00  0.00    +0.000 A 
ATOM     31  C   UNL     1       3.129   6.043  18.583  0.00  0.00    +0.000 A 
ENDBRANCH  18  21
ENDBRANCH   1  19
TORSDOF 3
ENDMDL
MODEL 4
REMARK VINA RESULT:      -9.1      3.430     10.112
REMARK  Name = 
REMARK  3 active torsions:
REMARK  status: ('A' for Active; 'I' for Inactive)
REMARK    1  A    between atoms: C_2  and  C_20
REMARK    2  A    between atoms: N_3  and  C_4
REMARK    3  A    between atoms: C_6  and  C_7
REMARK                            x       y       z     vdW  Elec       q    Type
REMARK                         _______ _______ _______ _____ _____    ______ ____
ROOT
ATOM      1  C   UNL     1       0.801  10.533  20.914  0.00  0.00    +0.000 A 
ATOM      2  C   UNL     1       0.920  11.740  20.114  0.00  0.00    +0.000 A 
ATOM      3  C   UNL     1       0.183  12.958  20.406  0.00  0.00    +0.000 A 
ATOM      4  C   UNL     1      -0.685  12.924  21.518  0.00  0.00    +0.000 A 
ATOM      5  C   UNL     1      -0.830  11.774  22.292  0.00  0.00    +0.000 A 
ATOM      6  C   UNL     1      -0.107  10.609  21.993  0.00  0.00    +0.000 A 
ATOM      7 CL   UNL     1      -0.364   9.245  23.034  0.00  0.00    +0.000 Cl
ENDROOT
BRANCH   3   8
ATOM      8  C   UNL     1       0.211  14.287  19.690  0.00  0.00    +0.000 A 
ATOM      9  N   UNL     1      -0.842  15.078  19.451  0.00  0.00    +0.000 NA
ATOM     10  C   UNL     1      -0.334  16.175  18.792  0.00  0.00    +0.000 A 
ATOM     11  C   UNL     1      -0.940  17.349  18.297  0.00  0.00    +0.000 A 
ATOM     12  C   UNL     1      -0.139  18.316  17.667  0.00  0.00    +0.000 A 
ATOM     13  C   UNL     1       1.240  18.112  17.525  0.00  0.00    +0.000 A 
ATOM     14  C   UNL     1       1.851  16.944  18.010  0.00  0.00    +0.000 A 
ATOM     15  C   UNL     1       1.035  16.010  18.638  0.00  0.00    +0.000 A 
ATOM     16  O   UNL     1       1.393  14.807  19.225  0.00  0.00    +0.000 OA
ENDBRANCH   3   8
BRANCH   1  19
ATOM     17  O   UNL     1       1.505   9.092  18.509  0.00  0.00    +0.000 OA
ATOM     18  C   UNL     1       1.771   8.528  19.579  0.00  0.00    +0.000 C 
ATOM     19  N   UNL     1       1.484   9.212  20.755  0.00  0.00    +0.000 N 
ATOM     20  H   UNL     1       1.799   8.804  21.627  0.00  0.00    +0.000 HD
BRANCH  18  21
ATOM     21  C   UNL     1       2.291   7.021  19.464  0.00  0.00    +0.000 A 
ATOM     22  C   UNL     1       1.627   6.328  20.489  0.00  0.00    +0.000 A 
ATOM     23  C   UNL     1       1.977   5.051  20.829  0.00  0.00    +0.000 A 
ATOM     24  C   UNL     1       1.971   4.243  19.728  0.00  0.00    +0.000 A 
ATOM     25  C   UNL     1       2.694   4.703  18.629  0.00  0.00    +0.000 A 
ATOM     26  C   UNL     1       3.087   3.700  17.700  0.00  0.00    +0.000 A 
ATOM     27 CL   UNL     1       2.342   2.129  17.592  0.00  0.00    +0.000 Cl
ATOM     28  C   UNL     1       4.153   3.916  16.831  0.00  0.00    +0.000 A 
ATOM     29  C   UNL     1       4.743   5.175  16.849  0.00  0.00    +0.000 A 
ATOM     30  C   UNL     1       4.188   6.249  17.623  0.00  0.00    +0.000 A 
ATOM     31  C   UNL     1       3.083   6.103  18.559  0.00  0.00    +0.000 A 
ENDBRANCH  18  21
ENDBRANCH   1  19
TORSDOF 3
ENDMDL
MODEL 5
REMARK VINA RESULT:      -9.0      3.484      9.739
REMARK  Name = 
REMARK  3 active torsions:
REMARK  status: ('A' for Active; 'I' for Inactive)
REMARK    1  A    between atoms: C_2  and  C_20
REMARK    2  A    between atoms: N_3  and  C_4
REMARK    3  A    between atoms: C_6  and  C_7
REMARK                            x       y       z     vdW  Elec       q    Type
REMARK                         _______ _______ _______ _____ _____    ______ ____
ROOT
ATOM      1  C   UNL     1       0.826  10.121  20.636  0.00  0.00    +0.000 A 
ATOM      2  C   UNL     1       1.070  11.347  19.894  0.00  0.00    +0.000 A 
ATOM      3  C   UNL     1       0.418  12.606  20.212  0.00  0.00    +0.000 A 
ATOM      4  C   UNL     1      -0.495  12.595  21.288  0.00  0.00    +0.000 A 
ATOM      5  C   UNL     1      -0.759  11.430  22.005  0.00  0.00    +0.000 A 
ATOM      6  C   UNL     1      -0.116  10.225  21.683  0.00  0.00    +0.000 A 
ATOM      7 CL   UNL     1      -0.519   8.844  22.653  0.00  0.00    +0.000 Cl
ENDROOT
BRANCH   3   8
ATOM      8  C   UNL     1       0.578  13.957  19.556  0.00  0.00    +0.000 A 
ATOM      9  N   UNL     1       1.734  14.529  19.199  0.00  0.00    +0.000 NA
ATOM     10  C   UNL     1       1.387  15.735  18.633  0.00  0.00    +0.000 A 
ATOM     11  C   UNL     1       2.154  16.770  18.058  0.00  0.00    +0.000 A 
ATOM     12  C   UNL     1       1.498  17.898  17.541  0.00  0.00    +0.000 A 
ATOM     13  C   UNL     1       0.101  17.999  17.604  0.00  0.00    +0.000 A 
ATOM     14  C   UNL     1      -0.671  16.977  18.179  0.00  0.00    +0.000 A 
ATOM     15  C   UNL     1       0.006  15.866  18.673  0.00  0.00    +0.000 A 
ATOM     16  O   UNL     1      -0.520  14.722  19.251  0.00  0.00    +0.000 OA
ENDBRANCH   3   8
BRANCH   1  19
ATOM     17  O   UNL     1       1.915   8.892  18.258  0.00  0.00    +0.000 OA
ATOM     18  C   UNL     1       1.891   8.184  19.273  0.00  0.00    +0.000 C 
ATOM     19  N   UNL     1       1.412   8.758  20.445  0.00  0.00    +0.000 N 
ATOM     20  H   UNL     1       1.491   8.221  21.301  0.00  0.00    +0.000 HD
BRANCH  18  21
ATOM     21  C   UNL     1       2.292   6.650  19.067  0.00  0.00    +0.000 A 
ATOM     22  C   UNL     1       3.321   6.667  18.112  0.00  0.00    +0.000 A 
ATOM     23  C   UNL     1       3.775   5.516  17.532  0.00  0.00    +0.000 A 
ATOM     24  C   UNL     1       4.128   4.606  18.488  0.00  0.00    +0.000 A 
ATOM     25  C   UNL     1       3.173   4.349  19.470  0.00  0.00    +0.000 A 
ATOM     26  C   UNL     1       3.321   3.109  20.149  0.00  0.00    +0.000 A 
ATOM     27 CL   UNL     1       4.802   2.191  20.186  0.00  0.00    +0.000 Cl
ATOM     28  C   UNL     1       2.241   2.525  20.805  0.00  0.00    +0.000 A 
ATOM     29  C   UNL     1       1.054   3.248  20.843  0.00  0.00    +0.000 A 
ATOM     30  C   UNL     1       0.985   4.598  20.356  0.00  0.00    +0.000 A 
ATOM     31  C   UNL     1       2.065   5.274  19.654  0.00  0.00    +0.000 A 
ENDBRANCH  18  21
ENDBRANCH   1  19
TORSDOF 3
ENDMDL
MODEL 6
REMARK VINA RESULT:      -8.9      3.491      9.737
REMARK  Name = 
REMARK  3 active torsions:
REMARK  status: ('A' for Active; 'I' for Inactive)
REMARK    1  A    between atoms: C_2  and  C_20
REMARK    2  A    between atoms: N_3  and  C_4
REMARK    3  A    between atoms: C_6  and  C_7
REMARK                            x       y       z     vdW  Elec       q    Type
REMARK                         _______ _______ _______ _____ _____    ______ ____
ROOT
ATOM      1  C   UNL     1       0.813  10.090  20.668  0.00  0.00    +0.000 A 
ATOM      2  C   UNL     1       1.001  11.309  19.900  0.00  0.00    +0.000 A 
ATOM      3  C   UNL     1       0.345  12.561  20.232  0.00  0.00    +0.000 A 
ATOM      4  C   UNL     1      -0.514  12.552  21.351  0.00  0.00    +0.000 A 
ATOM      5  C   UNL     1      -0.725  11.393  22.095  0.00  0.00    +0.000 A 
ATOM      6  C   UNL     1      -0.080  10.193  21.758  0.00  0.00    +0.000 A 
ATOM      7 CL   UNL     1      -0.414   8.820  22.764  0.00  0.00    +0.000 Cl
ENDROOT
BRANCH   3   8
ATOM      8  C   UNL     1       0.452  13.906  19.552  0.00  0.00    +0.000 A 
ATOM      9  N   UNL     1      -0.563  14.733  19.275  0.00  0.00    +0.000 NA
ATOM     10  C   UNL     1       0.012  15.829  18.672  0.00  0.00    +0.000 A 
ATOM     11  C   UNL     1      -0.531  17.033  18.174  0.00  0.00    +0.000 A 
ATOM     12  C   UNL     1       0.331  17.989  17.614  0.00  0.00    +0.000 A 
ATOM     13  C   UNL     1       1.710  17.747  17.543  0.00  0.00    +0.000 A 
ATOM     14  C   UNL     1       2.259  16.551  18.032  0.00  0.00    +0.000 A 
ATOM     15  C   UNL     1       1.382  15.627  18.591  0.00  0.00    +0.000 A 
ATOM     16  O   UNL     1       1.673  14.400  19.166  0.00  0.00    +0.000 OA
ENDBRANCH   3   8
BRANCH   1  19
ATOM     17  O   UNL     1       1.857   8.866  18.267  0.00  0.00    +0.000 OA
ATOM     18  C   UNL     1       1.866   8.161  19.284  0.00  0.00    +0.000 C 
ATOM     19  N   UNL     1       1.410   8.733  20.467  0.00  0.00    +0.000 N 
ATOM     20  H   UNL     1       1.516   8.200  21.321  0.00  0.00    +0.000 HD
BRANCH  18  21
ATOM     21  C   UNL     1       2.280   6.631  19.072  0.00  0.00    +0.000 A 
ATOM     22  C   UNL     1       3.316   6.662  18.125  0.00  0.00    +0.000 A 
ATOM     23  C   UNL     1       3.782   5.517  17.542  0.00  0.00    +0.000 A 
ATOM     24  C   UNL     1       4.136   4.604  18.495  0.00  0.00    +0.000 A 
ATOM     25  C   UNL     1       3.176   4.335  19.469  0.00  0.00    +0.000 A 
ATOM     26  C   UNL     1       3.330   3.092  20.142  0.00  0.00    +0.000 A 
ATOM     27 CL   UNL     1       4.817   2.185  20.184  0.00  0.00    +0.000 Cl
ATOM     28  C   UNL     1       2.250   2.497  20.788  0.00  0.00    +0.000 A 
ATOM     29  C   UNL     1       1.057   3.210  20.823  0.00  0.00    +0.000 A 
ATOM     30  C   UNL     1       0.981   4.562  20.342  0.00  0.00    +0.000 A 
ATOM     31  C   UNL     1       2.061   5.250  19.651  0.00  0.00    +0.000 A 
ENDBRANCH  18  21
ENDBRANCH   1  19
TORSDOF 3
ENDMDL
MODEL 7
REMARK VINA RESULT:      -8.9      3.232      9.779
REMARK  Name = 
REMARK  3 active torsions:
REMARK  status: ('A' for Active; 'I' for Inactive)
REMARK    1  A    between atoms: C_2  and  C_20
REMARK    2  A    between atoms: N_3  and  C_4
REMARK    3  A    between atoms: C_6  and  C_7
REMARK                            x       y       z     vdW  Elec       q    Type
REMARK                         _______ _______ _______ _____ _____    ______ ____
ROOT
ATOM      1  C   UNL     1       1.050   9.831  19.872  0.00  0.00    +0.000 A 
ATOM      2  C   UNL     1       1.297  11.148  19.310  0.00  0.00    +0.000 A 
ATOM      3  C   UNL     1       0.504  12.315  19.655  0.00  0.00    +0.000 A 
ATOM      4  C   UNL     1      -0.551  12.119  20.572  0.00  0.00    +0.000 A 
ATOM      5  C   UNL     1      -0.818  10.863  21.113  0.00  0.00    +0.000 A 
ATOM      6  C   UNL     1      -0.039   9.749  20.767  0.00  0.00    +0.000 A 
ATOM      7 CL   UNL     1      -0.462   8.241  21.513  0.00  0.00    +0.000 Cl
ENDROOT
BRANCH   3   8
ATOM      8  C   UNL     1       0.645  13.741  19.178  0.00  0.00    +0.000 A 
ATOM      9  N   UNL     1       1.790  14.362  18.873  0.00  0.00    +0.000 NA
ATOM     10  C   UNL     1       1.427  15.630  18.477  0.00  0.00    +0.000 A 
ATOM     11  C   UNL     1       2.178  16.735  18.025  0.00  0.00    +0.000 A 
ATOM     12  C   UNL     1       1.506  17.918  17.674  0.00  0.00    +0.000 A 
ATOM     13  C   UNL     1       0.112  18.001  17.781  0.00  0.00    +0.000 A 
ATOM     14  C   UNL     1      -0.644  16.908  18.235  0.00  0.00    +0.000 A 
ATOM     15  C   UNL     1       0.047  15.746  18.565  0.00  0.00    +0.000 A 
ATOM     16  O   UNL     1      -0.462  14.533  19.000  0.00  0.00    +0.000 OA
ENDBRANCH   3   8
BRANCH   1  19
ATOM     17  O   UNL     1       2.037   8.698  17.403  0.00  0.00    +0.000 OA
ATOM     18  C   UNL     1       2.194   8.008  18.418  0.00  0.00    +0.000 C 
ATOM     19  N   UNL     1       1.768   8.541  19.630  0.00  0.00    +0.000 N 
ATOM     20  H   UNL     1       1.991   8.029  20.475  0.00  0.00    +0.000 HD
BRANCH  18  21
ATOM     21  C   UNL     1       2.746   6.526  18.179  0.00  0.00    +0.000 A 
ATOM     22  C   UNL     1       4.107   6.690  17.874  0.00  0.00    +0.000 A 
ATOM     23  C   UNL     1       4.863   5.652  17.407  0.00  0.00    +0.000 A 
ATOM     24  C   UNL     1       4.765   4.575  18.243  0.00  0.00    +0.000 A 
ATOM     25  C   UNL     1       3.471   4.169  18.567  0.00  0.00    +0.000 A 
ATOM     26  C   UNL     1       3.353   2.823  19.010  0.00  0.00    +0.000 A 
ATOM     27 CL   UNL     1       4.685   1.877  19.614  0.00  0.00    +0.000 Cl
ATOM     28  C   UNL     1       2.132   2.158  18.939  0.00  0.00    +0.000 A 
ATOM     29  C   UNL     1       1.032   2.892  18.511  0.00  0.00    +0.000 A 
ATOM     30  C   UNL     1       1.119   4.309  18.290  0.00  0.00    +0.000 A 
ATOM     31  C   UNL     1       2.355   5.073  18.336  0.00  0.00    +0.000 A 
ENDBRANCH  18  21
ENDBRANCH   1  19
TORSDOF 3
ENDMDL
MODEL 8
REMARK VINA RESULT:      -8.9      1.032      1.870
REMARK  Name = 
REMARK  3 active torsions:
REMARK  status: ('A' for Active; 'I' for Inactive)
REMARK    1  A    between atoms: C_2  and  C_20
REMARK    2  A    between atoms: N_3  and  C_4
REMARK    3  A    between atoms: C_6  and  C_7
REMARK                            x       y       z     vdW  Elec       q    Type
REMARK                         _______ _______ _______ _____ _____    ______ ____
ROOT
ATOM      1  C   UNL     1       2.843   5.730  19.075  0.00  0.00    +0.000 A 
ATOM      2  C   UNL     1       3.523   5.818  17.793  0.00  0.00    +0.000 A 
ATOM      3  C   UNL     1       4.515   4.850  17.357  0.00  0.00    +0.000 A 
ATOM      4  C   UNL     1       4.812   3.798  18.249  0.00  0.00    +0.000 A 
ATOM      5  C   UNL     1       4.186   3.699  19.490  0.00  0.00    +0.000 A 
ATOM      6  C   UNL     1       3.230   4.644  19.892  0.00  0.00    +0.000 A 
ATOM      7 CL   UNL     1       2.513   4.411  21.454  0.00  0.00    +0.000 Cl
ENDROOT
BRANCH   3   8
ATOM      8  C   UNL     1       5.287   4.791  16.060  0.00  0.00    +0.000 A 
ATOM      9  N   UNL     1       6.352   5.537  15.742  0.00  0.00    +0.000 NA
ATOM     10  C   UNL     1       6.721   5.128  14.480  0.00  0.00    +0.000 A 
ATOM     11  C   UNL     1       7.770   5.523  13.623  0.00  0.00    +0.000 A 
ATOM     12  C   UNL     1       7.900   4.899  12.372  0.00  0.00    +0.000 A 
ATOM     13  C   UNL     1       6.996   3.904  11.977  0.00  0.00    +0.000 A 
ATOM     14  C   UNL     1       5.945   3.507  12.821  0.00  0.00    +0.000 A 
ATOM     15  C   UNL     1       5.848   4.136  14.059  0.00  0.00    +0.000 A 
ATOM     16  O   UNL     1       4.933   3.905  15.074  0.00  0.00    +0.000 OA
ENDBRANCH   3   8
BRANCH   1  19
ATOM     17  O   UNL     1       2.373   8.549  18.642  0.00  0.00    +0.000 OA
ATOM     18  C   UNL     1       1.634   7.994  19.466  0.00  0.00    +0.000 C 
ATOM     19  N   UNL     1       1.806   6.629  19.668  0.00  0.00    +0.000 N 
ATOM     20  H   UNL     1       1.135   6.151  20.257  0.00  0.00    +0.000 HD
BRANCH  18  21
ATOM     21  C   UNL     1       0.663   8.957  20.295  0.00  0.00    +0.000 A 
ATOM     22  C   UNL     1       0.894   8.637  21.642  0.00  0.00    +0.000 A 
ATOM     23  C   UNL     1       0.089   9.117  22.637  0.00  0.00    +0.000 A 
ATOM     24  C   UNL     1      -0.009  10.477  22.559  0.00  0.00    +0.000 A 
ATOM     25  C   UNL     1      -0.363  10.993  21.313  0.00  0.00    +0.000 A 
ATOM     26  C   UNL     1      -0.924  12.299  21.336  0.00  0.00    +0.000 A 
ATOM     27 CL   UNL     1      -0.741  13.413  22.663  0.00  0.00    +0.000 Cl
ATOM     28  C   UNL     1      -1.712  12.752  20.281  0.00  0.00    +0.000 A 
ATOM     29  C   UNL     1      -1.842  11.914  19.180  0.00  0.00    +0.000 A 
ATOM     30  C   UNL     1      -1.082  10.700  19.070  0.00  0.00    +0.000 A 
ATOM     31  C   UNL     1      -0.245  10.156  20.129  0.00  0.00    +0.000 A 
ENDBRANCH  18  21
ENDBRANCH   1  19
TORSDOF 3
ENDMDL
MODEL 9
REMARK VINA RESULT:      -8.9      3.239      9.780
REMARK  Name = 
REMARK  3 active torsions:
REMARK  status: ('A' for Active; 'I' for Inactive)
REMARK    1  A    between atoms: C_2  and  C_20
REMARK    2  A    between atoms: N_3  and  C_4
REMARK    3  A    between atoms: C_6  and  C_7
REMARK                            x       y       z     vdW  Elec       q    Type
REMARK                         _______ _______ _______ _____ _____    ______ ____
ROOT
ATOM      1  C   UNL     1       0.995   9.787  19.923  0.00  0.00    +0.000 A 
ATOM      2  C   UNL     1       1.197  11.101  19.337  0.00  0.00    +0.000 A 
ATOM      3  C   UNL     1       0.398  12.260  19.698  0.00  0.00    +0.000 A 
ATOM      4  C   UNL     1      -0.617  12.058  20.657  0.00  0.00    +0.000 A 
ATOM      5  C   UNL     1      -0.843  10.804  21.222  0.00  0.00    +0.000 A 
ATOM      6  C   UNL     1      -0.058   9.699  20.860  0.00  0.00    +0.000 A 
ATOM      7 CL   UNL     1      -0.428   8.193  21.639  0.00  0.00    +0.000 Cl
ENDROOT
BRANCH   3   8
ATOM      8  C   UNL     1       0.497  13.682  19.199  0.00  0.00    +0.000 A 
ATOM      9  N   UNL     1      -0.526  14.519  18.995  0.00  0.00    +0.000 NA
ATOM     10  C   UNL     1       0.043  15.694  18.557  0.00  0.00    +0.000 A 
ATOM     11  C   UNL     1      -0.510  16.942  18.198  0.00  0.00    +0.000 A 
ATOM     12  C   UNL     1       0.348  17.977  17.795  0.00  0.00    +0.000 A 
ATOM     13  C   UNL     1       1.734  17.771  17.741  0.00  0.00    +0.000 A 
ATOM     14  C   UNL     1       2.294  16.532  18.092  0.00  0.00    +0.000 A 
ATOM     15  C   UNL     1       1.419  15.528  18.498  0.00  0.00    +0.000 A 
ATOM     16  O   UNL     1       1.719  14.243  18.922  0.00  0.00    +0.000 OA
ENDBRANCH   3   8
BRANCH   1  19
ATOM     17  O   UNL     1       2.021   8.702  17.448  0.00  0.00    +0.000 OA
ATOM     18  C   UNL     1       2.169   7.996  18.454  0.00  0.00    +0.000 C 
ATOM     19  N   UNL     1       1.724   8.506  19.669  0.00  0.00    +0.000 N 
ATOM     20  H   UNL     1       1.940   7.982  20.509  0.00  0.00    +0.000 HD
BRANCH  18  21
ATOM     21  C   UNL     1       2.735   6.523  18.198  0.00  0.00    +0.000 A 
ATOM     22  C   UNL     1       4.092   6.703  17.886  0.00  0.00    +0.000 A 
ATOM     23  C   UNL     1       4.855   5.676  17.405  0.00  0.00    +0.000 A 
ATOM     24  C   UNL     1       4.773   4.591  18.231  0.00  0.00    +0.000 A 
ATOM     25  C   UNL     1       3.485   4.169  18.560  0.00  0.00    +0.000 A 
ATOM     26  C   UNL     1       3.383   2.818  18.991  0.00  0.00    +0.000 A 
ATOM     27 CL   UNL     1       4.728   1.879  19.578  0.00  0.00    +0.000 Cl
ATOM     28  C   UNL     1       2.168   2.142  18.921  0.00  0.00    +0.000 A 
ATOM     29  C   UNL     1       1.058   2.868  18.506  0.00  0.00    +0.000 A 
ATOM     30  C   UNL     1       1.130   4.288  18.298  0.00  0.00    +0.000 A 
ATOM     31  C   UNL     1       2.359   5.064  18.344  0.00  0.00    +0.000 A 
ENDBRANCH  18  21
ENDBRANCH   1  19
TORSDOF 3
ENDMDL
