MODEL 1
REMARK VINA RESULT:      -8.4      0.000      0.000
REMARK  Name = 
REMARK  9 active torsions:
REMARK  status: ('A' for Active; 'I' for Inactive)
REMARK    1  A    between atoms: C_1  and  C_2
REMARK    2  A    between atoms: C_2  and  C_3
REMARK    3  A    between atoms: C_2  and  C_4
REMARK    4  A    between atoms: C_2  and  N_5
REMARK    5  A    between atoms: C_6  and  C_8
REMARK    6  A    between atoms: C_8  and  S_9
REMARK    7  A    between atoms: S_9  and  C_10
REMARK    8  A    between atoms: C_13  and  C_14
REMARK    9  A    between atoms: N_20  and  C_21
REMARK                            x       y       z     vdW  Elec       q    Type
REMARK                         _______ _______ _______ _____ _____    ______ ____
ROOT
ATOM      1  C   UNL     1       4.427   5.325  17.158  0.00  0.00    +0.000 A 
ATOM      2  N   UNL     1       4.759   6.464  16.594  0.00  0.00    +0.000 NA
ATOM      3  N   UNL     1       3.960   7.442  17.118  0.00  0.00    +0.000 NA
ATOM      4  C   UNL     1       3.171   6.903  18.036  0.00  0.00    +0.000 A 
ATOM      5  N   UNL     1       3.380   5.515  18.054  0.00  0.00    +0.000 N 
ENDROOT
BRANCH   4   6
ATOM      6  C   UNL     1       2.311   7.679  18.940  0.00  0.00    +0.000 A 
ATOM      7  C   UNL     1       2.087   7.289  20.257  0.00  0.00    +0.000 A 
ATOM      8  C   UNL     1       1.278   8.089  21.065  0.00  0.00    +0.000 A 
ATOM      9  C   UNL     1       0.720   9.251  20.542  0.00  0.00    +0.000 A 
ATOM     10  C   UNL     1       0.976   9.553  19.218  0.00  0.00    +0.000 A 
ATOM     11  N   UNL     1       1.736   8.784  18.410  0.00  0.00    +0.000 NA
ENDBRANCH   4   6
BRANCH   5  12
ATOM     12  C   UNL     1       2.667   4.540  18.818  0.00  0.00    +0.000 A 
ATOM     13  C   UNL     1       1.475   3.988  18.324  0.00  0.00    +0.000 A 
ATOM     14  C   UNL     1       0.701   3.140  19.123  0.00  0.00    +0.000 A 
ATOM     15  C   UNL     1       1.135   2.805  20.402  0.00  0.00    +0.000 A 
ATOM     16  C   UNL     1       2.342   3.311  20.880  0.00  0.00    +0.000 A 
ATOM     17  C   UNL     1       3.106   4.178  20.097  0.00  0.00    +0.000 A 
ENDBRANCH   5  12
BRANCH   1  18
ATOM     18  S   UNL     1       5.066   3.789  16.639  0.00  0.00    +0.000 S 
BRANCH  18  19
ATOM     19  C   UNL     1       6.716   4.281  16.049  0.00  0.00    +0.000 C 
BRANCH  19  21
ATOM     20  N   UNL     1       6.324   3.373  13.800  0.00  0.00    +0.000 N 
ATOM     21  C   UNL     1       6.718   4.477  14.536  0.00  0.00    +0.000 C 
ATOM     22  O   UNL     1       6.993   5.563  14.031  0.00  0.00    +0.000 OA
ATOM     23  H   UNL     1       6.159   2.516  14.315  0.00  0.00    +0.000 HD
BRANCH  20  25
ATOM     24  C   UNL     1       6.386   1.905  11.787  0.00  0.00    +0.000 C 
ATOM     25  C   UNL     1       6.185   3.329  12.332  0.00  0.00    +0.000 C 
ATOM     26  C   UNL     1       7.178   4.291  11.660  0.00  0.00    +0.000 C 
ATOM     27  C   UNL     1       4.757   3.779  11.967  0.00  0.00    +0.000 C 
ENDBRANCH  20  25
ENDBRANCH  19  21
ENDBRANCH  18  19
ENDBRANCH   1  18
TORSDOF 6
ENDMDL
MODEL 2
REMARK VINA RESULT:      -8.4      0.182      1.282
REMARK  Name = 
REMARK  9 active torsions:
REMARK  status: ('A' for Active; 'I' for Inactive)
REMARK    1  A    between atoms: C_1  and  C_2
REMARK    2  A    between atoms: C_2  and  C_3
REMARK    3  A    between atoms: C_2  and  C_4
REMARK    4  A    between atoms: C_2  and  N_5
REMARK    5  A    between atoms: C_6  and  C_8
REMARK    6  A    between atoms: C_8  and  S_9
REMARK    7  A    between atoms: S_9  and  C_10
REMARK    8  A    between atoms: C_13  and  C_14
REMARK    9  A    between atoms: N_20  and  C_21
REMARK                            x       y       z     vdW  Elec       q    Type
REMARK                         _______ _______ _______ _____ _____    ______ ____
ROOT
ATOM      1  C   UNL     1       4.439   5.337  17.152  0.00  0.00    +0.000 A 
ATOM      2  N   UNL     1       4.847   6.469  16.625  0.00  0.00    +0.000 NA
ATOM      3  N   UNL     1       4.058   7.471  17.117  0.00  0.00    +0.000 NA
ATOM      4  C   UNL     1       3.197   6.953  17.980  0.00  0.00    +0.000 A 
ATOM      5  N   UNL     1       3.351   5.558  17.990  0.00  0.00    +0.000 N 
ENDROOT
BRANCH   4   6
ATOM      6  C   UNL     1       2.318   7.751  18.845  0.00  0.00    +0.000 A 
ATOM      7  C   UNL     1       2.082   7.407  20.173  0.00  0.00    +0.000 A 
ATOM      8  C   UNL     1       1.254   8.227  20.941  0.00  0.00    +0.000 A 
ATOM      9  C   UNL     1       0.689   9.361  20.369  0.00  0.00    +0.000 A 
ATOM     10  C   UNL     1       0.958   9.618  19.038  0.00  0.00    +0.000 A 
ATOM     11  N   UNL     1       1.736   8.829  18.267  0.00  0.00    +0.000 NA
ENDBRANCH   4   6
BRANCH   5  12
ATOM     12  C   UNL     1       2.558   4.602  18.698  0.00  0.00    +0.000 A 
ATOM     13  C   UNL     1       2.918   4.206  19.996  0.00  0.00    +0.000 A 
ATOM     14  C   UNL     1       2.230   3.172  20.639  0.00  0.00    +0.000 A 
ATOM     15  C   UNL     1       1.152   2.558  20.008  0.00  0.00    +0.000 A 
ATOM     16  C   UNL     1       0.758   2.980  18.740  0.00  0.00    +0.000 A 
ATOM     17  C   UNL     1       1.458   3.994  18.082  0.00  0.00    +0.000 A 
ENDBRANCH   5  12
BRANCH   1  18
ATOM     18  S   UNL     1       5.048   3.783  16.649  0.00  0.00    +0.000 S 
BRANCH  18  19
ATOM     19  C   UNL     1       6.693   4.242  16.019  0.00  0.00    +0.000 C 
BRANCH  19  21
ATOM     20  N   UNL     1       6.279   3.334  13.774  0.00  0.00    +0.000 N 
ATOM     21  C   UNL     1       6.662   4.444  14.508  0.00  0.00    +0.000 C 
ATOM     22  O   UNL     1       6.901   5.538  14.003  0.00  0.00    +0.000 OA
ATOM     23  H   UNL     1       6.145   2.472  14.289  0.00  0.00    +0.000 HD
BRANCH  20  25
ATOM     24  C   UNL     1       4.710   3.759  11.885  0.00  0.00    +0.000 C 
ATOM     25  C   UNL     1       6.114   3.293  12.309  0.00  0.00    +0.000 C 
ATOM     26  C   UNL     1       6.383   1.880  11.767  0.00  0.00    +0.000 C 
ATOM     27  C   UNL     1       7.142   4.254  11.679  0.00  0.00    +0.000 C 
ENDBRANCH  20  25
ENDBRANCH  19  21
ENDBRANCH  18  19
ENDBRANCH   1  18
TORSDOF 6
ENDMDL
MODEL 3
REMARK VINA RESULT:      -8.2      0.559      1.303
REMARK  Name = 
REMARK  9 active torsions:
REMARK  status: ('A' for Active; 'I' for Inactive)
REMARK    1  A    between atoms: C_1  and  C_2
REMARK    2  A    between atoms: C_2  and  C_3
REMARK    3  A    between atoms: C_2  and  C_4
REMARK    4  A    between atoms: C_2  and  N_5
REMARK    5  A    between atoms: C_6  and  C_8
REMARK    6  A    between atoms: C_8  and  S_9
REMARK    7  A    between atoms: S_9  and  C_10
REMARK    8  A    between atoms: C_13  and  C_14
REMARK    9  A    between atoms: N_20  and  C_21
REMARK                            x       y       z     vdW  Elec       q    Type
REMARK                         _______ _______ _______ _____ _____    ______ ____
ROOT
ATOM      1  C   UNL     1       4.510   5.414  17.030  0.00  0.00    +0.000 A 
ATOM      2  N   UNL     1       4.879   6.539  16.462  0.00  0.00    +0.000 NA
ATOM      3  N   UNL     1       4.076   7.537  16.940  0.00  0.00    +0.000 NA
ATOM      4  C   UNL     1       3.244   7.024  17.836  0.00  0.00    +0.000 A 
ATOM      5  N   UNL     1       3.433   5.634  17.883  0.00  0.00    +0.000 N 
ENDROOT
BRANCH   4   6
ATOM      6  C   UNL     1       2.363   7.826  18.694  0.00  0.00    +0.000 A 
ATOM      7  C   UNL     1       1.673   8.933  18.211  0.00  0.00    +0.000 A 
ATOM      8  C   UNL     1       0.834   9.633  19.078  0.00  0.00    +0.000 A 
ATOM      9  C   UNL     1       0.704   9.210  20.397  0.00  0.00    +0.000 A 
ATOM     10  C   UNL     1       1.442   8.114  20.802  0.00  0.00    +0.000 A 
ATOM     11  N   UNL     1       2.277   7.434  19.988  0.00  0.00    +0.000 NA
ENDBRANCH   4   6
BRANCH   5  12
ATOM     12  C   UNL     1       2.677   4.681  18.634  0.00  0.00    +0.000 A 
ATOM     13  C   UNL     1       1.547   4.070  18.070  0.00  0.00    +0.000 A 
ATOM     14  C   UNL     1       0.725   3.245  18.843  0.00  0.00    +0.000 A 
ATOM     15  C   UNL     1       1.051   2.990  20.172  0.00  0.00    +0.000 A 
ATOM     16  C   UNL     1       2.199   3.554  20.725  0.00  0.00    +0.000 A 
ATOM     17  C   UNL     1       3.009   4.400  19.965  0.00  0.00    +0.000 A 
ENDBRANCH   5  12
BRANCH   1  18
ATOM     18  S   UNL     1       5.145   3.861  16.559  0.00  0.00    +0.000 S 
BRANCH  18  19
ATOM     19  C   UNL     1       6.845   4.310  16.088  0.00  0.00    +0.000 C 
BRANCH  19  21
ATOM     20  N   UNL     1       6.278   3.505  13.837  0.00  0.00    +0.000 N 
ATOM     21  C   UNL     1       6.973   4.449  14.574  0.00  0.00    +0.000 C 
ATOM     22  O   UNL     1       7.600   5.375  14.066  0.00  0.00    +0.000 OA
ATOM     23  H   UNL     1       5.828   2.761  14.357  0.00  0.00    +0.000 HD
BRANCH  20  25
ATOM     24  C   UNL     1       7.158   4.470  11.715  0.00  0.00    +0.000 C 
ATOM     25  C   UNL     1       6.195   3.463  12.365  0.00  0.00    +0.000 C 
ATOM     26  C   UNL     1       4.758   3.732  11.890  0.00  0.00    +0.000 C 
ATOM     27  C   UNL     1       6.600   2.050  11.898  0.00  0.00    +0.000 C 
ENDBRANCH  20  25
ENDBRANCH  19  21
ENDBRANCH  18  19
ENDBRANCH   1  18
TORSDOF 6
ENDMDL
MODEL 4
REMARK VINA RESULT:      -7.3      1.744      3.347
REMARK  Name = 
REMARK  9 active torsions:
REMARK  status: ('A' for Active; 'I' for Inactive)
REMARK    1  A    between atoms: C_1  and  C_2
REMARK    2  A    between atoms: C_2  and  C_3
REMARK    3  A    between atoms: C_2  and  C_4
REMARK    4  A    between atoms: C_2  and  N_5
REMARK    5  A    between atoms: C_6  and  C_8
REMARK    6  A    between atoms: C_8  and  S_9
REMARK    7  A    between atoms: S_9  and  C_10
REMARK    8  A    between atoms: C_13  and  C_14
REMARK    9  A    between atoms: N_20  and  C_21
REMARK                            x       y       z     vdW  Elec       q    Type
REMARK                         _______ _______ _______ _____ _____    ______ ____
ROOT
ATOM      1  C   UNL     1       3.931   3.875  17.050  0.00  0.00    +0.000 A 
ATOM      2  N   UNL     1       2.655   3.564  17.031  0.00  0.00    +0.000 NA
ATOM      3  N   UNL     1       1.968   4.566  17.659  0.00  0.00    +0.000 NA
ATOM      4  C   UNL     1       2.824   5.510  18.020  0.00  0.00    +0.000 A 
ATOM      5  N   UNL     1       4.125   5.082  17.713  0.00  0.00    +0.000 N 
ENDROOT
BRANCH   4   6
ATOM      6  C   UNL     1       2.428   6.821  18.552  0.00  0.00    +0.000 A 
ATOM      7  C   UNL     1       2.337   7.948  17.740  0.00  0.00    +0.000 A 
ATOM      8  C   UNL     1       1.929   9.154  18.309  0.00  0.00    +0.000 A 
ATOM      9  C   UNL     1       1.623   9.204  19.665  0.00  0.00    +0.000 A 
ATOM     10  C   UNL     1       1.761   8.044  20.404  0.00  0.00    +0.000 A 
ATOM     11  N   UNL     1       2.174   6.870  19.881  0.00  0.00    +0.000 NA
ENDBRANCH   4   6
BRANCH   5  12
ATOM     12  C   UNL     1       5.353   5.744  18.026  0.00  0.00    +0.000 A 
ATOM     13  C   UNL     1       5.797   6.820  17.243  0.00  0.00    +0.000 A 
ATOM     14  C   UNL     1       7.060   7.381  17.456  0.00  0.00    +0.000 A 
ATOM     15  C   UNL     1       7.869   6.899  18.481  0.00  0.00    +0.000 A 
ATOM     16  C   UNL     1       7.414   5.863  19.295  0.00  0.00    +0.000 A 
ATOM     17  C   UNL     1       6.164   5.282  19.069  0.00  0.00    +0.000 A 
ENDBRANCH   5  12
BRANCH   1  18
ATOM     18  S   UNL     1       5.181   2.779  16.526  0.00  0.00    +0.000 S 
BRANCH  18  19
ATOM     19  C   UNL     1       6.446   3.950  15.941  0.00  0.00    +0.000 C 
BRANCH  19  21
ATOM     20  N   UNL     1       6.288   3.159  13.621  0.00  0.00    +0.000 N 
ATOM     21  C   UNL     1       6.259   4.261  14.459  0.00  0.00    +0.000 C 
ATOM     22  O   UNL     1       6.037   5.403  14.067  0.00  0.00    +0.000 OA
ATOM     23  H   UNL     1       6.519   2.269  14.045  0.00  0.00    +0.000 HD
BRANCH  20  25
ATOM     24  C   UNL     1       4.641   3.633  11.811  0.00  0.00    +0.000 C 
ATOM     25  C   UNL     1       6.072   3.190  12.161  0.00  0.00    +0.000 C 
ATOM     26  C   UNL     1       6.361   1.816  11.536  0.00  0.00    +0.000 C 
ATOM     27  C   UNL     1       7.048   4.213  11.549  0.00  0.00    +0.000 C 
ENDBRANCH  20  25
ENDBRANCH  19  21
ENDBRANCH  18  19
ENDBRANCH   1  18
TORSDOF 6
ENDMDL
MODEL 5
REMARK VINA RESULT:      -7.2      4.396      7.954
REMARK  Name = 
REMARK  9 active torsions:
REMARK  status: ('A' for Active; 'I' for Inactive)
REMARK    1  A    between atoms: C_1  and  C_2
REMARK    2  A    between atoms: C_2  and  C_3
REMARK    3  A    between atoms: C_2  and  C_4
REMARK    4  A    between atoms: C_2  and  N_5
REMARK    5  A    between atoms: C_6  and  C_8
REMARK    6  A    between atoms: C_8  and  S_9
REMARK    7  A    between atoms: S_9  and  C_10
REMARK    8  A    between atoms: C_13  and  C_14
REMARK    9  A    between atoms: N_20  and  C_21
REMARK                            x       y       z     vdW  Elec       q    Type
REMARK                         _______ _______ _______ _____ _____    ______ ____
ROOT
ATOM      1  C   UNL     1       0.575   9.474  21.415  0.00  0.00    +0.000 A 
ATOM      2  N   UNL     1       0.554   9.051  22.659  0.00  0.00    +0.000 NA
ATOM      3  N   UNL     1      -0.053  10.012  23.419  0.00  0.00    +0.000 NA
ATOM      4  C   UNL     1      -0.442  11.002  22.627  0.00  0.00    +0.000 A 
ATOM      5  N   UNL     1       0.004  10.739  21.323  0.00  0.00    +0.000 N 
ENDROOT
BRANCH   4   6
ATOM      6  C   UNL     1      -1.292  12.118  23.063  0.00  0.00    +0.000 A 
ATOM      7  C   UNL     1      -2.673  11.991  23.175  0.00  0.00    +0.000 A 
ATOM      8  C   UNL     1      -3.414  13.087  23.619  0.00  0.00    +0.000 A 
ATOM      9  C   UNL     1      -2.761  14.272  23.939  0.00  0.00    +0.000 A 
ATOM     10  C   UNL     1      -1.389  14.320  23.779  0.00  0.00    +0.000 A 
ATOM     11  N   UNL     1      -0.653  13.281  23.330  0.00  0.00    +0.000 NA
ENDBRANCH   4   6
BRANCH   5  12
ATOM     12  C   UNL     1      -0.106  11.590  20.180  0.00  0.00    +0.000 A 
ATOM     13  C   UNL     1       0.801  12.645  19.994  0.00  0.00    +0.000 A 
ATOM     14  C   UNL     1       0.616  13.565  18.957  0.00  0.00    +0.000 A 
ATOM     15  C   UNL     1      -0.449  13.411  18.074  0.00  0.00    +0.000 A 
ATOM     16  C   UNL     1      -1.324  12.337  18.223  0.00  0.00    +0.000 A 
ATOM     17  C   UNL     1      -1.160  11.431  19.273  0.00  0.00    +0.000 A 
ENDBRANCH   5  12
BRANCH   1  18
ATOM     18  S   UNL     1       1.432   8.640  20.146  0.00  0.00    +0.000 S 
BRANCH  18  19
ATOM     19  C   UNL     1       1.551   6.966  20.849  0.00  0.00    +0.000 C 
BRANCH  19  21
ATOM     20  N   UNL     1       1.801   4.698  19.938  0.00  0.00    +0.000 N 
ATOM     21  C   UNL     1       2.235   6.012  19.875  0.00  0.00    +0.000 C 
ATOM     22  O   UNL     1       3.061   6.412  19.059  0.00  0.00    +0.000 OA
ATOM     23  H   UNL     1       1.146   4.469  20.676  0.00  0.00    +0.000 HD
BRANCH  20  25
ATOM     24  C   UNL     1       2.066   3.947  17.577  0.00  0.00    +0.000 C 
ATOM     25  C   UNL     1       2.261   3.603  19.063  0.00  0.00    +0.000 C 
ATOM     26  C   UNL     1       1.532   2.292  19.397  0.00  0.00    +0.000 C 
ATOM     27  C   UNL     1       3.769   3.391  19.306  0.00  0.00    +0.000 C 
ENDBRANCH  20  25
ENDBRANCH  19  21
ENDBRANCH  18  19
ENDBRANCH   1  18
TORSDOF 6
ENDMDL
MODEL 6
REMARK VINA RESULT:      -7.2      3.253      5.693
REMARK  Name = 
REMARK  9 active torsions:
REMARK  status: ('A' for Active; 'I' for Inactive)
REMARK    1  A    between atoms: C_1  and  C_2
REMARK    2  A    between atoms: C_2  and  C_3
REMARK    3  A    between atoms: C_2  and  C_4
REMARK    4  A    between atoms: C_2  and  N_5
REMARK    5  A    between atoms: C_6  and  C_8
REMARK    6  A    between atoms: C_8  and  S_9
REMARK    7  A    between atoms: S_9  and  C_10
REMARK    8  A    between atoms: C_13  and  C_14
REMARK    9  A    between atoms: N_20  and  C_21
REMARK                            x       y       z     vdW  Elec       q    Type
REMARK                         _______ _______ _______ _____ _____    ______ ____
ROOT
ATOM      1  C   UNL     1       3.465   3.941  17.169  0.00  0.00    +0.000 A 
ATOM      2  N   UNL     1       2.163   3.775  17.132  0.00  0.00    +0.000 NA
ATOM      3  N   UNL     1       1.580   4.898  17.649  0.00  0.00    +0.000 NA
ATOM      4  C   UNL     1       2.530   5.768  17.960  0.00  0.00    +0.000 A 
ATOM      5  N   UNL     1       3.780   5.172  17.736  0.00  0.00    +0.000 N 
ENDROOT
BRANCH   4   6
ATOM      6  C   UNL     1       2.273   7.156  18.366  0.00  0.00    +0.000 A 
ATOM      7  C   UNL     1       2.356   8.214  17.466  0.00  0.00    +0.000 A 
ATOM      8  C   UNL     1       2.074   9.504  17.917  0.00  0.00    +0.000 A 
ATOM      9  C   UNL     1       1.717   9.702  19.247  0.00  0.00    +0.000 A 
ATOM     10  C   UNL     1       1.680   8.600  20.079  0.00  0.00    +0.000 A 
ATOM     11  N   UNL     1       1.969   7.346  19.672  0.00  0.00    +0.000 NA
ENDBRANCH   4   6
BRANCH   5  12
ATOM     12  C   UNL     1       5.068   5.716  18.035  0.00  0.00    +0.000 A 
ATOM     13  C   UNL     1       5.664   6.643  17.165  0.00  0.00    +0.000 A 
ATOM     14  C   UNL     1       6.977   7.073  17.378  0.00  0.00    +0.000 A 
ATOM     15  C   UNL     1       7.688   6.613  18.483  0.00  0.00    +0.000 A 
ATOM     16  C   UNL     1       7.084   5.731  19.378  0.00  0.00    +0.000 A 
ATOM     17  C   UNL     1       5.782   5.278  19.156  0.00  0.00    +0.000 A 
ENDBRANCH   5  12
BRANCH   1  18
ATOM     18  S   UNL     1       4.594   2.670  16.782  0.00  0.00    +0.000 S 
BRANCH  18  19
ATOM     19  C   UNL     1       4.154   1.423  18.032  0.00  0.00    +0.000 C 
BRANCH  19  21
ATOM     20  N   UNL     1       2.545   2.452  19.577  0.00  0.00    +0.000 N 
ATOM     21  C   UNL     1       3.863   2.078  19.378  0.00  0.00    +0.000 C 
ATOM     22  O   UNL     1       4.736   2.198  20.234  0.00  0.00    +0.000 OA
ATOM     23  H   UNL     1       1.917   2.345  18.789  0.00  0.00    +0.000 HD
BRANCH  20  25
ATOM     24  C   UNL     1       2.767   4.322  21.210  0.00  0.00    +0.000 C 
ATOM     25  C   UNL     1       2.003   3.047  20.813  0.00  0.00    +0.000 C 
ATOM     26  C   UNL     1       2.039   2.034  21.969  0.00  0.00    +0.000 C 
ATOM     27  C   UNL     1       0.533   3.435  20.559  0.00  0.00    +0.000 C 
ENDBRANCH  20  25
ENDBRANCH  19  21
ENDBRANCH  18  19
ENDBRANCH   1  18
TORSDOF 6
ENDMDL
MODEL 7
REMARK VINA RESULT:      -7.2      4.334      7.722
REMARK  Name = 
REMARK  9 active torsions:
REMARK  status: ('A' for Active; 'I' for Inactive)
REMARK    1  A    between atoms: C_1  and  C_2
REMARK    2  A    between atoms: C_2  and  C_3
REMARK    3  A    between atoms: C_2  and  C_4
REMARK    4  A    between atoms: C_2  and  N_5
REMARK    5  A    between atoms: C_6  and  C_8
REMARK    6  A    between atoms: C_8  and  S_9
REMARK    7  A    between atoms: S_9  and  C_10
REMARK    8  A    between atoms: C_13  and  C_14
REMARK    9  A    between atoms: N_20  and  C_21
REMARK                            x       y       z     vdW  Elec       q    Type
REMARK                         _______ _______ _______ _____ _____    ______ ____
ROOT
ATOM      1  C   UNL     1       0.567   9.354  21.470  0.00  0.00    +0.000 A 
ATOM      2  N   UNL     1       0.575   8.981  22.730  0.00  0.00    +0.000 NA
ATOM      3  N   UNL     1      -0.019   9.968  23.466  0.00  0.00    +0.000 NA
ATOM      4  C   UNL     1      -0.430  10.924  22.645  0.00  0.00    +0.000 A 
ATOM      5  N   UNL     1      -0.012  10.612  21.342  0.00  0.00    +0.000 N 
ENDROOT
BRANCH   4   6
ATOM      6  C   UNL     1      -1.274  12.054  23.056  0.00  0.00    +0.000 A 
ATOM      7  C   UNL     1      -2.656  11.934  23.177  0.00  0.00    +0.000 A 
ATOM      8  C   UNL     1      -3.391  13.043  23.596  0.00  0.00    +0.000 A 
ATOM      9  C   UNL     1      -2.733  14.234  23.884  0.00  0.00    +0.000 A 
ATOM     10  C   UNL     1      -1.362  14.273  23.717  0.00  0.00    +0.000 A 
ATOM     11  N   UNL     1      -0.631  13.221  23.292  0.00  0.00    +0.000 NA
ENDBRANCH   4   6
BRANCH   5  12
ATOM     12  C   UNL     1      -0.152  11.418  20.170  0.00  0.00    +0.000 A 
ATOM     13  C   UNL     1       0.809  12.394  19.863  0.00  0.00    +0.000 A 
ATOM     14  C   UNL     1       0.608  13.277  18.798  0.00  0.00    +0.000 A 
ATOM     15  C   UNL     1      -0.531  13.164  18.007  0.00  0.00    +0.000 A 
ATOM     16  C   UNL     1      -1.466  12.166  18.276  0.00  0.00    +0.000 A 
ATOM     17  C   UNL     1      -1.283  11.297  19.354  0.00  0.00    +0.000 A 
ENDBRANCH   5  12
BRANCH   1  18
ATOM     18  S   UNL     1       1.398   8.474  20.215  0.00  0.00    +0.000 S 
BRANCH  18  19
ATOM     19  C   UNL     1       1.358   6.785  20.891  0.00  0.00    +0.000 C 
BRANCH  19  21
ATOM     20  N   UNL     1       2.996   6.472  19.087  0.00  0.00    +0.000 N 
ATOM     21  C   UNL     1       2.302   5.867  20.122  0.00  0.00    +0.000 C 
ATOM     22  O   UNL     1       2.468   4.696  20.452  0.00  0.00    +0.000 OA
ATOM     23  H   UNL     1       2.752   7.432  18.875  0.00  0.00    +0.000 HD
BRANCH  20  25
ATOM     24  C   UNL     1       5.190   5.290  19.071  0.00  0.00    +0.000 C 
ATOM     25  C   UNL     1       4.008   5.816  18.238  0.00  0.00    +0.000 C 
ATOM     26  C   UNL     1       4.520   6.778  17.153  0.00  0.00    +0.000 C 
ATOM     27  C   UNL     1       3.347   4.611  17.540  0.00  0.00    +0.000 C 
ENDBRANCH  20  25
ENDBRANCH  19  21
ENDBRANCH  18  19
ENDBRANCH   1  18
TORSDOF 6
ENDMDL
MODEL 8
REMARK VINA RESULT:      -7.1      4.058      7.394
REMARK  Name = 
REMARK  9 active torsions:
REMARK  status: ('A' for Active; 'I' for Inactive)
REMARK    1  A    between atoms: C_1  and  C_2
REMARK    2  A    between atoms: C_2  and  C_3
REMARK    3  A    between atoms: C_2  and  C_4
REMARK    4  A    between atoms: C_2  and  N_5
REMARK    5  A    between atoms: C_6  and  C_8
REMARK    6  A    between atoms: C_8  and  S_9
REMARK    7  A    between atoms: S_9  and  C_10
REMARK    8  A    between atoms: C_13  and  C_14
REMARK    9  A    between atoms: N_20  and  C_21
REMARK                            x       y       z     vdW  Elec       q    Type
REMARK                         _______ _______ _______ _____ _____    ______ ____
ROOT
ATOM      1  C   UNL     1       0.917   9.153  21.237  0.00  0.00    +0.000 A 
ATOM      2  N   UNL     1       1.197   8.936  22.502  0.00  0.00    +0.000 NA
ATOM      3  N   UNL     1       0.603   9.922  23.240  0.00  0.00    +0.000 NA
ATOM      4  C   UNL     1      -0.078  10.715  22.425  0.00  0.00    +0.000 A 
ATOM      5  N   UNL     1       0.149  10.305  21.102  0.00  0.00    +0.000 N 
ENDROOT
BRANCH   4   6
ATOM      6  C   UNL     1      -0.993  11.770  22.879  0.00  0.00    +0.000 A 
ATOM      7  C   UNL     1      -2.340  11.520  23.125  0.00  0.00    +0.000 A 
ATOM      8  C   UNL     1      -3.144  12.566  23.579  0.00  0.00    +0.000 A 
ATOM      9  C   UNL     1      -2.586  13.825  23.776  0.00  0.00    +0.000 A 
ATOM     10  C   UNL     1      -1.245  13.992  23.486  0.00  0.00    +0.000 A 
ATOM     11  N   UNL     1      -0.451  13.002  23.026  0.00  0.00    +0.000 NA
ENDBRANCH   4   6
BRANCH   5  12
ATOM     12  C   UNL     1      -0.307  10.942  19.907  0.00  0.00    +0.000 A 
ATOM     13  C   UNL     1       0.190  12.203  19.543  0.00  0.00    +0.000 A 
ATOM     14  C   UNL     1      -0.352  12.892  18.453  0.00  0.00    +0.000 A 
ATOM     15  C   UNL     1      -1.362  12.307  17.694  0.00  0.00    +0.000 A 
ATOM     16  C   UNL     1      -1.825  11.034  18.020  0.00  0.00    +0.000 A 
ATOM     17  C   UNL     1      -1.307  10.352  19.123  0.00  0.00    +0.000 A 
ENDBRANCH   5  12
BRANCH   1  18
ATOM     18  S   UNL     1       1.637   8.242  19.937  0.00  0.00    +0.000 S 
BRANCH  18  19
ATOM     19  C   UNL     1       1.748   6.589  20.691  0.00  0.00    +0.000 C 
BRANCH  19  21
ATOM     20  N   UNL     1       3.830   5.719  19.720  0.00  0.00    +0.000 N 
ATOM     21  C   UNL     1       2.450   5.609  19.757  0.00  0.00    +0.000 C 
ATOM     22  O   UNL     1       1.825   4.751  19.140  0.00  0.00    +0.000 OA
ATOM     23  H   UNL     1       4.240   6.488  20.236  0.00  0.00    +0.000 HD
BRANCH  20  25
ATOM     24  C   UNL     1       6.209   5.251  19.142  0.00  0.00    +0.000 C 
ATOM     25  C   UNL     1       4.737   4.850  18.945  0.00  0.00    +0.000 C 
ATOM     26  C   UNL     1       4.381   4.884  17.450  0.00  0.00    +0.000 C 
ATOM     27  C   UNL     1       4.568   3.403  19.449  0.00  0.00    +0.000 C 
ENDBRANCH  20  25
ENDBRANCH  19  21
ENDBRANCH  18  19
ENDBRANCH   1  18
TORSDOF 6
ENDMDL
MODEL 9
REMARK VINA RESULT:      -7.0      4.272      7.540
REMARK  Name = 
REMARK  9 active torsions:
REMARK  status: ('A' for Active; 'I' for Inactive)
REMARK    1  A    between atoms: C_1  and  C_2
REMARK    2  A    between atoms: C_2  and  C_3
REMARK    3  A    between atoms: C_2  and  C_4
REMARK    4  A    between atoms: C_2  and  N_5
REMARK    5  A    between atoms: C_6  and  C_8
REMARK    6  A    between atoms: C_8  and  S_9
REMARK    7  A    between atoms: S_9  and  C_10
REMARK    8  A    between atoms: C_13  and  C_14
REMARK    9  A    between atoms: N_20  and  C_21
REMARK                            x       y       z     vdW  Elec       q    Type
REMARK                         _______ _______ _______ _____ _____    ______ ____
ROOT
ATOM      1  C   UNL     1       0.737   9.254  21.315  0.00  0.00    +0.000 A 
ATOM      2  N   UNL     1       1.043   9.043  22.575  0.00  0.00    +0.000 NA
ATOM      3  N   UNL     1       0.464  10.033  23.319  0.00  0.00    +0.000 NA
ATOM      4  C   UNL     1      -0.233  10.822  22.514  0.00  0.00    +0.000 A 
ATOM      5  N   UNL     1      -0.033  10.405  21.189  0.00  0.00    +0.000 N 
ENDROOT
BRANCH   4   6
ATOM      6  C   UNL     1      -1.139  11.880  22.980  0.00  0.00    +0.000 A 
ATOM      7  C   UNL     1      -2.495  11.648  23.192  0.00  0.00    +0.000 A 
ATOM      8  C   UNL     1      -3.290  12.695  23.660  0.00  0.00    +0.000 A 
ATOM      9  C   UNL     1      -2.714  13.937  23.905  0.00  0.00    +0.000 A 
ATOM     10  C   UNL     1      -1.365  14.088  23.647  0.00  0.00    +0.000 A 
ATOM     11  N   UNL     1      -0.579  13.098  23.174  0.00  0.00    +0.000 NA
ENDBRANCH   4   6
BRANCH   5  12
ATOM     12  C   UNL     1      -0.512  11.036  19.999  0.00  0.00    +0.000 A 
ATOM     13  C   UNL     1      -1.378  10.350  19.134  0.00  0.00    +0.000 A 
ATOM     14  C   UNL     1      -1.739  10.906  17.903  0.00  0.00    +0.000 A 
ATOM     15  C   UNL     1      -1.273  12.169  17.548  0.00  0.00    +0.000 A 
ATOM     16  C   UNL     1      -0.452  12.877  18.424  0.00  0.00    +0.000 A 
ATOM     17  C   UNL     1      -0.068  12.315  19.643  0.00  0.00    +0.000 A 
ENDBRANCH   5  12
BRANCH   1  18
ATOM     18  S   UNL     1       1.431   8.335  20.005  0.00  0.00    +0.000 S 
BRANCH  18  19
ATOM     19  C   UNL     1       1.518   6.678  20.752  0.00  0.00    +0.000 C 
BRANCH  19  21
ATOM     20  N   UNL     1       1.834   4.452  19.761  0.00  0.00    +0.000 N 
ATOM     21  C   UNL     1       2.345   5.732  19.887  0.00  0.00    +0.000 C 
ATOM     22  O   UNL     1       3.355   6.117  19.302  0.00  0.00    +0.000 OA
ATOM     23  H   UNL     1       1.018   4.230  20.320  0.00  0.00    +0.000 HD
BRANCH  20  25
ATOM     24  C   UNL     1       3.826   2.996  19.412  0.00  0.00    +0.000 C 
ATOM     25  C   UNL     1       2.414   3.377  18.935  0.00  0.00    +0.000 C 
ATOM     26  C   UNL     1       2.455   3.786  17.454  0.00  0.00    +0.000 C 
ATOM     27  C   UNL     1       1.518   2.129  19.065  0.00  0.00    +0.000 C 
ENDBRANCH  20  25
ENDBRANCH  19  21
ENDBRANCH  18  19
ENDBRANCH   1  18
TORSDOF 6
ENDMDL
