MODEL 1
REMARK VINA RESULT:      -6.3      0.000      0.000
REMARK  Name = 
REMARK  6 active torsions:
REMARK  status: ('A' for Active; 'I' for Inactive)
REMARK    1  A    between atoms: C_1  and  O_2
REMARK    2  A    between atoms: O_2  and  C_3
REMARK    3  A    between atoms: C_3  and  C_5
REMARK    4  A    between atoms: C_6  and  C_7
REMARK    5  A    between atoms: C_10  and  O_11
REMARK    6  A    between atoms: O_11  and  C_12
REMARK                            x       y       z     vdW  Elec       q    Type
REMARK                         _______ _______ _______ _____ _____    ______ ____
ROOT
ATOM      1  C   UNL     1      -1.908  13.527  22.415  0.00  0.00    +0.000 C 
ATOM      2  C   UNL     1      -2.040  13.795  21.088  0.00  0.00    +0.000 C 
ATOM      3  C   UNL     1      -2.090  15.241  20.581  0.00  0.00    +0.000 C 
ATOM      4  C   UNL     1      -1.898  16.265  21.730  0.00  0.00    +0.000 C 
ATOM      5  C   UNL     1      -0.436  16.279  22.209  0.00  0.00    +0.000 C 
ATOM      6  C   UNL     1      -0.398  15.287  23.373  0.00  0.00    +0.000 C 
ATOM      7  C   UNL     1      -1.805  14.684  23.412  0.00  0.00    +0.000 C 
ATOM      8  N   UNL     1      -2.643  15.750  22.883  0.00  0.00    +0.000 N 
ATOM      9  C   UNL     1      -3.988  16.016  22.989  0.00  0.00    +0.000 C 
ATOM     10  O   UNL     1      -4.453  16.960  22.333  0.00  0.00    +0.000 OA
ATOM     11  N   UNL     1      -4.815  15.271  23.799  0.00  0.00    +0.000 N 
ATOM     12  C   UNL     1      -4.604  13.987  24.472  0.00  0.00    +0.000 C 
ATOM     13  C   UNL     1      -5.615  12.938  24.004  0.00  0.00    +0.000 C 
ATOM     14  O   UNL     1      -6.950  13.388  24.244  0.00  0.00    +0.000 OA
ATOM     15  C   UNL     1      -7.193  14.612  23.531  0.00  0.00    +0.000 C 
ATOM     16  C   UNL     1      -6.212  15.715  23.959  0.00  0.00    +0.000 C 
ENDROOT
BRANCH   2  17
ATOM     17  C   UNL     1      -2.157  12.777  20.038  0.00  0.00    +0.000 A 
ATOM     18  C   UNL     1      -1.029  12.141  19.515  0.00  0.00    +0.000 A 
ATOM     19  C   UNL     1      -1.173  11.157  18.532  0.00  0.00    +0.000 A 
ATOM     20  C   UNL     1      -2.439  10.783  18.077  0.00  0.00    +0.000 A 
ATOM     21  C   UNL     1      -3.561  11.464  18.558  0.00  0.00    +0.000 A 
ATOM     22  C   UNL     1      -3.424  12.443  19.546  0.00  0.00    +0.000 A 
BRANCH  20  23
ATOM     23  O   UNL     1      -2.457   9.817  17.122  0.00  0.00    +0.000 OA
BRANCH  23  24
ATOM     24  C   UNL     1      -2.918  10.142  15.817  0.00  0.00    +0.000 C 
ATOM     25  F   UNL     1      -4.261  10.178  15.683  0.00  0.00    +0.000 F 
ATOM     26  F   UNL     1      -2.420  11.346  15.459  0.00  0.00    +0.000 F 
ATOM     27  F   UNL     1      -2.444   9.219  14.950  0.00  0.00    +0.000 F 
ENDBRANCH  23  24
ENDBRANCH  20  23
ENDBRANCH   2  17
BRANCH   1  28
ATOM     28  C   UNL     1      -1.977  12.148  22.976  0.00  0.00    +0.000 C 
ATOM     29  O   UNL     1      -2.992  11.585  23.350  0.00  0.00    +0.000 OA
BRANCH  28  31
ATOM     30  C   UNL     1      -0.629  10.241  22.948  0.00  0.00    +0.000 C 
ATOM     31  O   UNL     1      -0.720  11.656  23.135  0.00  0.00    +0.000 OA
ENDBRANCH  28  31
ENDBRANCH   1  28
TORSDOF 5
ENDMDL
MODEL 2
REMARK VINA RESULT:      -6.2      3.526      4.558
REMARK  Name = 
REMARK  6 active torsions:
REMARK  status: ('A' for Active; 'I' for Inactive)
REMARK    1  A    between atoms: C_1  and  O_2
REMARK    2  A    between atoms: O_2  and  C_3
REMARK    3  A    between atoms: C_3  and  C_5
REMARK    4  A    between atoms: C_6  and  C_7
REMARK    5  A    between atoms: C_10  and  O_11
REMARK    6  A    between atoms: O_11  and  C_12
REMARK                            x       y       z     vdW  Elec       q    Type
REMARK                         _______ _______ _______ _____ _____    ______ ____
ROOT
ATOM      1  C   UNL     1      -4.515  14.100  22.350  0.00  0.00    +0.000 C 
ATOM      2  C   UNL     1      -3.248  14.207  21.867  0.00  0.00    +0.000 C 
ATOM      3  C   UNL     1      -2.653  15.578  21.524  0.00  0.00    +0.000 C 
ATOM      4  C   UNL     1      -3.626  16.736  21.869  0.00  0.00    +0.000 C 
ATOM      5  C   UNL     1      -3.714  16.938  23.391  0.00  0.00    +0.000 C 
ATOM      6  C   UNL     1      -4.907  16.088  23.830  0.00  0.00    +0.000 C 
ATOM      7  C   UNL     1      -5.354  15.364  22.557  0.00  0.00    +0.000 C 
ATOM      8  N   UNL     1      -4.970  16.282  21.494  0.00  0.00    +0.000 N 
ATOM      9  C   UNL     1      -5.393  16.431  20.195  0.00  0.00    +0.000 C 
ATOM     10  O   UNL     1      -4.802  17.250  19.475  0.00  0.00    +0.000 OA
ATOM     11  N   UNL     1      -6.446  15.705  19.685  0.00  0.00    +0.000 N 
ATOM     12  C   UNL     1      -7.146  14.528  20.204  0.00  0.00    +0.000 C 
ATOM     13  C   UNL     1      -7.040  13.344  19.241  0.00  0.00    +0.000 C 
ATOM     14  O   UNL     1      -7.575  13.691  17.961  0.00  0.00    +0.000 OA
ATOM     15  C   UNL     1      -6.849  14.801  17.409  0.00  0.00    +0.000 C 
ATOM     16  C   UNL     1      -6.919  16.031  18.327  0.00  0.00    +0.000 C 
ENDROOT
BRANCH   2  17
ATOM     17  C   UNL     1      -2.351  13.074  21.617  0.00  0.00    +0.000 A 
ATOM     18  C   UNL     1      -2.233  12.509  20.345  0.00  0.00    +0.000 A 
ATOM     19  C   UNL     1      -1.351  11.446  20.130  0.00  0.00    +0.000 A 
ATOM     20  C   UNL     1      -0.565  10.950  21.172  0.00  0.00    +0.000 A 
ATOM     21  C   UNL     1      -0.730  11.476  22.456  0.00  0.00    +0.000 A 
ATOM     22  C   UNL     1      -1.604  12.544  22.676  0.00  0.00    +0.000 A 
BRANCH  20  23
ATOM     23  O   UNL     1       0.255   9.916  20.847  0.00  0.00    +0.000 OA
BRANCH  23  24
ATOM     24  C   UNL     1       0.295   8.772  21.691  0.00  0.00    +0.000 C 
ATOM     25  F   UNL     1      -0.912   8.326  22.097  0.00  0.00    +0.000 F 
ATOM     26  F   UNL     1       0.928   7.768  21.045  0.00  0.00    +0.000 F 
ATOM     27  F   UNL     1       1.013   9.077  22.795  0.00  0.00    +0.000 F 
ENDBRANCH  23  24
ENDBRANCH  20  23
ENDBRANCH   2  17
BRANCH   1  28
ATOM     28  C   UNL     1      -5.187  12.791  22.584  0.00  0.00    +0.000 C 
ATOM     29  O   UNL     1      -5.467  11.974  21.722  0.00  0.00    +0.000 OA
BRANCH  28  31
ATOM     30  C   UNL     1      -4.494  12.357  24.772  0.00  0.00    +0.000 C 
ATOM     31  O   UNL     1      -5.564  12.697  23.887  0.00  0.00    +0.000 OA
ENDBRANCH  28  31
ENDBRANCH   1  28
TORSDOF 5
ENDMDL
MODEL 3
REMARK VINA RESULT:      -6.2      3.659      5.295
REMARK  Name = 
REMARK  6 active torsions:
REMARK  status: ('A' for Active; 'I' for Inactive)
REMARK    1  A    between atoms: C_1  and  O_2
REMARK    2  A    between atoms: O_2  and  C_3
REMARK    3  A    between atoms: C_3  and  C_5
REMARK    4  A    between atoms: C_6  and  C_7
REMARK    5  A    between atoms: C_10  and  O_11
REMARK    6  A    between atoms: O_11  and  C_12
REMARK                            x       y       z     vdW  Elec       q    Type
REMARK                         _______ _______ _______ _____ _____    ______ ____
ROOT
ATOM      1  C   UNL     1      -6.241  12.974  21.552  0.00  0.00    +0.000 C 
ATOM      2  C   UNL     1      -5.061  13.527  21.943  0.00  0.00    +0.000 C 
ATOM      3  C   UNL     1      -5.034  14.857  22.705  0.00  0.00    +0.000 C 
ATOM      4  C   UNL     1      -6.462  15.384  23.006  0.00  0.00    +0.000 C 
ATOM      5  C   UNL     1      -7.132  14.544  24.106  0.00  0.00    +0.000 C 
ATOM      6  C   UNL     1      -7.916  13.469  23.354  0.00  0.00    +0.000 C 
ATOM      7  C   UNL     1      -7.555  13.687  21.882  0.00  0.00    +0.000 C 
ATOM      8  N   UNL     1      -7.271  15.113  21.812  0.00  0.00    +0.000 N 
ATOM      9  C   UNL     1      -7.254  16.009  20.769  0.00  0.00    +0.000 C 
ATOM     10  O   UNL     1      -6.868  17.165  20.996  0.00  0.00    +0.000 OA
ATOM     11  N   UNL     1      -7.657  15.656  19.501  0.00  0.00    +0.000 N 
ATOM     12  C   UNL     1      -7.915  14.345  18.902  0.00  0.00    +0.000 C 
ATOM     13  C   UNL     1      -6.997  14.088  17.705  0.00  0.00    +0.000 C 
ATOM     14  O   UNL     1      -7.166  15.106  16.716  0.00  0.00    +0.000 OA
ATOM     15  C   UNL     1      -6.847  16.392  17.274  0.00  0.00    +0.000 C 
ATOM     16  C   UNL     1      -7.740  16.718  18.481  0.00  0.00    +0.000 C 
ENDROOT
BRANCH   2  17
ATOM     17  C   UNL     1      -3.739  12.949  21.680  0.00  0.00    +0.000 A 
ATOM     18  C   UNL     1      -3.025  12.288  22.683  0.00  0.00    +0.000 A 
ATOM     19  C   UNL     1      -1.778  11.724  22.397  0.00  0.00    +0.000 A 
ATOM     20  C   UNL     1      -1.241  11.795  21.110  0.00  0.00    +0.000 A 
ATOM     21  C   UNL     1      -1.929  12.510  20.126  0.00  0.00    +0.000 A 
ATOM     22  C   UNL     1      -3.180  13.068  20.403  0.00  0.00    +0.000 A 
BRANCH  20  23
ATOM     23  O   UNL     1      -0.023  11.212  20.950  0.00  0.00    +0.000 OA
BRANCH  23  24
ATOM     24  C   UNL     1       0.046   9.882  20.449  0.00  0.00    +0.000 C 
ATOM     25  F   UNL     1      -0.643   8.970  21.167  0.00  0.00    +0.000 F 
ATOM     26  F   UNL     1      -0.411   9.863  19.178  0.00  0.00    +0.000 F 
ATOM     27  F   UNL     1       1.342   9.497  20.433  0.00  0.00    +0.000 F 
ENDBRANCH  23  24
ENDBRANCH  20  23
ENDBRANCH   2  17
BRANCH   1  28
ATOM     28  C   UNL     1      -6.323  11.751  20.705  0.00  0.00    +0.000 C 
ATOM     29  O   UNL     1      -5.858  11.633  19.584  0.00  0.00    +0.000 OA
BRANCH  28  31
ATOM     30  C   UNL     1      -7.536   9.772  20.445  0.00  0.00    +0.000 C 
ATOM     31  O   UNL     1      -7.110  10.825  21.314  0.00  0.00    +0.000 OA
ENDBRANCH  28  31
ENDBRANCH   1  28
TORSDOF 5
ENDMDL
MODEL 4
REMARK VINA RESULT:      -6.2      3.641      5.364
REMARK  Name = 
REMARK  6 active torsions:
REMARK  status: ('A' for Active; 'I' for Inactive)
REMARK    1  A    between atoms: C_1  and  O_2
REMARK    2  A    between atoms: O_2  and  C_3
REMARK    3  A    between atoms: C_3  and  C_5
REMARK    4  A    between atoms: C_6  and  C_7
REMARK    5  A    between atoms: C_10  and  O_11
REMARK    6  A    between atoms: O_11  and  C_12
REMARK                            x       y       z     vdW  Elec       q    Type
REMARK                         _______ _______ _______ _____ _____    ______ ____
ROOT
ATOM      1  C   UNL     1      -6.127  12.791  21.390  0.00  0.00    +0.000 C 
ATOM      2  C   UNL     1      -5.013  13.379  21.904  0.00  0.00    +0.000 C 
ATOM      3  C   UNL     1      -5.123  14.612  22.808  0.00  0.00    +0.000 C 
ATOM      4  C   UNL     1      -6.600  14.997  23.086  0.00  0.00    +0.000 C 
ATOM      5  C   UNL     1      -7.253  13.992  24.050  0.00  0.00    +0.000 C 
ATOM      6  C   UNL     1      -7.916  12.956  23.142  0.00  0.00    +0.000 C 
ATOM      7  C   UNL     1      -7.506  13.365  21.725  0.00  0.00    +0.000 C 
ATOM      8  N   UNL     1      -7.329  14.807  21.828  0.00  0.00    +0.000 N 
ATOM      9  C   UNL     1      -7.334  15.815  20.893  0.00  0.00    +0.000 C 
ATOM     10  O   UNL     1      -7.049  16.962  21.266  0.00  0.00    +0.000 OA
ATOM     11  N   UNL     1      -7.650  15.581  19.573  0.00  0.00    +0.000 N 
ATOM     12  C   UNL     1      -7.778  14.332  18.820  0.00  0.00    +0.000 C 
ATOM     13  C   UNL     1      -6.789  14.279  17.654  0.00  0.00    +0.000 C 
ATOM     14  O   UNL     1      -6.990  15.388  16.776  0.00  0.00    +0.000 OA
ATOM     15  C   UNL     1      -6.797  16.622  17.488  0.00  0.00    +0.000 C 
ATOM     16  C   UNL     1      -7.767  16.743  18.673  0.00  0.00    +0.000 C 
ENDROOT
BRANCH   2  17
ATOM     17  C   UNL     1      -3.639  12.930  21.651  0.00  0.00    +0.000 A 
ATOM     18  C   UNL     1      -2.994  13.216  20.445  0.00  0.00    +0.000 A 
ATOM     19  C   UNL     1      -1.675  12.796  20.241  0.00  0.00    +0.000 A 
ATOM     20  C   UNL     1      -0.983  12.110  21.241  0.00  0.00    +0.000 A 
ATOM     21  C   UNL     1      -1.651  11.773  22.421  0.00  0.00    +0.000 A 
ATOM     22  C   UNL     1      -2.966  12.196  22.634  0.00  0.00    +0.000 A 
BRANCH  20  23
ATOM     23  O   UNL     1       0.292  11.753  20.931  0.00  0.00    +0.000 OA
BRANCH  23  24
ATOM     24  C   UNL     1       0.536  10.462  20.387  0.00  0.00    +0.000 C 
ATOM     25  F   UNL     1      -0.563   9.818  19.942  0.00  0.00    +0.000 F 
ATOM     26  F   UNL     1       1.414  10.571  19.365  0.00  0.00    +0.000 F 
ATOM     27  F   UNL     1       1.103   9.693  21.344  0.00  0.00    +0.000 F 
ENDBRANCH  23  24
ENDBRANCH  20  23
ENDBRANCH   2  17
BRANCH   1  28
ATOM     28  C   UNL     1      -6.075  11.669  20.411  0.00  0.00    +0.000 C 
ATOM     29  O   UNL     1      -5.518  11.702  19.325  0.00  0.00    +0.000 OA
BRANCH  28  31
ATOM     30  C   UNL     1      -7.223   9.725  19.816  0.00  0.00    +0.000 C 
ATOM     31  O   UNL     1      -6.854  10.645  20.847  0.00  0.00    +0.000 OA
ENDBRANCH  28  31
ENDBRANCH   1  28
TORSDOF 5
ENDMDL
MODEL 5
REMARK VINA RESULT:      -6.1      3.455      5.492
REMARK  Name = 
REMARK  6 active torsions:
REMARK  status: ('A' for Active; 'I' for Inactive)
REMARK    1  A    between atoms: C_1  and  O_2
REMARK    2  A    between atoms: O_2  and  C_3
REMARK    3  A    between atoms: C_3  and  C_5
REMARK    4  A    between atoms: C_6  and  C_7
REMARK    5  A    between atoms: C_10  and  O_11
REMARK    6  A    between atoms: O_11  and  C_12
REMARK                            x       y       z     vdW  Elec       q    Type
REMARK                         _______ _______ _______ _____ _____    ______ ____
ROOT
ATOM      1  C   UNL     1      -5.986  13.043  21.771  0.00  0.00    +0.000 C 
ATOM      2  C   UNL     1      -5.003  13.667  22.474  0.00  0.00    +0.000 C 
ATOM      3  C   UNL     1      -5.344  14.715  23.540  0.00  0.00    +0.000 C 
ATOM      4  C   UNL     1      -6.876  14.873  23.728  0.00  0.00    +0.000 C 
ATOM      5  C   UNL     1      -7.464  13.654  24.459  0.00  0.00    +0.000 C 
ATOM      6  C   UNL     1      -7.913  12.709  23.344  0.00  0.00    +0.000 C 
ATOM      7  C   UNL     1      -7.450  13.389  22.053  0.00  0.00    +0.000 C 
ATOM      8  N   UNL     1      -7.474  14.806  22.390  0.00  0.00    +0.000 N 
ATOM      9  C   UNL     1      -7.539  15.944  21.622  0.00  0.00    +0.000 C 
ATOM     10  O   UNL     1      -7.437  17.041  22.191  0.00  0.00    +0.000 OA
ATOM     11  N   UNL     1      -7.717  15.893  20.258  0.00  0.00    +0.000 N 
ATOM     12  C   UNL     1      -7.620  14.776  19.315  0.00  0.00    +0.000 C 
ATOM     13  C   UNL     1      -6.545  15.031  18.257  0.00  0.00    +0.000 C 
ATOM     14  O   UNL     1      -6.821  16.236  17.542  0.00  0.00    +0.000 OA
ATOM     15  C   UNL     1      -6.849  17.352  18.448  0.00  0.00    +0.000 C 
ATOM     16  C   UNL     1      -7.915  17.164  19.538  0.00  0.00    +0.000 C 
ENDROOT
BRANCH   2  17
ATOM     17  C   UNL     1      -3.567  13.430  22.292  0.00  0.00    +0.000 A 
ATOM     18  C   UNL     1      -2.916  12.382  22.948  0.00  0.00    +0.000 A 
ATOM     19  C   UNL     1      -1.551  12.165  22.737  0.00  0.00    +0.000 A 
ATOM     20  C   UNL     1      -0.828  12.972  21.856  0.00  0.00    +0.000 A 
ATOM     21  C   UNL     1      -1.468  14.056  21.249  0.00  0.00    +0.000 A 
ATOM     22  C   UNL     1      -2.834  14.274  21.451  0.00  0.00    +0.000 A 
BRANCH  20  23
ATOM     23  O   UNL     1       0.491  12.667  21.729  0.00  0.00    +0.000 OA
BRANCH  23  24
ATOM     24  C   UNL     1       0.893  11.740  20.729  0.00  0.00    +0.000 C 
ATOM     25  F   UNL     1       1.889  12.170  19.925  0.00  0.00    +0.000 F 
ATOM     26  F   UNL     1       1.286  10.592  21.322  0.00  0.00    +0.000 F 
ATOM     27  F   UNL     1      -0.174  11.462  19.946  0.00  0.00    +0.000 F 
ENDBRANCH  23  24
ENDBRANCH  20  23
ENDBRANCH   2  17
BRANCH   1  28
ATOM     28  C   UNL     1      -5.711  12.110  20.643  0.00  0.00    +0.000 C 
ATOM     29  O   UNL     1      -4.963  12.333  19.706  0.00  0.00    +0.000 OA
BRANCH  28  31
ATOM     30  C   UNL     1      -7.023  10.565  19.483  0.00  0.00    +0.000 C 
ATOM     31  O   UNL     1      -6.520  11.022  20.741  0.00  0.00    +0.000 OA
ENDBRANCH  28  31
ENDBRANCH   1  28
TORSDOF 5
ENDMDL
MODEL 6
REMARK VINA RESULT:      -6.0      3.376      5.541
REMARK  Name = 
REMARK  6 active torsions:
REMARK  status: ('A' for Active; 'I' for Inactive)
REMARK    1  A    between atoms: C_1  and  O_2
REMARK    2  A    between atoms: O_2  and  C_3
REMARK    3  A    between atoms: C_3  and  C_5
REMARK    4  A    between atoms: C_6  and  C_7
REMARK    5  A    between atoms: C_10  and  O_11
REMARK    6  A    between atoms: O_11  and  C_12
REMARK                            x       y       z     vdW  Elec       q    Type
REMARK                         _______ _______ _______ _____ _____    ______ ____
ROOT
ATOM      1  C   UNL     1      -1.765  12.265  20.519  0.00  0.00    +0.000 C 
ATOM      2  C   UNL     1      -0.976  11.506  21.326  0.00  0.00    +0.000 C 
ATOM      3  C   UNL     1      -0.926  11.759  22.837  0.00  0.00    +0.000 C 
ATOM      4  C   UNL     1      -1.907  12.879  23.270  0.00  0.00    +0.000 C 
ATOM      5  C   UNL     1      -3.362  12.383  23.205  0.00  0.00    +0.000 C 
ATOM      6  C   UNL     1      -3.850  12.787  21.813  0.00  0.00    +0.000 C 
ATOM      7  C   UNL     1      -2.616  13.381  21.129  0.00  0.00    +0.000 C 
ATOM      8  N   UNL     1      -1.842  13.920  22.239  0.00  0.00    +0.000 N 
ATOM      9  C   UNL     1      -0.857  14.877  22.309  0.00  0.00    +0.000 C 
ATOM     10  O   UNL     1      -0.294  15.060  23.398  0.00  0.00    +0.000 OA
ATOM     11  N   UNL     1      -0.493  15.628  21.214  0.00  0.00    +0.000 N 
ATOM     12  C   UNL     1      -0.796  15.465  19.790  0.00  0.00    +0.000 C 
ATOM     13  C   UNL     1       0.480  15.291  18.964  0.00  0.00    +0.000 C 
ATOM     14  O   UNL     1       1.348  16.412  19.141  0.00  0.00    +0.000 OA
ATOM     15  C   UNL     1       1.710  16.540  20.526  0.00  0.00    +0.000 C 
ATOM     16  C   UNL     1       0.471  16.725  21.416  0.00  0.00    +0.000 C 
ENDROOT
BRANCH   2  17
ATOM     17  C   UNL     1      -0.110  10.416  20.862  0.00  0.00    +0.000 A 
ATOM     18  C   UNL     1       0.843  10.623  19.862  0.00  0.00    +0.000 A 
ATOM     19  C   UNL     1       1.672   9.572  19.457  0.00  0.00    +0.000 A 
ATOM     20  C   UNL     1       1.574   8.315  20.057  0.00  0.00    +0.000 A 
ATOM     21  C   UNL     1       0.579   8.095  21.013  0.00  0.00    +0.000 A 
ATOM     22  C   UNL     1      -0.247   9.144  21.428  0.00  0.00    +0.000 A 
BRANCH  20  23
ATOM     23  O   UNL     1       2.430   7.371  19.584  0.00  0.00    +0.000 OA
BRANCH  23  24
ATOM     24  C   UNL     1       2.405   7.047  18.199  0.00  0.00    +0.000 C 
ATOM     25  F   UNL     1       1.610   7.837  17.446  0.00  0.00    +0.000 F 
ATOM     26  F   UNL     1       3.662   7.110  17.707  0.00  0.00    +0.000 F 
ATOM     27  F   UNL     1       1.966   5.775  18.063  0.00  0.00    +0.000 F 
ENDBRANCH  23  24
ENDBRANCH  20  23
ENDBRANCH   2  17
BRANCH   1  28
ATOM     28  C   UNL     1      -1.761  12.145  19.034  0.00  0.00    +0.000 C 
ATOM     29  O   UNL     1      -0.999  12.727  18.278  0.00  0.00    +0.000 OA
BRANCH  28  31
ATOM     30  C   UNL     1      -2.448  10.211  17.921  0.00  0.00    +0.000 C 
ATOM     31  O   UNL     1      -2.820  11.394  18.632  0.00  0.00    +0.000 OA
ENDBRANCH  28  31
ENDBRANCH   1  28
TORSDOF 5
ENDMDL
MODEL 7
REMARK VINA RESULT:      -6.0      3.804      6.027
REMARK  Name = 
REMARK  6 active torsions:
REMARK  status: ('A' for Active; 'I' for Inactive)
REMARK    1  A    between atoms: C_1  and  O_2
REMARK    2  A    between atoms: O_2  and  C_3
REMARK    3  A    between atoms: C_3  and  C_5
REMARK    4  A    between atoms: C_6  and  C_7
REMARK    5  A    between atoms: C_10  and  O_11
REMARK    6  A    between atoms: O_11  and  C_12
REMARK                            x       y       z     vdW  Elec       q    Type
REMARK                         _______ _______ _______ _____ _____    ______ ____
ROOT
ATOM      1  C   UNL     1      -1.544  12.008  20.366  0.00  0.00    +0.000 C 
ATOM      2  C   UNL     1      -0.792  11.269  21.225  0.00  0.00    +0.000 C 
ATOM      3  C   UNL     1      -0.766  11.593  22.723  0.00  0.00    +0.000 C 
ATOM      4  C   UNL     1      -1.726  12.758  23.081  0.00  0.00    +0.000 C 
ATOM      5  C   UNL     1      -3.192  12.297  23.008  0.00  0.00    +0.000 C 
ATOM      6  C   UNL     1      -3.640  12.646  21.589  0.00  0.00    +0.000 C 
ATOM      7  C   UNL     1      -2.377  13.174  20.904  0.00  0.00    +0.000 C 
ATOM      8  N   UNL     1      -1.611  13.745  22.003  0.00  0.00    +0.000 N 
ATOM      9  C   UNL     1      -0.603  14.679  22.048  0.00  0.00    +0.000 C 
ATOM     10  O   UNL     1      -0.057  14.900  23.139  0.00  0.00    +0.000 OA
ATOM     11  N   UNL     1      -0.197  15.366  20.927  0.00  0.00    +0.000 N 
ATOM     12  C   UNL     1      -0.475  15.142  19.506  0.00  0.00    +0.000 C 
ATOM     13  C   UNL     1       0.813  14.896  18.717  0.00  0.00    +0.000 C 
ATOM     14  O   UNL     1       1.707  16.001  18.859  0.00  0.00    +0.000 OA
ATOM     15  C   UNL     1       2.044  16.187  20.244  0.00  0.00    +0.000 C 
ATOM     16  C   UNL     1       0.792  16.447  21.097  0.00  0.00    +0.000 C 
ENDROOT
BRANCH   2  17
ATOM     17  C   UNL     1       0.054  10.136  20.833  0.00  0.00    +0.000 A 
ATOM     18  C   UNL     1       0.682  10.098  19.586  0.00  0.00    +0.000 A 
ATOM     19  C   UNL     1       1.502   9.017  19.248  0.00  0.00    +0.000 A 
ATOM     20  C   UNL     1       1.721   7.977  20.155  0.00  0.00    +0.000 A 
ATOM     21  C   UNL     1       1.042   7.988  21.376  0.00  0.00    +0.000 A 
ATOM     22  C   UNL     1       0.227   9.070  21.722  0.00  0.00    +0.000 A 
BRANCH  20  23
ATOM     23  O   UNL     1       2.536   6.981  19.718  0.00  0.00    +0.000 OA
BRANCH  23  24
ATOM     24  C   UNL     1       2.115   5.630  19.861  0.00  0.00    +0.000 C 
ATOM     25  F   UNL     1       1.056   5.450  20.678  0.00  0.00    +0.000 F 
ATOM     26  F   UNL     1       1.807   5.131  18.643  0.00  0.00    +0.000 F 
ATOM     27  F   UNL     1       3.145   4.909  20.359  0.00  0.00    +0.000 F 
ENDBRANCH  23  24
ENDBRANCH  20  23
ENDBRANCH   2  17
BRANCH   1  28
ATOM     28  C   UNL     1      -1.513  11.817  18.888  0.00  0.00    +0.000 C 
ATOM     29  O   UNL     1      -0.829  12.455  18.106  0.00  0.00    +0.000 OA
BRANCH  28  31
ATOM     30  C   UNL     1      -3.531  11.480  17.762  0.00  0.00    +0.000 C 
ATOM     31  O   UNL     1      -2.462  10.914  18.524  0.00  0.00    +0.000 OA
ENDBRANCH  28  31
ENDBRANCH   1  28
TORSDOF 5
ENDMDL
MODEL 8
REMARK VINA RESULT:      -5.9     10.341     12.882
REMARK  Name = 
REMARK  6 active torsions:
REMARK  status: ('A' for Active; 'I' for Inactive)
REMARK    1  A    between atoms: C_1  and  O_2
REMARK    2  A    between atoms: O_2  and  C_3
REMARK    3  A    between atoms: C_3  and  C_5
REMARK    4  A    between atoms: C_6  and  C_7
REMARK    5  A    between atoms: C_10  and  O_11
REMARK    6  A    between atoms: O_11  and  C_12
REMARK                            x       y       z     vdW  Elec       q    Type
REMARK                         _______ _______ _______ _____ _____    ______ ____
ROOT
ATOM      1  C   UNL     1       9.517  13.833  21.516  0.00  0.00    +0.000 C 
ATOM      2  C   UNL     1       9.000  12.616  21.834  0.00  0.00    +0.000 C 
ATOM      3  C   UNL     1       9.157  11.425  20.881  0.00  0.00    +0.000 C 
ATOM      4  C   UNL     1      10.005  11.787  19.634  0.00  0.00    +0.000 C 
ATOM      5  C   UNL     1      11.490  11.931  20.009  0.00  0.00    +0.000 C 
ATOM      6  C   UNL     1      11.675  13.420  20.304  0.00  0.00    +0.000 C 
ATOM      7  C   UNL     1      10.267  14.013  20.194  0.00  0.00    +0.000 C 
ATOM      8  N   UNL     1       9.608  13.141  19.232  0.00  0.00    +0.000 N 
ATOM      9  C   UNL     1       8.509  13.309  18.425  0.00  0.00    +0.000 C 
ATOM     10  O   UNL     1       8.109  12.336  17.769  0.00  0.00    +0.000 OA
ATOM     11  N   UNL     1       7.857  14.517  18.325  0.00  0.00    +0.000 N 
ATOM     12  C   UNL     1       7.947  15.731  19.141  0.00  0.00    +0.000 C 
ATOM     13  C   UNL     1       6.597  16.080  19.772  0.00  0.00    +0.000 C 
ATOM     14  O   UNL     1       5.603  16.257  18.762  0.00  0.00    +0.000 OA
ATOM     15  C   UNL     1       5.455  15.049  17.998  0.00  0.00    +0.000 C 
ATOM     16  C   UNL     1       6.777  14.642  17.329  0.00  0.00    +0.000 C 
ENDROOT
BRANCH   2  17
ATOM     17  C   UNL     1       8.255  12.319  23.062  0.00  0.00    +0.000 A 
ATOM     18  C   UNL     1       6.920  11.909  23.018  0.00  0.00    +0.000 A 
ATOM     19  C   UNL     1       6.241  11.610  24.204  0.00  0.00    +0.000 A 
ATOM     20  C   UNL     1       6.890  11.693  25.438  0.00  0.00    +0.000 A 
ATOM     21  C   UNL     1       8.205  12.162  25.482  0.00  0.00    +0.000 A 
ATOM     22  C   UNL     1       8.892  12.456  24.300  0.00  0.00    +0.000 A 
BRANCH  20  23
ATOM     23  O   UNL     1       6.132  11.378  26.521  0.00  0.00    +0.000 OA
BRANCH  23  24
ATOM     24  C   UNL     1       5.319  12.383  27.113  0.00  0.00    +0.000 C 
ATOM     25  F   UNL     1       5.208  13.519  26.393  0.00  0.00    +0.000 F 
ATOM     26  F   UNL     1       4.080  11.886  27.323  0.00  0.00    +0.000 F 
ATOM     27  F   UNL     1       5.847  12.710  28.315  0.00  0.00    +0.000 F 
ENDBRANCH  23  24
ENDBRANCH  20  23
ENDBRANCH   2  17
BRANCH   1  28
ATOM     28  C   UNL     1       9.291  15.052  22.343  0.00  0.00    +0.000 C 
ATOM     29  O   UNL     1       8.202  15.525  22.625  0.00  0.00    +0.000 OA
BRANCH  28  31
ATOM     30  C   UNL     1      10.429  16.540  23.737  0.00  0.00    +0.000 C 
ATOM     31  O   UNL     1      10.483  15.639  22.628  0.00  0.00    +0.000 OA
ENDBRANCH  28  31
ENDBRANCH   1  28
TORSDOF 5
ENDMDL
MODEL 9
REMARK VINA RESULT:      -5.9      2.520      3.763
REMARK  Name = 
REMARK  6 active torsions:
REMARK  status: ('A' for Active; 'I' for Inactive)
REMARK    1  A    between atoms: C_1  and  O_2
REMARK    2  A    between atoms: O_2  and  C_3
REMARK    3  A    between atoms: C_3  and  C_5
REMARK    4  A    between atoms: C_6  and  C_7
REMARK    5  A    between atoms: C_10  and  O_11
REMARK    6  A    between atoms: O_11  and  C_12
REMARK                            x       y       z     vdW  Elec       q    Type
REMARK                         _______ _______ _______ _____ _____    ______ ____
ROOT
ATOM      1  C   UNL     1      -3.092  13.717  23.443  0.00  0.00    +0.000 C 
ATOM      2  C   UNL     1      -1.831  13.599  22.947  0.00  0.00    +0.000 C 
ATOM      3  C   UNL     1      -0.789  14.698  23.183  0.00  0.00    +0.000 C 
ATOM      4  C   UNL     1      -1.341  15.838  24.079  0.00  0.00    +0.000 C 
ATOM      5  C   UNL     1      -1.464  15.371  25.540  0.00  0.00    +0.000 C 
ATOM      6  C   UNL     1      -2.901  14.863  25.667  0.00  0.00    +0.000 C 
ATOM      7  C   UNL     1      -3.472  14.961  24.250  0.00  0.00    +0.000 C 
ATOM      8  N   UNL     1      -2.729  16.067  23.663  0.00  0.00    +0.000 N 
ATOM      9  C   UNL     1      -2.985  16.899  22.599  0.00  0.00    +0.000 C 
ATOM     10  O   UNL     1      -2.105  17.703  22.258  0.00  0.00    +0.000 OA
ATOM     11  N   UNL     1      -4.181  16.863  21.918  0.00  0.00    +0.000 N 
ATOM     12  C   UNL     1      -5.269  15.882  21.934  0.00  0.00    +0.000 C 
ATOM     13  C   UNL     1      -5.497  15.278  20.546  0.00  0.00    +0.000 C 
ATOM     14  O   UNL     1      -5.792  16.304  19.596  0.00  0.00    +0.000 OA
ATOM     15  C   UNL     1      -4.700  17.235  19.520  0.00  0.00    +0.000 C 
ATOM     16  C   UNL     1      -4.420  17.885  20.883  0.00  0.00    +0.000 C 
ENDROOT
BRANCH   2  17
ATOM     17  C   UNL     1      -1.348  12.463  22.153  0.00  0.00    +0.000 A 
ATOM     18  C   UNL     1      -1.376  12.492  20.757  0.00  0.00    +0.000 A 
ATOM     19  C   UNL     1      -0.887  11.405  20.025  0.00  0.00    +0.000 A 
ATOM     20  C   UNL     1      -0.347  10.293  20.675  0.00  0.00    +0.000 A 
ATOM     21  C   UNL     1      -0.378  10.242  22.071  0.00  0.00    +0.000 A 
ATOM     22  C   UNL     1      -0.859  11.328  22.808  0.00  0.00    +0.000 A 
BRANCH  20  23
ATOM     23  O   UNL     1       0.098   9.298  19.862  0.00  0.00    +0.000 OA
BRANCH  23  24
ATOM     24  C   UNL     1       1.037   9.609  18.840  0.00  0.00    +0.000 C 
ATOM     25  F   UNL     1       1.690  10.778  19.007  0.00  0.00    +0.000 F 
ATOM     26  F   UNL     1       1.950   8.616  18.761  0.00  0.00    +0.000 F 
ATOM     27  F   UNL     1       0.382   9.669  17.659  0.00  0.00    +0.000 F 
ENDBRANCH  23  24
ENDBRANCH  20  23
ENDBRANCH   2  17
BRANCH   1  28
ATOM     28  C   UNL     1      -4.177  12.741  23.143  0.00  0.00    +0.000 C 
ATOM     29  O   UNL     1      -4.552  12.419  22.027  0.00  0.00    +0.000 OA
BRANCH  28  31
ATOM     30  C   UNL     1      -6.207  12.483  24.269  0.00  0.00    +0.000 C 
ATOM     31  O   UNL     1      -4.783  12.360  24.299  0.00  0.00    +0.000 OA
ENDBRANCH  28  31
ENDBRANCH   1  28
TORSDOF 5
ENDMDL
