MODEL 1
REMARK VINA RESULT:      -7.4      0.000      0.000
REMARK  Name = 
REMARK  2 active torsions:
REMARK  status: ('A' for Active; 'I' for Inactive)
REMARK    1  A    between atoms: O_1  and  C_2
REMARK    2  A    between atoms: C_11  and  C_12
REMARK                            x       y       z     vdW  Elec       q    Type
REMARK                         _______ _______ _______ _____ _____    ______ ____
ROOT
ATOM      1  C   UNL     1       1.978   4.228  18.612  0.00  0.00    +0.000 C 
ATOM      2  C   UNL     1       2.716   2.882  18.606  0.00  0.00    +0.000 C 
ATOM      3  C   UNL     1       3.666   2.811  17.408  0.00  0.00    +0.000 C 
ATOM      4  N   UNL     1       4.644   3.920  17.420  0.00  0.00    +0.000 NA
ATOM      5  C   UNL     1       5.495   3.823  16.212  0.00  0.00    +0.000 C 
ATOM      6  C   UNL     1       6.608   4.871  16.251  0.00  0.00    +0.000 C 
ATOM      7  C   UNL     1       6.003   6.271  16.358  0.00  0.00    +0.000 C 
ATOM      8  C   UNL     1       5.097   6.349  17.584  0.00  0.00    +0.000 C 
ATOM      9  C   UNL     1       3.998   5.263  17.491  0.00  0.00    +0.000 C 
ATOM     10  C   UNL     1       3.041   5.346  18.714  0.00  0.00    +0.000 C 
ENDROOT
BRANCH  10  11
ATOM     11  C   UNL     1       2.423   6.729  18.881  0.00  0.00    +0.000 A 
ATOM     12  C   UNL     1       2.272   7.622  17.800  0.00  0.00    +0.000 A 
ATOM     13  C   UNL     1       1.724   8.894  18.001  0.00  0.00    +0.000 A 
ATOM     14  C   UNL     1       1.323   9.297  19.278  0.00  0.00    +0.000 A 
ATOM     15 CL   UNL     1       0.652  10.907  19.494  0.00  0.00    +0.000 Cl
ATOM     16  C   UNL     1       1.468   8.418  20.364  0.00  0.00    +0.000 A 
ATOM     17 CL   UNL     1       0.984   8.888  21.988  0.00  0.00    +0.000 Cl
ATOM     18  C   UNL     1       2.014   7.148  20.161  0.00  0.00    +0.000 A 
ENDBRANCH  10  11
BRANCH   1  19
ATOM     19  O   UNL     1       1.212   4.380  17.442  0.00  0.00    +0.000 OA
ATOM     20  H   UNL     1       0.526   3.662  17.433  0.00  0.00    +0.000 HD
ENDBRANCH   1  19
TORSDOF 2
ENDMDL
MODEL 2
REMARK VINA RESULT:      -7.1      4.149      6.078
REMARK  Name = 
REMARK  2 active torsions:
REMARK  status: ('A' for Active; 'I' for Inactive)
REMARK    1  A    between atoms: O_1  and  C_2
REMARK    2  A    between atoms: C_11  and  C_12
REMARK                            x       y       z     vdW  Elec       q    Type
REMARK                         _______ _______ _______ _____ _____    ______ ____
ROOT
ATOM      1  C   UNL     1       4.379   3.129  18.298  0.00  0.00    +0.000 C 
ATOM      2  C   UNL     1       3.165   2.893  19.207  0.00  0.00    +0.000 C 
ATOM      3  C   UNL     1       2.867   4.156  20.020  0.00  0.00    +0.000 C 
ATOM      4  N   UNL     1       2.621   5.323  19.146  0.00  0.00    +0.000 NA
ATOM      5  C   UNL     1       2.393   6.516  19.992  0.00  0.00    +0.000 C 
ATOM      6  C   UNL     1       2.002   7.719  19.132  0.00  0.00    +0.000 C 
ATOM      7  C   UNL     1       3.097   8.005  18.105  0.00  0.00    +0.000 C 
ATOM      8  C   UNL     1       3.353   6.756  17.264  0.00  0.00    +0.000 C 
ATOM      9  C   UNL     1       3.737   5.575  18.187  0.00  0.00    +0.000 C 
ATOM     10  C   UNL     1       4.036   4.299  17.349  0.00  0.00    +0.000 C 
ENDROOT
BRANCH  10  11
ATOM     11  C   UNL     1       5.110   4.532  16.292  0.00  0.00    +0.000 A 
ATOM     12  C   UNL     1       6.238   5.343  16.532  0.00  0.00    +0.000 A 
ATOM     13  C   UNL     1       7.187   5.553  15.525  0.00  0.00    +0.000 A 
ATOM     14  C   UNL     1       7.027   4.964  14.267  0.00  0.00    +0.000 A 
ATOM     15 CL   UNL     1       8.233   5.262  13.024  0.00  0.00    +0.000 Cl
ATOM     16  C   UNL     1       5.908   4.153  14.016  0.00  0.00    +0.000 A 
ATOM     17 CL   UNL     1       5.663   3.399  12.445  0.00  0.00    +0.000 Cl
ATOM     18  C   UNL     1       4.962   3.945  15.022  0.00  0.00    +0.000 A 
ENDBRANCH  10  11
BRANCH   1  19
ATOM     19  O   UNL     1       5.521   3.432  19.063  0.00  0.00    +0.000 OA
ATOM     20  H   UNL     1       5.691   4.407  18.979  0.00  0.00    +0.000 HD
ENDBRANCH   1  19
TORSDOF 2
ENDMDL
MODEL 3
REMARK VINA RESULT:      -7.0      1.439      3.313
REMARK  Name = 
REMARK  2 active torsions:
REMARK  status: ('A' for Active; 'I' for Inactive)
REMARK    1  A    between atoms: O_1  and  C_2
REMARK    2  A    between atoms: C_11  and  C_12
REMARK                            x       y       z     vdW  Elec       q    Type
REMARK                         _______ _______ _______ _____ _____    ______ ____
ROOT
ATOM      1  C   UNL     1       4.554   6.270  17.437  0.00  0.00    +0.000 C 
ATOM      2  C   UNL     1       5.025   5.262  16.379  0.00  0.00    +0.000 C 
ATOM      3  C   UNL     1       4.898   3.836  16.923  0.00  0.00    +0.000 C 
ATOM      4  N   UNL     1       3.510   3.528  17.329  0.00  0.00    +0.000 NA
ATOM      5  C   UNL     1       3.467   2.159  17.892  0.00  0.00    +0.000 C 
ATOM      6  C   UNL     1       2.027   1.748  18.201  0.00  0.00    +0.000 C 
ATOM      7  C   UNL     1       1.400   2.740  19.181  0.00  0.00    +0.000 C 
ATOM      8  C   UNL     1       1.485   4.153  18.609  0.00  0.00    +0.000 C 
ATOM      9  C   UNL     1       2.961   4.508  18.311  0.00  0.00    +0.000 C 
ATOM     10  C   UNL     1       3.075   5.958  17.759  0.00  0.00    +0.000 C 
ENDROOT
BRANCH  10  11
ATOM     11  C   UNL     1       2.447   6.989  18.689  0.00  0.00    +0.000 A 
ATOM     12  C   UNL     1       2.212   6.728  20.054  0.00  0.00    +0.000 A 
ATOM     13  C   UNL     1       1.608   7.692  20.868  0.00  0.00    +0.000 A 
ATOM     14  C   UNL     1       1.226   8.928  20.336  0.00  0.00    +0.000 A 
ATOM     15 CL   UNL     1       0.457  10.109  21.386  0.00  0.00    +0.000 Cl
ATOM     16  C   UNL     1       1.454   9.201  18.977  0.00  0.00    +0.000 A 
ATOM     17 CL   UNL     1       0.982  10.739  18.265  0.00  0.00    +0.000 Cl
ATOM     18  C   UNL     1       2.058   8.237  18.167  0.00  0.00    +0.000 A 
ENDBRANCH  10  11
BRANCH   1  19
ATOM     19  O   UNL     1       5.343   6.177  18.598  0.00  0.00    +0.000 OA
ATOM     20  H   UNL     1       5.740   5.267  18.622  0.00  0.00    +0.000 HD
ENDBRANCH   1  19
TORSDOF 2
ENDMDL
MODEL 4
REMARK VINA RESULT:      -7.0      1.545      3.067
REMARK  Name = 
REMARK  2 active torsions:
REMARK  status: ('A' for Active; 'I' for Inactive)
REMARK    1  A    between atoms: O_1  and  C_2
REMARK    2  A    between atoms: C_11  and  C_12
REMARK                            x       y       z     vdW  Elec       q    Type
REMARK                         _______ _______ _______ _____ _____    ______ ____
ROOT
ATOM      1  C   UNL     1       4.973   5.787  18.325  0.00  0.00    +0.000 C 
ATOM      2  C   UNL     1       5.630   4.524  17.752  0.00  0.00    +0.000 C 
ATOM      3  C   UNL     1       5.035   3.279  18.416  0.00  0.00    +0.000 C 
ATOM      4  N   UNL     1       3.569   3.210  18.233  0.00  0.00    +0.000 NA
ATOM      5  C   UNL     1       3.053   2.017  18.941  0.00  0.00    +0.000 C 
ATOM      6  C   UNL     1       1.559   1.832  18.667  0.00  0.00    +0.000 C 
ATOM      7  C   UNL     1       0.790   3.078  19.107  0.00  0.00    +0.000 C 
ATOM      8  C   UNL     1       1.356   4.308  18.402  0.00  0.00    +0.000 C 
ATOM      9  C   UNL     1       2.867   4.438  18.710  0.00  0.00    +0.000 C 
ATOM     10  C   UNL     1       3.458   5.706  18.030  0.00  0.00    +0.000 C 
ENDROOT
BRANCH  10  11
ATOM     11  C   UNL     1       2.715   6.978  18.418  0.00  0.00    +0.000 A 
ATOM     12  C   UNL     1       2.496   8.030  17.504  0.00  0.00    +0.000 A 
ATOM     13  C   UNL     1       1.832   9.194  17.908  0.00  0.00    +0.000 A 
ATOM     14  C   UNL     1       1.380   9.329  19.224  0.00  0.00    +0.000 A 
ATOM     15 CL   UNL     1       0.561  10.811  19.698  0.00  0.00    +0.000 Cl
ATOM     16  C   UNL     1       1.590   8.289  20.144  0.00  0.00    +0.000 A 
ATOM     17 CL   UNL     1       1.045   8.421  21.811  0.00  0.00    +0.000 Cl
ATOM     18  C   UNL     1       2.253   7.128  19.738  0.00  0.00    +0.000 A 
ENDBRANCH  10  11
BRANCH   1  19
ATOM     19  O   UNL     1       5.203   5.883  19.709  0.00  0.00    +0.000 OA
ATOM     20  H   UNL     1       5.665   6.745  19.881  0.00  0.00    +0.000 HD
ENDBRANCH   1  19
TORSDOF 2
ENDMDL
MODEL 5
REMARK VINA RESULT:      -7.0      1.646      3.114
REMARK  Name = 
REMARK  2 active torsions:
REMARK  status: ('A' for Active; 'I' for Inactive)
REMARK    1  A    between atoms: O_1  and  C_2
REMARK    2  A    between atoms: C_11  and  C_12
REMARK                            x       y       z     vdW  Elec       q    Type
REMARK                         _______ _______ _______ _____ _____    ______ ____
ROOT
ATOM      1  C   UNL     1       4.083   5.946  17.377  0.00  0.00    +0.000 C 
ATOM      2  C   UNL     1       4.458   4.540  16.889  0.00  0.00    +0.000 C 
ATOM      3  C   UNL     1       4.684   3.614  18.088  0.00  0.00    +0.000 C 
ATOM      4  N   UNL     1       3.489   3.543  18.956  0.00  0.00    +0.000 NA
ATOM      5  C   UNL     1       3.791   2.677  20.118  0.00  0.00    +0.000 C 
ATOM      6  C   UNL     1       2.540   2.467  20.973  0.00  0.00    +0.000 C 
ATOM      7  C   UNL     1       2.001   3.816  21.449  0.00  0.00    +0.000 C 
ATOM      8  C   UNL     1       1.730   4.716  20.246  0.00  0.00    +0.000 C 
ATOM      9  C   UNL     1       3.026   4.884  19.418  0.00  0.00    +0.000 C 
ATOM     10  C   UNL     1       2.783   5.827  18.204  0.00  0.00    +0.000 C 
ENDROOT
BRANCH  10  11
ATOM     11  C   UNL     1       2.224   7.183  18.619  0.00  0.00    +0.000 A 
ATOM     12  C   UNL     1       1.972   8.211  17.687  0.00  0.00    +0.000 A 
ATOM     13  C   UNL     1       1.484   9.451  18.113  0.00  0.00    +0.000 A 
ATOM     14  C   UNL     1       1.242   9.687  19.470  0.00  0.00    +0.000 A 
ATOM     15 CL   UNL     1       0.642  11.263  19.969  0.00  0.00    +0.000 Cl
ATOM     16  C   UNL     1       1.488   8.672  20.408  0.00  0.00    +0.000 A 
ATOM     17 CL   UNL     1       1.205   8.930  22.125  0.00  0.00    +0.000 Cl
ATOM     18  C   UNL     1       1.975   7.435  19.981  0.00  0.00    +0.000 A 
ENDBRANCH  10  11
BRANCH   1  19
ATOM     19  O   UNL     1       5.117   6.493  18.159  0.00  0.00    +0.000 OA
ATOM     20  H   UNL     1       5.980   6.170  17.789  0.00  0.00    +0.000 HD
ENDBRANCH   1  19
TORSDOF 2
ENDMDL
MODEL 6
REMARK VINA RESULT:      -6.9      0.835      1.644
REMARK  Name = 
REMARK  2 active torsions:
REMARK  status: ('A' for Active; 'I' for Inactive)
REMARK    1  A    between atoms: O_1  and  C_2
REMARK    2  A    between atoms: C_11  and  C_12
REMARK                            x       y       z     vdW  Elec       q    Type
REMARK                         _______ _______ _______ _____ _____    ______ ____
ROOT
ATOM      1  C   UNL     1       1.847   3.878  18.497  0.00  0.00    +0.000 C 
ATOM      2  C   UNL     1       2.522   2.532  18.198  0.00  0.00    +0.000 C 
ATOM      3  C   UNL     1       3.510   2.689  17.039  0.00  0.00    +0.000 C 
ATOM      4  N   UNL     1       4.536   3.713  17.330  0.00  0.00    +0.000 NA
ATOM      5  C   UNL     1       5.423   3.852  16.153  0.00  0.00    +0.000 C 
ATOM      6  C   UNL     1       6.580   4.804  16.459  0.00  0.00    +0.000 C 
ATOM      7  C   UNL     1       6.036   6.171  16.872  0.00  0.00    +0.000 C 
ATOM      8  C   UNL     1       5.092   6.013  18.061  0.00  0.00    +0.000 C 
ATOM      9  C   UNL     1       3.949   5.036  17.694  0.00  0.00    +0.000 C 
ATOM     10  C   UNL     1       2.954   4.885  18.880  0.00  0.00    +0.000 C 
ENDROOT
BRANCH  10  11
ATOM     11  C   UNL     1       2.394   6.224  19.347  0.00  0.00    +0.000 A 
ATOM     12  C   UNL     1       1.827   6.398  20.626  0.00  0.00    +0.000 A 
ATOM     13  C   UNL     1       1.299   7.636  21.006  0.00  0.00    +0.000 A 
ATOM     14  C   UNL     1       1.326   8.718  20.121  0.00  0.00    +0.000 A 
ATOM     15 CL   UNL     1       0.641  10.255  20.629  0.00  0.00    +0.000 Cl
ATOM     16  C   UNL     1       1.888   8.559  18.844  0.00  0.00    +0.000 A 
ATOM     17 CL   UNL     1       1.935   9.891  17.696  0.00  0.00    +0.000 Cl
ATOM     18  C   UNL     1       2.415   7.321  18.466  0.00  0.00    +0.000 A 
ENDBRANCH  10  11
BRANCH   1  19
ATOM     19  O   UNL     1       1.130   4.334  17.375  0.00  0.00    +0.000 OA
ATOM     20  H   UNL     1       1.275   3.684  16.638  0.00  0.00    +0.000 HD
ENDBRANCH   1  19
TORSDOF 2
ENDMDL
MODEL 7
REMARK VINA RESULT:      -6.7      3.524      5.526
REMARK  Name = 
REMARK  2 active torsions:
REMARK  status: ('A' for Active; 'I' for Inactive)
REMARK    1  A    between atoms: O_1  and  C_2
REMARK    2  A    between atoms: C_11  and  C_12
REMARK                            x       y       z     vdW  Elec       q    Type
REMARK                         _______ _______ _______ _____ _____    ______ ____
ROOT
ATOM      1  C   UNL     1       3.764   2.293  18.420  0.00  0.00    +0.000 C 
ATOM      2  C   UNL     1       2.532   1.850  19.221  0.00  0.00    +0.000 C 
ATOM      3  C   UNL     1       2.245   2.855  20.339  0.00  0.00    +0.000 C 
ATOM      4  N   UNL     1       2.034   4.218  19.807  0.00  0.00    +0.000 NA
ATOM      5  C   UNL     1       1.816   5.147  20.939  0.00  0.00    +0.000 C 
ATOM      6  C   UNL     1       1.460   6.545  20.429  0.00  0.00    +0.000 C 
ATOM      7  C   UNL     1       2.576   7.070  19.526  0.00  0.00    +0.000 C 
ATOM      8  C   UNL     1       2.821   6.087  18.385  0.00  0.00    +0.000 C 
ATOM      9  C   UNL     1       3.168   4.693  18.961  0.00  0.00    +0.000 C 
ATOM     10  C   UNL     1       3.457   3.682  17.815  0.00  0.00    +0.000 C 
ENDROOT
BRANCH  10  11
ATOM     11  C   UNL     1       4.550   4.165  16.869  0.00  0.00    +0.000 A 
ATOM     12  C   UNL     1       4.712   3.637  15.572  0.00  0.00    +0.000 A 
ATOM     13  C   UNL     1       5.746   4.089  14.745  0.00  0.00    +0.000 A 
ATOM     14  C   UNL     1       6.634   5.071  15.196  0.00  0.00    +0.000 A 
ATOM     15 CL   UNL     1       7.928   5.605  14.133  0.00  0.00    +0.000 Cl
ATOM     16  C   UNL     1       6.483   5.606  16.485  0.00  0.00    +0.000 A 
ATOM     17 CL   UNL     1       7.583   6.837  17.095  0.00  0.00    +0.000 Cl
ATOM     18  C   UNL     1       5.450   5.153  17.309  0.00  0.00    +0.000 A 
ENDBRANCH  10  11
BRANCH   1  19
ATOM     19  O   UNL     1       4.899   2.356  19.249  0.00  0.00    +0.000 OA
ATOM     20  H   UNL     1       5.539   1.662  18.938  0.00  0.00    +0.000 HD
ENDBRANCH   1  19
TORSDOF 2
ENDMDL
MODEL 8
REMARK VINA RESULT:      -6.5      1.486      2.298
REMARK  Name = 
REMARK  2 active torsions:
REMARK  status: ('A' for Active; 'I' for Inactive)
REMARK    1  A    between atoms: O_1  and  C_2
REMARK    2  A    between atoms: C_11  and  C_12
REMARK                            x       y       z     vdW  Elec       q    Type
REMARK                         _______ _______ _______ _____ _____    ______ ____
ROOT
ATOM      1  C   UNL     1       1.703   4.250  20.927  0.00  0.00    +0.000 C 
ATOM      2  C   UNL     1       2.484   2.933  21.032  0.00  0.00    +0.000 C 
ATOM      3  C   UNL     1       2.917   2.469  19.639  0.00  0.00    +0.000 C 
ATOM      4  N   UNL     1       3.741   3.488  18.955  0.00  0.00    +0.000 NA
ATOM      5  C   UNL     1       4.080   3.001  17.599  0.00  0.00    +0.000 C 
ATOM      6  C   UNL     1       5.043   3.966  16.905  0.00  0.00    +0.000 C 
ATOM      7  C   UNL     1       4.419   5.358  16.822  0.00  0.00    +0.000 C 
ATOM      8  C   UNL     1       4.036   5.835  18.221  0.00  0.00    +0.000 C 
ATOM      9  C   UNL     1       3.069   4.819  18.873  0.00  0.00    +0.000 C 
ATOM     10  C   UNL     1       2.638   5.302  20.288  0.00  0.00    +0.000 C 
ENDROOT
BRANCH  10  11
ATOM     11  C   UNL     1       2.025   6.697  20.268  0.00  0.00    +0.000 A 
ATOM     12  C   UNL     1       1.223   7.183  21.321  0.00  0.00    +0.000 A 
ATOM     13  C   UNL     1       0.657   8.461  21.251  0.00  0.00    +0.000 A 
ATOM     14  C   UNL     1       0.878   9.272  20.134  0.00  0.00    +0.000 A 
ATOM     15 CL   UNL     1       0.139  10.866  20.076  0.00  0.00    +0.000 Cl
ATOM     16  C   UNL     1       1.675   8.801  19.078  0.00  0.00    +0.000 A 
ATOM     17 CL   UNL     1       1.972   9.785  17.651  0.00  0.00    +0.000 Cl
ATOM     18  C   UNL     1       2.240   7.525  19.150  0.00  0.00    +0.000 A 
ENDBRANCH  10  11
BRANCH   1  19
ATOM     19  O   UNL     1       0.544   4.080  20.147  0.00  0.00    +0.000 OA
ATOM     20  H   UNL     1       0.324   3.112  20.139  0.00  0.00    +0.000 HD
ENDBRANCH   1  19
TORSDOF 2
ENDMDL
MODEL 9
REMARK VINA RESULT:      -6.1      3.472      5.035
REMARK  Name = 
REMARK  2 active torsions:
REMARK  status: ('A' for Active; 'I' for Inactive)
REMARK    1  A    between atoms: O_1  and  C_2
REMARK    2  A    between atoms: C_11  and  C_12
REMARK                            x       y       z     vdW  Elec       q    Type
REMARK                         _______ _______ _______ _____ _____    ______ ____
ROOT
ATOM      1  C   UNL     1       4.227   2.746  17.822  0.00  0.00    +0.000 C 
ATOM      2  C   UNL     1       3.004   1.821  17.763  0.00  0.00    +0.000 C 
ATOM      3  C   UNL     1       2.165   1.981  19.034  0.00  0.00    +0.000 C 
ATOM      4  N   UNL     1       1.728   3.380  19.227  0.00  0.00    +0.000 NA
ATOM      5  C   UNL     1       0.969   3.475  20.495  0.00  0.00    +0.000 C 
ATOM      6  C   UNL     1       0.383   4.878  20.668  0.00  0.00    +0.000 C 
ATOM      7  C   UNL     1       1.502   5.918  20.645  0.00  0.00    +0.000 C 
ATOM      8  C   UNL     1       2.303   5.785  19.352  0.00  0.00    +0.000 C 
ATOM      9  C   UNL     1       2.863   4.348  19.229  0.00  0.00    +0.000 C 
ATOM     10  C   UNL     1       3.713   4.199  17.935  0.00  0.00    +0.000 C 
ENDROOT
BRANCH  10  11
ATOM     11  C   UNL     1       4.835   5.228  17.849  0.00  0.00    +0.000 A 
ATOM     12  C   UNL     1       4.814   6.288  16.920  0.00  0.00    +0.000 A 
ATOM     13  C   UNL     1       5.878   7.196  16.856  0.00  0.00    +0.000 A 
ATOM     14  C   UNL     1       6.975   7.061  17.712  0.00  0.00    +0.000 A 
ATOM     15 CL   UNL     1       8.298   8.212  17.593  0.00  0.00    +0.000 Cl
ATOM     16  C   UNL     1       7.008   6.009  18.642  0.00  0.00    +0.000 A 
ATOM     17 CL   UNL     1       8.373   5.798  19.731  0.00  0.00    +0.000 Cl
ATOM     18  C   UNL     1       5.945   5.105  18.705  0.00  0.00    +0.000 A 
ENDBRANCH  10  11
BRANCH   1  19
ATOM     19  O   UNL     1       5.042   2.424  18.923  0.00  0.00    +0.000 OA
ATOM     20  H   UNL     1       5.986   2.435  18.615  0.00  0.00    +0.000 HD
ENDBRANCH   1  19
TORSDOF 2
ENDMDL
