MODEL 1
REMARK VINA RESULT:      -7.7      0.000      0.000
REMARK  Name = 
REMARK  8 active torsions:
REMARK  status: ('A' for Active; 'I' for Inactive)
REMARK    1  A    between atoms: C_1  and  O_2
REMARK    2  A    between atoms: O_2  and  C_3
REMARK    3  A    between atoms: C_6  and  C_7
REMARK    4  A    between atoms: C_12  and  C_14
REMARK    5  A    between atoms: C_14  and  C_15
REMARK    6  A    between atoms: C_15  and  C_16
REMARK    7  A    between atoms: C_23  and  O_24
REMARK    8  A    between atoms: O_24  and  C_25
REMARK                            x       y       z     vdW  Elec       q    Type
REMARK                         _______ _______ _______ _____ _____    ______ ____
ROOT
ATOM      1  C   UNL     1       3.340   3.462  19.004  0.00  0.00    +0.000 C 
ATOM      2  C   UNL     1       2.505   2.332  18.382  0.00  0.00    +0.000 C 
ATOM      3  C   UNL     1       1.313   2.221  19.315  0.00  0.00    +0.000 C 
ATOM      4  C   UNL     1       1.095   3.643  19.807  0.00  0.00    +0.000 C 
ATOM      5  N   UNL     1       2.311   4.378  19.486  0.00  0.00    +0.000 N 
ATOM      6  C   UNL     1       2.565   5.672  19.945  0.00  0.00    +0.000 C 
ATOM      7  O   UNL     1       3.629   6.257  19.796  0.00  0.00    +0.000 OA
ENDROOT
BRANCH   1  11
ATOM      8  C   UNL     1       6.391   4.796  16.227  0.00  0.00    +0.000 A 
ATOM      9  C   UNL     1       5.099   4.488  15.772  0.00  0.00    +0.000 A 
ATOM     10  C   UNL     1       4.092   4.097  16.660  0.00  0.00    +0.000 A 
ATOM     11  C   UNL     1       4.366   3.961  18.018  0.00  0.00    +0.000 A 
ATOM     12  C   UNL     1       5.679   4.214  18.460  0.00  0.00    +0.000 A 
ATOM     13  C   UNL     1       6.698   4.616  17.581  0.00  0.00    +0.000 A 
BRANCH   8  15
ATOM     14  C   UNL     1       7.173   4.886  13.994  0.00  0.00    +0.000 C 
ATOM     15  O   UNL     1       7.358   5.238  15.363  0.00  0.00    +0.000 OA
ENDBRANCH   8  15
BRANCH  13  16
ATOM     16  O   UNL     1       7.895   4.784  18.225  0.00  0.00    +0.000 OA
ATOM     17  C   UNL     1       7.967   5.684  19.322  0.00  0.00    +0.000 C 
ENDBRANCH  13  16
ENDBRANCH   1  11
BRANCH   6  18
ATOM     18  C   UNL     1       1.398   6.297  20.712  0.00  0.00    +0.000 C 
BRANCH  18  19
ATOM     19  C   UNL     1       1.439   7.818  20.837  0.00  0.00    +0.000 C 
BRANCH  19  20
ATOM     20  C   UNL     1       0.025   8.446  20.743  0.00  0.00    +0.000 C 
ATOM     21  C   UNL     1      -0.669   8.643  22.105  0.00  0.00    +0.000 C 
ATOM     22  C   UNL     1      -0.006   9.728  22.950  0.00  0.00    +0.000 C 
ATOM     23  C   UNL     1       0.083  11.051  22.195  0.00  0.00    +0.000 C 
ATOM     24  C   UNL     1       0.734  10.893  20.823  0.00  0.00    +0.000 C 
ATOM     25  C   UNL     1       0.064   9.793  20.002  0.00  0.00    +0.000 C 
ENDBRANCH  19  20
ENDBRANCH  18  19
ENDBRANCH   6  18
TORSDOF 6
ENDMDL
MODEL 2
REMARK VINA RESULT:      -7.5      1.059      1.434
REMARK  Name = 
REMARK  8 active torsions:
REMARK  status: ('A' for Active; 'I' for Inactive)
REMARK    1  A    between atoms: C_1  and  O_2
REMARK    2  A    between atoms: O_2  and  C_3
REMARK    3  A    between atoms: C_6  and  C_7
REMARK    4  A    between atoms: C_12  and  C_14
REMARK    5  A    between atoms: C_14  and  C_15
REMARK    6  A    between atoms: C_15  and  C_16
REMARK    7  A    between atoms: C_23  and  O_24
REMARK    8  A    between atoms: O_24  and  C_25
REMARK                            x       y       z     vdW  Elec       q    Type
REMARK                         _______ _______ _______ _____ _____    ______ ____
ROOT
ATOM      1  C   UNL     1       3.234   3.907  19.792  0.00  0.00    +0.000 C 
ATOM      2  C   UNL     1       2.458   2.587  19.665  0.00  0.00    +0.000 C 
ATOM      3  C   UNL     1       1.326   2.746  20.664  0.00  0.00    +0.000 C 
ATOM      4  C   UNL     1       1.026   4.236  20.647  0.00  0.00    +0.000 C 
ATOM      5  N   UNL     1       2.164   4.877  20.001  0.00  0.00    +0.000 N 
ATOM      6  C   UNL     1       2.341   6.261  19.963  0.00  0.00    +0.000 C 
ATOM      7  O   UNL     1       3.348   6.813  19.540  0.00  0.00    +0.000 OA
ENDROOT
BRANCH   1  11
ATOM      8  C   UNL     1       6.021   4.325  16.497  0.00  0.00    +0.000 A 
ATOM      9  C   UNL     1       4.686   3.966  16.259  0.00  0.00    +0.000 A 
ATOM     10  C   UNL     1       3.763   3.868  17.305  0.00  0.00    +0.000 A 
ATOM     11  C   UNL     1       4.167   4.082  18.621  0.00  0.00    +0.000 A 
ATOM     12  C   UNL     1       5.522   4.384  18.859  0.00  0.00    +0.000 A 
ATOM     13  C   UNL     1       6.457   4.493  17.816  0.00  0.00    +0.000 A 
BRANCH   8  15
ATOM     14  C   UNL     1       6.442   4.063  14.181  0.00  0.00    +0.000 C 
ATOM     15  O   UNL     1       6.907   4.481  15.463  0.00  0.00    +0.000 OA
ENDBRANCH   8  15
BRANCH  13  16
ATOM     16  O   UNL     1       7.715   4.772  18.282  0.00  0.00    +0.000 OA
ATOM     17  C   UNL     1       7.866   5.700  19.346  0.00  0.00    +0.000 C 
ENDBRANCH  13  16
ENDBRANCH   1  11
BRANCH   6  18
ATOM     18  C   UNL     1       1.171   7.051  20.550  0.00  0.00    +0.000 C 
BRANCH  18  19
ATOM     19  C   UNL     1       1.405   8.552  20.698  0.00  0.00    +0.000 C 
BRANCH  19  20
ATOM     20  C   UNL     1       0.274   9.384  20.040  0.00  0.00    +0.000 C 
ATOM     21  C   UNL     1      -0.059  10.693  20.784  0.00  0.00    +0.000 C 
ATOM     22  C   UNL     1       1.060  11.727  20.682  0.00  0.00    +0.000 C 
ATOM     23  C   UNL     1       1.427  12.013  19.229  0.00  0.00    +0.000 C 
ATOM     24  C   UNL     1       1.732  10.738  18.446  0.00  0.00    +0.000 C 
ATOM     25  C   UNL     1       0.607   9.713  18.575  0.00  0.00    +0.000 C 
ENDBRANCH  19  20
ENDBRANCH  18  19
ENDBRANCH   6  18
TORSDOF 6
ENDMDL
MODEL 3
REMARK VINA RESULT:      -7.3      0.800      1.343
REMARK  Name = 
REMARK  8 active torsions:
REMARK  status: ('A' for Active; 'I' for Inactive)
REMARK    1  A    between atoms: C_1  and  O_2
REMARK    2  A    between atoms: O_2  and  C_3
REMARK    3  A    between atoms: C_6  and  C_7
REMARK    4  A    between atoms: C_12  and  C_14
REMARK    5  A    between atoms: C_14  and  C_15
REMARK    6  A    between atoms: C_15  and  C_16
REMARK    7  A    between atoms: C_23  and  O_24
REMARK    8  A    between atoms: O_24  and  C_25
REMARK                            x       y       z     vdW  Elec       q    Type
REMARK                         _______ _______ _______ _____ _____    ______ ____
ROOT
ATOM      1  C   UNL     1       3.215   3.935  19.631  0.00  0.00    +0.000 C 
ATOM      2  C   UNL     1       2.401   2.668  19.327  0.00  0.00    +0.000 C 
ATOM      3  C   UNL     1       1.228   2.764  20.285  0.00  0.00    +0.000 C 
ATOM      4  C   UNL     1       0.980   4.258  20.418  0.00  0.00    +0.000 C 
ATOM      5  N   UNL     1       2.169   4.918  19.896  0.00  0.00    +0.000 N 
ATOM      6  C   UNL     1       2.395   6.291  20.017  0.00  0.00    +0.000 C 
ATOM      7  O   UNL     1       3.440   6.845  19.703  0.00  0.00    +0.000 OA
ENDROOT
BRANCH   1  11
ATOM      8  C   UNL     1       6.172   4.594  16.530  0.00  0.00    +0.000 A 
ATOM      9  C   UNL     1       4.839   4.310  16.195  0.00  0.00    +0.000 A 
ATOM     10  C   UNL     1       3.864   4.137  17.181  0.00  0.00    +0.000 A 
ATOM     11  C   UNL     1       4.209   4.197  18.529  0.00  0.00    +0.000 A 
ATOM     12  C   UNL     1       5.559   4.424  18.860  0.00  0.00    +0.000 A 
ATOM     13  C   UNL     1       6.547   4.608  17.879  0.00  0.00    +0.000 A 
BRANCH   8  15
ATOM     14  C   UNL     1       6.696   4.567  14.221  0.00  0.00    +0.000 C 
ATOM     15  O   UNL     1       7.112   4.825  15.561  0.00  0.00    +0.000 OA
ENDBRANCH   8  15
BRANCH  13  16
ATOM     16  O   UNL     1       7.788   4.791  18.428  0.00  0.00    +0.000 OA
ATOM     17  C   UNL     1       7.965   5.801  19.412  0.00  0.00    +0.000 C 
ENDBRANCH  13  16
ENDBRANCH   1  11
BRANCH   6  18
ATOM     18  C   UNL     1       1.225   7.059  20.634  0.00  0.00    +0.000 C 
BRANCH  18  19
ATOM     19  C   UNL     1       1.033   8.482  20.115  0.00  0.00    +0.000 C 
BRANCH  19  20
ATOM     20  C   UNL     1       1.535   9.542  21.129  0.00  0.00    +0.000 C 
ATOM     21  C   UNL     1       1.046  10.975  20.836  0.00  0.00    +0.000 C 
ATOM     22  C   UNL     1      -0.454  11.142  21.070  0.00  0.00    +0.000 C 
ATOM     23  C   UNL     1      -0.851  10.716  22.480  0.00  0.00    +0.000 C 
ATOM     24  C   UNL     1      -0.356   9.313  22.824  0.00  0.00    +0.000 C 
ATOM     25  C   UNL     1       1.143   9.164  22.567  0.00  0.00    +0.000 C 
ENDBRANCH  19  20
ENDBRANCH  18  19
ENDBRANCH   6  18
TORSDOF 6
ENDMDL
MODEL 4
REMARK VINA RESULT:      -7.3      1.940      2.656
REMARK  Name = 
REMARK  8 active torsions:
REMARK  status: ('A' for Active; 'I' for Inactive)
REMARK    1  A    between atoms: C_1  and  O_2
REMARK    2  A    between atoms: O_2  and  C_3
REMARK    3  A    between atoms: C_6  and  C_7
REMARK    4  A    between atoms: C_12  and  C_14
REMARK    5  A    between atoms: C_14  and  C_15
REMARK    6  A    between atoms: C_15  and  C_16
REMARK    7  A    between atoms: C_23  and  O_24
REMARK    8  A    between atoms: O_24  and  C_25
REMARK                            x       y       z     vdW  Elec       q    Type
REMARK                         _______ _______ _______ _____ _____    ______ ____
ROOT
ATOM      1  C   UNL     1       3.854   5.594  19.298  0.00  0.00    +0.000 C 
ATOM      2  C   UNL     1       3.336   4.266  19.874  0.00  0.00    +0.000 C 
ATOM      3  C   UNL     1       2.305   4.705  20.898  0.00  0.00    +0.000 C 
ATOM      4  C   UNL     1       1.725   5.983  20.314  0.00  0.00    +0.000 C 
ATOM      5  N   UNL     1       2.645   6.411  19.269  0.00  0.00    +0.000 N 
ATOM      6  C   UNL     1       2.550   7.647  18.626  0.00  0.00    +0.000 C 
ATOM      7  O   UNL     1       3.383   8.078  17.840  0.00  0.00    +0.000 OA
ENDROOT
BRANCH   1  11
ATOM      8  C   UNL     1       6.156   4.896  15.691  0.00  0.00    +0.000 A 
ATOM      9  C   UNL     1       5.026   4.113  15.978  0.00  0.00    +0.000 A 
ATOM     10  C   UNL     1       4.248   4.352  17.114  0.00  0.00    +0.000 A 
ATOM     11  C   UNL     1       4.609   5.350  18.016  0.00  0.00    +0.000 A 
ATOM     12  C   UNL     1       5.776   6.093  17.753  0.00  0.00    +0.000 A 
ATOM     13  C   UNL     1       6.562   5.869  16.611  0.00  0.00    +0.000 A 
BRANCH   8  15
ATOM     14  C   UNL     1       6.267   3.869  13.560  0.00  0.00    +0.000 C 
ATOM     15  O   UNL     1       6.879   4.699  14.544  0.00  0.00    +0.000 OA
ENDBRANCH   8  15
BRANCH  13  16
ATOM     16  O   UNL     1       7.657   6.690  16.572  0.00  0.00    +0.000 OA
ATOM     17  C   UNL     1       7.755   7.754  17.508  0.00  0.00    +0.000 C 
ENDBRANCH  13  16
ENDBRANCH   1  11
BRANCH   6  18
ATOM     18  C   UNL     1       1.317   8.459  19.026  0.00  0.00    +0.000 C 
BRANCH  18  19
ATOM     19  C   UNL     1       1.417   9.962  18.777  0.00  0.00    +0.000 C 
BRANCH  19  20
ATOM     20  C   UNL     1       0.624  10.778  19.830  0.00  0.00    +0.000 C 
ATOM     21  C   UNL     1       0.836  12.302  19.737  0.00  0.00    +0.000 C 
ATOM     22  C   UNL     1       0.213  12.906  18.480  0.00  0.00    +0.000 C 
ATOM     23  C   UNL     1      -1.269  12.561  18.369  0.00  0.00    +0.000 C 
ATOM     24  C   UNL     1      -1.527  11.062  18.491  0.00  0.00    +0.000 C 
ATOM     25  C   UNL     1      -0.882  10.477  19.747  0.00  0.00    +0.000 C 
ENDBRANCH  19  20
ENDBRANCH  18  19
ENDBRANCH   6  18
TORSDOF 6
ENDMDL
MODEL 5
REMARK VINA RESULT:      -7.2      2.678      8.665
REMARK  Name = 
REMARK  8 active torsions:
REMARK  status: ('A' for Active; 'I' for Inactive)
REMARK    1  A    between atoms: C_1  and  O_2
REMARK    2  A    between atoms: O_2  and  C_3
REMARK    3  A    between atoms: C_6  and  C_7
REMARK    4  A    between atoms: C_12  and  C_14
REMARK    5  A    between atoms: C_14  and  C_15
REMARK    6  A    between atoms: C_15  and  C_16
REMARK    7  A    between atoms: C_23  and  O_24
REMARK    8  A    between atoms: O_24  and  C_25
REMARK                            x       y       z     vdW  Elec       q    Type
REMARK                         _______ _______ _______ _____ _____    ______ ____
ROOT
ATOM      1  C   UNL     1       6.074   4.586  18.499  0.00  0.00    +0.000 C 
ATOM      2  C   UNL     1       6.802   5.751  19.189  0.00  0.00    +0.000 C 
ATOM      3  C   UNL     1       7.805   6.206  18.145  0.00  0.00    +0.000 C 
ATOM      4  C   UNL     1       7.108   5.939  16.821  0.00  0.00    +0.000 C 
ATOM      5  N   UNL     1       5.996   5.046  17.116  0.00  0.00    +0.000 N 
ATOM      6  C   UNL     1       5.230   4.427  16.126  0.00  0.00    +0.000 C 
ATOM      7  O   UNL     1       4.378   3.577  16.348  0.00  0.00    +0.000 OA
ENDROOT
BRANCH   1  11
ATOM      8  C   UNL     1       2.340   3.717  20.524  0.00  0.00    +0.000 A 
ATOM      9  C   UNL     1       3.205   2.678  20.149  0.00  0.00    +0.000 A 
ATOM     10  C   UNL     1       4.433   2.942  19.533  0.00  0.00    +0.000 A 
ATOM     11  C   UNL     1       4.802   4.252  19.236  0.00  0.00    +0.000 A 
ATOM     12  C   UNL     1       3.904   5.286  19.562  0.00  0.00    +0.000 A 
ATOM     13  C   UNL     1       2.672   5.035  20.188  0.00  0.00    +0.000 A 
BRANCH   8  15
ATOM     14  C   UNL     1       1.220   2.413  22.152  0.00  0.00    +0.000 C 
ATOM     15  O   UNL     1       1.167   3.458  21.183  0.00  0.00    +0.000 OA
ENDBRANCH   8  15
BRANCH  13  16
ATOM     16  O   UNL     1       1.955   6.184  20.390  0.00  0.00    +0.000 OA
ATOM     17  C   UNL     1       2.275   7.339  19.628  0.00  0.00    +0.000 C 
ENDBRANCH  13  16
ENDBRANCH   1  11
BRANCH   6  18
ATOM     18  C   UNL     1       5.580   4.870  14.705  0.00  0.00    +0.000 C 
BRANCH  18  19
ATOM     19  C   UNL     1       6.248   3.809  13.836  0.00  0.00    +0.000 C 
BRANCH  19  20
ATOM     20  C   UNL     1       6.086   4.110  12.323  0.00  0.00    +0.000 C 
ATOM     21  C   UNL     1       7.368   3.888  11.496  0.00  0.00    +0.000 C 
ATOM     22  C   UNL     1       7.747   2.413  11.384  0.00  0.00    +0.000 C 
ATOM     23  C   UNL     1       6.596   1.580  10.827  0.00  0.00    +0.000 C 
ATOM     24  C   UNL     1       5.297   1.797  11.599  0.00  0.00    +0.000 C 
ATOM     25  C   UNL     1       4.946   3.279  11.712  0.00  0.00    +0.000 C 
ENDBRANCH  19  20
ENDBRANCH  18  19
ENDBRANCH   6  18
TORSDOF 6
ENDMDL
MODEL 6
REMARK VINA RESULT:      -7.2      1.769      2.251
REMARK  Name = 
REMARK  8 active torsions:
REMARK  status: ('A' for Active; 'I' for Inactive)
REMARK    1  A    between atoms: C_1  and  O_2
REMARK    2  A    between atoms: O_2  and  C_3
REMARK    3  A    between atoms: C_6  and  C_7
REMARK    4  A    between atoms: C_12  and  C_14
REMARK    5  A    between atoms: C_14  and  C_15
REMARK    6  A    between atoms: C_15  and  C_16
REMARK    7  A    between atoms: C_23  and  O_24
REMARK    8  A    between atoms: O_24  and  C_25
REMARK                            x       y       z     vdW  Elec       q    Type
REMARK                         _______ _______ _______ _____ _____    ______ ____
ROOT
ATOM      1  C   UNL     1       3.836   5.637  19.303  0.00  0.00    +0.000 C 
ATOM      2  C   UNL     1       3.286   4.335  19.907  0.00  0.00    +0.000 C 
ATOM      3  C   UNL     1       2.246   4.819  20.900  0.00  0.00    +0.000 C 
ATOM      4  C   UNL     1       1.697   6.089  20.270  0.00  0.00    +0.000 C 
ATOM      5  N   UNL     1       2.641   6.472  19.229  0.00  0.00    +0.000 N 
ATOM      6  C   UNL     1       2.577   7.690  18.549  0.00  0.00    +0.000 C 
ATOM      7  O   UNL     1       3.430   8.086  17.767  0.00  0.00    +0.000 OA
ENDROOT
BRANCH   1  11
ATOM      8  C   UNL     1       6.187   4.803  15.756  0.00  0.00    +0.000 A 
ATOM      9  C   UNL     1       5.060   4.025  16.063  0.00  0.00    +0.000 A 
ATOM     10  C   UNL     1       4.266   4.306  17.179  0.00  0.00    +0.000 A 
ATOM     11  C   UNL     1       4.608   5.345  18.041  0.00  0.00    +0.000 A 
ATOM     12  C   UNL     1       5.773   6.085  17.760  0.00  0.00    +0.000 A 
ATOM     13  C   UNL     1       6.574   5.819  16.638  0.00  0.00    +0.000 A 
BRANCH   8  15
ATOM     14  C   UNL     1       6.240   3.901  13.568  0.00  0.00    +0.000 C 
ATOM     15  O   UNL     1       6.926   4.564  14.628  0.00  0.00    +0.000 OA
ENDBRANCH   8  15
BRANCH  13  16
ATOM     16  O   UNL     1       7.663   6.647  16.577  0.00  0.00    +0.000 OA
ATOM     17  C   UNL     1       7.742   7.749  17.469  0.00  0.00    +0.000 C 
ENDBRANCH  13  16
ENDBRANCH   1  11
BRANCH   6  18
ATOM     18  C   UNL     1       1.351   8.533  18.905  0.00  0.00    +0.000 C 
BRANCH  18  19
ATOM     19  C   UNL     1       1.438  10.007  18.519  0.00  0.00    +0.000 C 
BRANCH  19  20
ATOM     20  C   UNL     1       0.086  10.740  18.718  0.00  0.00    +0.000 C 
ATOM     21  C   UNL     1      -0.678  10.318  19.988  0.00  0.00    +0.000 C 
ATOM     22  C   UNL     1       0.011  10.781  21.269  0.00  0.00    +0.000 C 
ATOM     23  C   UNL     1       0.252  12.288  21.262  0.00  0.00    +0.000 C 
ATOM     24  C   UNL     1       0.978  12.754  20.002  0.00  0.00    +0.000 C 
ATOM     25  C   UNL     1       0.279  12.266  18.734  0.00  0.00    +0.000 C 
ENDBRANCH  19  20
ENDBRANCH  18  19
ENDBRANCH   6  18
TORSDOF 6
ENDMDL
MODEL 7
REMARK VINA RESULT:      -7.2      1.952      2.440
REMARK  Name = 
REMARK  8 active torsions:
REMARK  status: ('A' for Active; 'I' for Inactive)
REMARK    1  A    between atoms: C_1  and  O_2
REMARK    2  A    between atoms: O_2  and  C_3
REMARK    3  A    between atoms: C_6  and  C_7
REMARK    4  A    between atoms: C_12  and  C_14
REMARK    5  A    between atoms: C_14  and  C_15
REMARK    6  A    between atoms: C_15  and  C_16
REMARK    7  A    between atoms: C_23  and  O_24
REMARK    8  A    between atoms: O_24  and  C_25
REMARK                            x       y       z     vdW  Elec       q    Type
REMARK                         _______ _______ _______ _____ _____    ______ ____
ROOT
ATOM      1  C   UNL     1       3.929   5.435  19.362  0.00  0.00    +0.000 C 
ATOM      2  C   UNL     1       3.543   4.033  19.859  0.00  0.00    +0.000 C 
ATOM      3  C   UNL     1       2.523   4.315  20.947  0.00  0.00    +0.000 C 
ATOM      4  C   UNL     1       1.819   5.577  20.477  0.00  0.00    +0.000 C 
ATOM      5  N   UNL     1       2.659   6.150  19.433  0.00  0.00    +0.000 N 
ATOM      6  C   UNL     1       2.438   7.414  18.883  0.00  0.00    +0.000 C 
ATOM      7  O   UNL     1       3.202   7.966  18.102  0.00  0.00    +0.000 OA
ENDROOT
BRANCH   1  11
ATOM      8  C   UNL     1       6.130   5.163  15.636  0.00  0.00    +0.000 A 
ATOM      9  C   UNL     1       5.003   4.356  15.858  0.00  0.00    +0.000 A 
ATOM     10  C   UNL     1       4.256   4.461  17.036  0.00  0.00    +0.000 A 
ATOM     11  C   UNL     1       4.648   5.343  18.040  0.00  0.00    +0.000 A 
ATOM     12  C   UNL     1       5.814   6.107  17.835  0.00  0.00    +0.000 A 
ATOM     13  C   UNL     1       6.568   6.018  16.654  0.00  0.00    +0.000 A 
BRANCH   8  15
ATOM     14  C   UNL     1       6.417   4.073  13.553  0.00  0.00    +0.000 C 
ATOM     15  O   UNL     1       6.821   5.101  14.455  0.00  0.00    +0.000 OA
ENDBRANCH   8  15
BRANCH  13  16
ATOM     16  O   UNL     1       7.667   6.833  16.683  0.00  0.00    +0.000 OA
ATOM     17  C   UNL     1       7.697   7.918  17.600  0.00  0.00    +0.000 C 
ENDBRANCH  13  16
ENDBRANCH   1  11
BRANCH   6  18
ATOM     18  C   UNL     1       1.162   8.093  19.384  0.00  0.00    +0.000 C 
BRANCH  18  19
ATOM     19  C   UNL     1       1.289   9.585  19.679  0.00  0.00    +0.000 C 
BRANCH  19  20
ATOM     20  C   UNL     1       0.879  10.454  18.463  0.00  0.00    +0.000 C 
ATOM     21  C   UNL     1      -0.462  10.046  17.820  0.00  0.00    +0.000 C 
ATOM     22  C   UNL     1      -1.659  10.350  18.717  0.00  0.00    +0.000 C 
ATOM     23  C   UNL     1      -1.688  11.817  19.136  0.00  0.00    +0.000 C 
ATOM     24  C   UNL     1      -0.365  12.271  19.748  0.00  0.00    +0.000 C 
ATOM     25  C   UNL     1       0.820  11.944  18.840  0.00  0.00    +0.000 C 
ENDBRANCH  19  20
ENDBRANCH  18  19
ENDBRANCH   6  18
TORSDOF 6
ENDMDL
MODEL 8
REMARK VINA RESULT:      -7.1      1.545      1.898
REMARK  Name = 
REMARK  8 active torsions:
REMARK  status: ('A' for Active; 'I' for Inactive)
REMARK    1  A    between atoms: C_1  and  O_2
REMARK    2  A    between atoms: O_2  and  C_3
REMARK    3  A    between atoms: C_6  and  C_7
REMARK    4  A    between atoms: C_12  and  C_14
REMARK    5  A    between atoms: C_14  and  C_15
REMARK    6  A    between atoms: C_15  and  C_16
REMARK    7  A    between atoms: C_23  and  O_24
REMARK    8  A    between atoms: O_24  and  C_25
REMARK                            x       y       z     vdW  Elec       q    Type
REMARK                         _______ _______ _______ _____ _____    ______ ____
ROOT
ATOM      1  C   UNL     1       3.814   4.776  19.723  0.00  0.00    +0.000 C 
ATOM      2  C   UNL     1       3.483   3.293  19.954  0.00  0.00    +0.000 C 
ATOM      3  C   UNL     1       2.565   3.321  21.162  0.00  0.00    +0.000 C 
ATOM      4  C   UNL     1       1.813   4.635  21.025  0.00  0.00    +0.000 C 
ATOM      5  N   UNL     1       2.550   5.429  20.052  0.00  0.00    +0.000 N 
ATOM      6  C   UNL     1       2.273   6.773  19.795  0.00  0.00    +0.000 C 
ATOM      7  O   UNL     1       2.958   7.492  19.079  0.00  0.00    +0.000 OA
ENDROOT
BRANCH   1  11
ATOM      8  C   UNL     1       5.664   5.365  15.847  0.00  0.00    +0.000 A 
ATOM      9  C   UNL     1       4.806   4.277  16.068  0.00  0.00    +0.000 A 
ATOM     10  C   UNL     1       4.167   4.096  17.299  0.00  0.00    +0.000 A 
ATOM     11  C   UNL     1       4.410   4.973  18.353  0.00  0.00    +0.000 A 
ATOM     12  C   UNL     1       5.318   6.029  18.142  0.00  0.00    +0.000 A 
ATOM     13  C   UNL     1       5.959   6.228  16.909  0.00  0.00    +0.000 A 
BRANCH   8  15
ATOM     14  C   UNL     1       6.540   4.400  13.870  0.00  0.00    +0.000 C 
ATOM     15  O   UNL     1       6.239   5.574  14.621  0.00  0.00    +0.000 OA
ENDBRANCH   8  15
BRANCH  13  16
ATOM     16  O   UNL     1       6.812   7.299  16.941  0.00  0.00    +0.000 OA
ATOM     17  C   UNL     1       7.852   7.324  17.907  0.00  0.00    +0.000 C 
ENDBRANCH  13  16
ENDBRANCH   1  11
BRANCH   6  18
ATOM     18  C   UNL     1       1.043   7.304  20.534  0.00  0.00    +0.000 C 
BRANCH  18  19
ATOM     19  C   UNL     1       1.145   8.747  21.019  0.00  0.00    +0.000 C 
BRANCH  19  20
ATOM     20  C   UNL     1       0.051   9.649  20.390  0.00  0.00    +0.000 C 
ATOM     21  C   UNL     1      -0.015  11.069  20.988  0.00  0.00    +0.000 C 
ATOM     22  C   UNL     1       1.202  11.916  20.622  0.00  0.00    +0.000 C 
ATOM     23  C   UNL     1       1.409  11.977  19.112  0.00  0.00    +0.000 C 
ATOM     24  C   UNL     1       1.446  10.590  18.475  0.00  0.00    +0.000 C 
ATOM     25  C   UNL     1       0.228   9.755  18.866  0.00  0.00    +0.000 C 
ENDBRANCH  19  20
ENDBRANCH  18  19
ENDBRANCH   6  18
TORSDOF 6
ENDMDL
MODEL 9
REMARK VINA RESULT:      -6.9      1.092      1.478
REMARK  Name = 
REMARK  8 active torsions:
REMARK  status: ('A' for Active; 'I' for Inactive)
REMARK    1  A    between atoms: C_1  and  O_2
REMARK    2  A    between atoms: O_2  and  C_3
REMARK    3  A    between atoms: C_6  and  C_7
REMARK    4  A    between atoms: C_12  and  C_14
REMARK    5  A    between atoms: C_14  and  C_15
REMARK    6  A    between atoms: C_15  and  C_16
REMARK    7  A    between atoms: C_23  and  O_24
REMARK    8  A    between atoms: O_24  and  C_25
REMARK                            x       y       z     vdW  Elec       q    Type
REMARK                         _______ _______ _______ _____ _____    ______ ____
ROOT
ATOM      1  C   UNL     1       3.563   3.673  18.572  0.00  0.00    +0.000 C 
ATOM      2  C   UNL     1       2.693   2.542  18.000  0.00  0.00    +0.000 C 
ATOM      3  C   UNL     1       1.503   2.503  18.942  0.00  0.00    +0.000 C 
ATOM      4  C   UNL     1       1.329   3.948  19.379  0.00  0.00    +0.000 C 
ATOM      5  N   UNL     1       2.563   4.636  19.022  0.00  0.00    +0.000 N 
ATOM      6  C   UNL     1       2.856   5.939  19.428  0.00  0.00    +0.000 C 
ATOM      7  O   UNL     1       3.936   6.487  19.250  0.00  0.00    +0.000 OA
ENDROOT
BRANCH   1  11
ATOM      8  C   UNL     1       6.643   4.851  15.758  0.00  0.00    +0.000 A 
ATOM      9  C   UNL     1       5.501   4.164  15.317  0.00  0.00    +0.000 A 
ATOM     10  C   UNL     1       4.479   3.814  16.204  0.00  0.00    +0.000 A 
ATOM     11  C   UNL     1       4.596   4.102  17.562  0.00  0.00    +0.000 A 
ATOM     12  C   UNL     1       5.771   4.739  18.006  0.00  0.00    +0.000 A 
ATOM     13  C   UNL     1       6.802   5.104  17.125  0.00  0.00    +0.000 A 
BRANCH   8  15
ATOM     14  C   UNL     1       7.381   4.915  13.509  0.00  0.00    +0.000 C 
ATOM     15  O   UNL     1       7.614   5.247  14.876  0.00  0.00    +0.000 OA
ENDBRANCH   8  15
BRANCH  13  16
ATOM     16  O   UNL     1       7.853   5.690  17.779  0.00  0.00    +0.000 OA
ATOM     17  C   UNL     1       7.846   5.729  19.199  0.00  0.00    +0.000 C 
ENDBRANCH  13  16
ENDBRANCH   1  11
BRANCH   6  18
ATOM     18  C   UNL     1       1.712   6.627  20.175  0.00  0.00    +0.000 C 
BRANCH  18  19
ATOM     19  C   UNL     1       1.787   8.151  20.223  0.00  0.00    +0.000 C 
BRANCH  19  20
ATOM     20  C   UNL     1       0.682   8.813  19.361  0.00  0.00    +0.000 C 
ATOM     21  C   UNL     1      -0.041   9.985  20.054  0.00  0.00    +0.000 C 
ATOM     22  C   UNL     1       0.859  11.207  20.231  0.00  0.00    +0.000 C 
ATOM     23  C   UNL     1       1.461  11.656  18.903  0.00  0.00    +0.000 C 
ATOM     24  C   UNL     1       2.158  10.515  18.166  0.00  0.00    +0.000 C 
ATOM     25  C   UNL     1       1.245   9.299  18.015  0.00  0.00    +0.000 C 
ENDBRANCH  19  20
ENDBRANCH  18  19
ENDBRANCH   6  18
TORSDOF 6
ENDMDL
