MODEL 1
REMARK VINA RESULT:      -5.9      0.000      0.000
REMARK  Name = 
REMARK  4 active torsions:
REMARK  status: ('A' for Active; 'I' for Inactive)
REMARK    1  A    between atoms: C_2  and  C_3
REMARK    2  A    between atoms: C_3  and  N_4
REMARK    3  A    between atoms: N_4  and  C_5
REMARK    4  A    between atoms: N_4  and  N_11
REMARK                            x       y       z     vdW  Elec       q    Type
REMARK                         _______ _______ _______ _____ _____    ______ ____
ROOT
ATOM      1  N   UNL     1       3.612   4.836  18.698  0.00  0.00    +0.000 N 
ENDROOT
BRANCH   1   2
ATOM      2  C   UNL     1       4.938   4.806  18.219  0.00  0.00    +0.000 A 
ATOM      3  C   UNL     1       5.227   4.321  16.938  0.00  0.00    +0.000 A 
ATOM      4  C   UNL     1       6.538   4.324  16.478  0.00  0.00    +0.000 A 
ATOM      5  N   UNL     1       7.584   4.781  17.194  0.00  0.00    +0.000 NA
ATOM      6  C   UNL     1       7.302   5.250  18.424  0.00  0.00    +0.000 A 
ATOM      7  C   UNL     1       6.026   5.274  18.970  0.00  0.00    +0.000 A 
ENDBRANCH   1   2
BRANCH   1   8
ATOM      8  N   UNL     1       3.162   4.108  19.804  0.00  0.00    +0.000 N 
ATOM      9  C   UNL     1       2.301   4.552  20.784  0.00  0.00    +0.000 A 
ATOM     10  C   UNL     1       2.104   3.541  21.700  0.00  0.00    +0.000 A 
ATOM     11  C   UNL     1       2.905   2.452  21.297  0.00  0.00    +0.000 A 
ATOM     12  C   UNL     1       3.520   2.815  20.119  0.00  0.00    +0.000 A 
ENDBRANCH   1   8
BRANCH   1  13
ATOM     13  C   UNL     1       2.569   5.511  17.921  0.00  0.00    +0.000 C 
BRANCH  13  15
ATOM     14  C   UNL     1       2.747   8.172  17.973  0.00  0.00    +0.000 C 
ATOM     15  C   UNL     1       2.656   6.976  17.976  0.00  0.00    +0.000 C 
ENDBRANCH  13  15
ENDBRANCH   1  13
TORSDOF 4
ENDMDL
MODEL 2
REMARK VINA RESULT:      -5.9      0.054      1.543
REMARK  Name = 
REMARK  4 active torsions:
REMARK  status: ('A' for Active; 'I' for Inactive)
REMARK    1  A    between atoms: C_2  and  C_3
REMARK    2  A    between atoms: C_3  and  N_4
REMARK    3  A    between atoms: N_4  and  C_5
REMARK    4  A    between atoms: N_4  and  N_11
REMARK                            x       y       z     vdW  Elec       q    Type
REMARK                         _______ _______ _______ _____ _____    ______ ____
ROOT
ATOM      1  N   UNL     1       3.606   4.886  18.696  0.00  0.00    +0.000 N 
ENDROOT
BRANCH   1   2
ATOM      2  C   UNL     1       4.924   4.868  18.194  0.00  0.00    +0.000 A 
ATOM      3  C   UNL     1       5.995   5.317  18.975  0.00  0.00    +0.000 A 
ATOM      4  C   UNL     1       7.289   5.265  18.468  0.00  0.00    +0.000 A 
ATOM      5  N   UNL     1       7.597   4.793  17.244  0.00  0.00    +0.000 NA
ATOM      6  C   UNL     1       6.564   4.360  16.497  0.00  0.00    +0.000 A 
ATOM      7  C   UNL     1       5.241   4.384  16.917  0.00  0.00    +0.000 A 
ENDBRANCH   1   2
BRANCH   1   8
ATOM      8  N   UNL     1       3.178   4.142  19.800  0.00  0.00    +0.000 N 
ATOM      9  C   UNL     1       3.504   2.834  20.085  0.00  0.00    +0.000 A 
ATOM     10  C   UNL     1       2.882   2.462  21.257  0.00  0.00    +0.000 A 
ATOM     11  C   UNL     1       2.110   3.561  21.687  0.00  0.00    +0.000 A 
ATOM     12  C   UNL     1       2.332   4.586  20.793  0.00  0.00    +0.000 A 
ENDBRANCH   1   8
BRANCH   1  13
ATOM     13  C   UNL     1       2.547   5.566  17.945  0.00  0.00    +0.000 C 
BRANCH  13  15
ATOM     14  C   UNL     1       2.700   8.229  17.983  0.00  0.00    +0.000 C 
ATOM     15  C   UNL     1       2.650   7.031  17.986  0.00  0.00    +0.000 C 
ENDBRANCH  13  15
ENDBRANCH   1  13
TORSDOF 4
ENDMDL
MODEL 3
REMARK VINA RESULT:      -5.8      1.695      3.310
REMARK  Name = 
REMARK  4 active torsions:
REMARK  status: ('A' for Active; 'I' for Inactive)
REMARK    1  A    between atoms: C_2  and  C_3
REMARK    2  A    between atoms: C_3  and  N_4
REMARK    3  A    between atoms: N_4  and  C_5
REMARK    4  A    between atoms: N_4  and  N_11
REMARK                            x       y       z     vdW  Elec       q    Type
REMARK                         _______ _______ _______ _____ _____    ______ ____
ROOT
ATOM      1  N   UNL     1       3.689   4.790  17.512  0.00  0.00    +0.000 N 
ENDROOT
BRANCH   1   2
ATOM      2  C   UNL     1       5.053   4.693  17.165  0.00  0.00    +0.000 A 
ATOM      3  C   UNL     1       5.445   4.559  15.829  0.00  0.00    +0.000 A 
ATOM      4  C   UNL     1       6.796   4.491  15.509  0.00  0.00    +0.000 A 
ATOM      5  N   UNL     1       7.787   4.555  16.420  0.00  0.00    +0.000 NA
ATOM      6  C   UNL     1       7.406   4.688  17.705  0.00  0.00    +0.000 A 
ATOM      7  C   UNL     1       6.081   4.752  18.116  0.00  0.00    +0.000 A 
ENDBRANCH   1   2
BRANCH   1   8
ATOM      8  N   UNL     1       3.138   5.850  18.239  0.00  0.00    +0.000 N 
ATOM      9  C   UNL     1       2.663   5.800  19.531  0.00  0.00    +0.000 A 
ATOM     10  C   UNL     1       2.200   7.048  19.888  0.00  0.00    +0.000 A 
ATOM     11  C   UNL     1       2.353   7.886  18.764  0.00  0.00    +0.000 A 
ATOM     12  C   UNL     1       2.955   7.135  17.778  0.00  0.00    +0.000 A 
ENDBRANCH   1   8
BRANCH   1  13
ATOM     13  C   UNL     1       2.793   3.654  17.279  0.00  0.00    +0.000 C 
BRANCH  13  15
ATOM     14  C   UNL     1       3.562   1.399  18.480  0.00  0.00    +0.000 C 
ATOM     15  C   UNL     1       3.241   2.414  17.928  0.00  0.00    +0.000 C 
ENDBRANCH  13  15
ENDBRANCH   1  13
TORSDOF 4
ENDMDL
MODEL 4
REMARK VINA RESULT:      -5.8      2.202      5.029
REMARK  Name = 
REMARK  4 active torsions:
REMARK  status: ('A' for Active; 'I' for Inactive)
REMARK    1  A    between atoms: C_2  and  C_3
REMARK    2  A    between atoms: C_3  and  N_4
REMARK    3  A    between atoms: N_4  and  C_5
REMARK    4  A    between atoms: N_4  and  N_11
REMARK                            x       y       z     vdW  Elec       q    Type
REMARK                         _______ _______ _______ _____ _____    ______ ____
ROOT
ATOM      1  N   UNL     1       5.215   5.296  16.817  0.00  0.00    +0.000 N 
ENDROOT
BRANCH   1   2
ATOM      2  C   UNL     1       4.067   4.633  17.300  0.00  0.00    +0.000 A 
ATOM      3  C   UNL     1       2.990   5.356  17.825  0.00  0.00    +0.000 A 
ATOM      4  C   UNL     1       1.859   4.683  18.272  0.00  0.00    +0.000 A 
ATOM      5  N   UNL     1       1.716   3.344  18.227  0.00  0.00    +0.000 NA
ATOM      6  C   UNL     1       2.753   2.652  17.718  0.00  0.00    +0.000 A 
ATOM      7  C   UNL     1       3.925   3.239  17.261  0.00  0.00    +0.000 A 
ENDBRANCH   1   2
BRANCH   1   8
ATOM      8  N   UNL     1       6.272   5.724  17.628  0.00  0.00    +0.000 N 
ATOM      9  C   UNL     1       6.681   5.152  18.813  0.00  0.00    +0.000 A 
ATOM     10  C   UNL     1       7.751   5.865  19.309  0.00  0.00    +0.000 A 
ATOM     11  C   UNL     1       7.982   6.939  18.424  0.00  0.00    +0.000 A 
ATOM     12  C   UNL     1       7.082   6.813  17.389  0.00  0.00    +0.000 A 
ENDBRANCH   1   8
BRANCH   1  13
ATOM     13  C   UNL     1       5.269   5.745  15.424  0.00  0.00    +0.000 C 
BRANCH  13  15
ATOM     14  C   UNL     1       6.199   3.858  13.783  0.00  0.00    +0.000 C 
ATOM     15  C   UNL     1       5.784   4.725  14.501  0.00  0.00    +0.000 C 
ENDBRANCH  13  15
ENDBRANCH   1  13
TORSDOF 4
ENDMDL
MODEL 5
REMARK VINA RESULT:      -5.8      2.191      4.925
REMARK  Name = 
REMARK  4 active torsions:
REMARK  status: ('A' for Active; 'I' for Inactive)
REMARK    1  A    between atoms: C_2  and  C_3
REMARK    2  A    between atoms: C_3  and  N_4
REMARK    3  A    between atoms: N_4  and  C_5
REMARK    4  A    between atoms: N_4  and  N_11
REMARK                            x       y       z     vdW  Elec       q    Type
REMARK                         _______ _______ _______ _____ _____    ______ ____
ROOT
ATOM      1  N   UNL     1       5.188   5.308  16.819  0.00  0.00    +0.000 N 
ENDROOT
BRANCH   1   2
ATOM      2  C   UNL     1       4.026   4.660  17.288  0.00  0.00    +0.000 A 
ATOM      3  C   UNL     1       3.912   3.266  17.237  0.00  0.00    +0.000 A 
ATOM      4  C   UNL     1       2.768   2.649  17.728  0.00  0.00    +0.000 A 
ATOM      5  N   UNL     1       1.730   3.314  18.272  0.00  0.00    +0.000 NA
ATOM      6  C   UNL     1       1.844   4.655  18.322  0.00  0.00    +0.000 A 
ATOM      7  C   UNL     1       2.944   5.356  17.846  0.00  0.00    +0.000 A 
ENDBRANCH   1   2
BRANCH   1   8
ATOM      8  N   UNL     1       6.233   5.737  17.645  0.00  0.00    +0.000 N 
ATOM      9  C   UNL     1       7.095   6.783  17.401  0.00  0.00    +0.000 A 
ATOM     10  C   UNL     1       7.984   6.886  18.449  0.00  0.00    +0.000 A 
ATOM     11  C   UNL     1       7.691   5.839  19.348  0.00  0.00    +0.000 A 
ATOM     12  C   UNL     1       6.597   5.169  18.846  0.00  0.00    +0.000 A 
ENDBRANCH   1   8
BRANCH   1  13
ATOM     13  C   UNL     1       5.271   5.742  15.422  0.00  0.00    +0.000 C 
BRANCH  13  15
ATOM     14  C   UNL     1       6.205   3.880  13.755  0.00  0.00    +0.000 C 
ATOM     15  C   UNL     1       5.768   4.698  14.516  0.00  0.00    +0.000 C 
ENDBRANCH  13  15
ENDBRANCH   1  13
TORSDOF 4
ENDMDL
MODEL 6
REMARK VINA RESULT:      -5.8      1.330      1.482
REMARK  Name = 
REMARK  4 active torsions:
REMARK  status: ('A' for Active; 'I' for Inactive)
REMARK    1  A    between atoms: C_2  and  C_3
REMARK    2  A    between atoms: C_3  and  N_4
REMARK    3  A    between atoms: N_4  and  C_5
REMARK    4  A    between atoms: N_4  and  N_11
REMARK                            x       y       z     vdW  Elec       q    Type
REMARK                         _______ _______ _______ _____ _____    ______ ____
ROOT
ATOM      1  N   UNL     1       3.811   4.764  18.731  0.00  0.00    +0.000 N 
ENDROOT
BRANCH   1   2
ATOM      2  C   UNL     1       4.995   4.676  17.969  0.00  0.00    +0.000 A 
ATOM      3  C   UNL     1       4.948   4.376  16.603  0.00  0.00    +0.000 A 
ATOM      4  C   UNL     1       6.126   4.320  15.868  0.00  0.00    +0.000 A 
ATOM      5  N   UNL     1       7.348   4.546  16.390  0.00  0.00    +0.000 NA
ATOM      6  C   UNL     1       7.389   4.838  17.704  0.00  0.00    +0.000 A 
ATOM      7  C   UNL     1       6.265   4.904  18.517  0.00  0.00    +0.000 A 
ENDBRANCH   1   2
BRANCH   1   8
ATOM      8  N   UNL     1       2.843   3.756  18.794  0.00  0.00    +0.000 N 
ATOM      9  C   UNL     1       1.522   3.863  18.418  0.00  0.00    +0.000 A 
ATOM     10  C   UNL     1       0.895   2.654  18.635  0.00  0.00    +0.000 A 
ATOM     11  C   UNL     1       1.849   1.787  19.207  0.00  0.00    +0.000 A 
ATOM     12  C   UNL     1       3.040   2.477  19.266  0.00  0.00    +0.000 A 
ENDBRANCH   1   8
BRANCH   1  13
ATOM     13  C   UNL     1       3.440   6.033  19.363  0.00  0.00    +0.000 C 
BRANCH  13  15
ATOM     14  C   UNL     1       2.763   7.957  17.643  0.00  0.00    +0.000 C 
ATOM     15  C   UNL     1       3.088   7.084  18.399  0.00  0.00    +0.000 C 
ENDBRANCH  13  15
ENDBRANCH   1  13
TORSDOF 4
ENDMDL
MODEL 7
REMARK VINA RESULT:      -5.8      1.672      3.449
REMARK  Name = 
REMARK  4 active torsions:
REMARK  status: ('A' for Active; 'I' for Inactive)
REMARK    1  A    between atoms: C_2  and  C_3
REMARK    2  A    between atoms: C_3  and  N_4
REMARK    3  A    between atoms: N_4  and  C_5
REMARK    4  A    between atoms: N_4  and  N_11
REMARK                            x       y       z     vdW  Elec       q    Type
REMARK                         _______ _______ _______ _____ _____    ______ ____
ROOT
ATOM      1  N   UNL     1       3.639   4.798  17.545  0.00  0.00    +0.000 N 
ENDROOT
BRANCH   1   2
ATOM      2  C   UNL     1       5.003   4.732  17.191  0.00  0.00    +0.000 A 
ATOM      3  C   UNL     1       6.002   4.799  18.169  0.00  0.00    +0.000 A 
ATOM      4  C   UNL     1       7.338   4.707  17.798  0.00  0.00    +0.000 A 
ATOM      5  N   UNL     1       7.755   4.545  16.527  0.00  0.00    +0.000 NA
ATOM      6  C   UNL     1       6.791   4.477  15.589  0.00  0.00    +0.000 A 
ATOM      7  C   UNL     1       5.434   4.572  15.866  0.00  0.00    +0.000 A 
ENDBRANCH   1   2
BRANCH   1   8
ATOM      8  N   UNL     1       3.074   5.833  18.298  0.00  0.00    +0.000 N 
ATOM      9  C   UNL     1       2.888   7.136  17.891  0.00  0.00    +0.000 A 
ATOM     10  C   UNL     1       2.305   7.847  18.918  0.00  0.00    +0.000 A 
ATOM     11  C   UNL     1       2.168   6.965  20.011  0.00  0.00    +0.000 A 
ATOM     12  C   UNL     1       2.620   5.732  19.595  0.00  0.00    +0.000 A 
ENDBRANCH   1   8
BRANCH   1  13
ATOM     13  C   UNL     1       2.761   3.653  17.290  0.00  0.00    +0.000 C 
BRANCH  13  15
ATOM     14  C   UNL     1       3.568   1.382  18.434  0.00  0.00    +0.000 C 
ATOM     15  C   UNL     1       3.231   2.408  17.911  0.00  0.00    +0.000 C 
ENDBRANCH  13  15
ENDBRANCH   1  13
TORSDOF 4
ENDMDL
MODEL 8
REMARK VINA RESULT:      -5.8      1.312      1.896
REMARK  Name = 
REMARK  4 active torsions:
REMARK  status: ('A' for Active; 'I' for Inactive)
REMARK    1  A    between atoms: C_2  and  C_3
REMARK    2  A    between atoms: C_3  and  N_4
REMARK    3  A    between atoms: N_4  and  C_5
REMARK    4  A    between atoms: N_4  and  N_11
REMARK                            x       y       z     vdW  Elec       q    Type
REMARK                         _______ _______ _______ _____ _____    ______ ____
ROOT
ATOM      1  N   UNL     1       3.837   4.786  18.724  0.00  0.00    +0.000 N 
ENDROOT
BRANCH   1   2
ATOM      2  C   UNL     1       5.007   4.713  17.938  0.00  0.00    +0.000 A 
ATOM      3  C   UNL     1       6.265   4.944  18.504  0.00  0.00    +0.000 A 
ATOM      4  C   UNL     1       7.406   4.841  17.715  0.00  0.00    +0.000 A 
ATOM      5  N   UNL     1       7.387   4.517  16.408  0.00  0.00    +0.000 NA
ATOM      6  C   UNL     1       6.174   4.291  15.868  0.00  0.00    +0.000 A 
ATOM      7  C   UNL     1       4.984   4.383  16.576  0.00  0.00    +0.000 A 
ENDBRANCH   1   2
BRANCH   1   8
ATOM      8  N   UNL     1       2.876   3.772  18.796  0.00  0.00    +0.000 N 
ATOM      9  C   UNL     1       1.579   3.837  18.336  0.00  0.00    +0.000 A 
ATOM     10  C   UNL     1       0.951   2.637  18.594  0.00  0.00    +0.000 A 
ATOM     11  C   UNL     1       1.877   1.821  19.278  0.00  0.00    +0.000 A 
ATOM     12  C   UNL     1       3.056   2.529  19.362  0.00  0.00    +0.000 A 
ENDBRANCH   1   8
BRANCH   1  13
ATOM     13  C   UNL     1       3.473   6.047  19.376  0.00  0.00    +0.000 C 
BRANCH  13  15
ATOM     14  C   UNL     1       2.752   7.924  17.623  0.00  0.00    +0.000 C 
ATOM     15  C   UNL     1       3.071   7.098  18.432  0.00  0.00    +0.000 C 
ENDBRANCH  13  15
ENDBRANCH   1  13
TORSDOF 4
ENDMDL
MODEL 9
REMARK VINA RESULT:      -5.7      1.325      2.063
REMARK  Name = 
REMARK  4 active torsions:
REMARK  status: ('A' for Active; 'I' for Inactive)
REMARK    1  A    between atoms: C_2  and  C_3
REMARK    2  A    between atoms: C_3  and  N_4
REMARK    3  A    between atoms: N_4  and  C_5
REMARK    4  A    between atoms: N_4  and  N_11
REMARK                            x       y       z     vdW  Elec       q    Type
REMARK                         _______ _______ _______ _____ _____    ______ ____
ROOT
ATOM      1  N   UNL     1       3.804   5.189  18.071  0.00  0.00    +0.000 N 
ENDROOT
BRANCH   1   2
ATOM      2  C   UNL     1       5.108   4.964  17.583  0.00  0.00    +0.000 A 
ATOM      3  C   UNL     1       6.219   5.076  18.426  0.00  0.00    +0.000 A 
ATOM      4  C   UNL     1       7.492   4.825  17.928  0.00  0.00    +0.000 A 
ATOM      5  N   UNL     1       7.741   4.463  16.654  0.00  0.00    +0.000 NA
ATOM      6  C   UNL     1       6.670   4.352  15.847  0.00  0.00    +0.000 A 
ATOM      7  C   UNL     1       5.365   4.595  16.255  0.00  0.00    +0.000 A 
ENDBRANCH   1   2
BRANCH   1   8
ATOM      8  N   UNL     1       2.940   4.174  18.498  0.00  0.00    +0.000 N 
ATOM      9  C   UNL     1       3.108   3.364  19.599  0.00  0.00    +0.000 A 
ATOM     10  C   UNL     1       2.045   2.490  19.678  0.00  0.00    +0.000 A 
ATOM     11  C   UNL     1       1.217   2.738  18.564  0.00  0.00    +0.000 A 
ATOM     12  C   UNL     1       1.773   3.793  17.874  0.00  0.00    +0.000 A 
ENDBRANCH   1   8
BRANCH   1  13
ATOM     13  C   UNL     1       3.207   6.524  17.977  0.00  0.00    +0.000 C 
BRANCH  13  15
ATOM     14  C   UNL     1       2.010   7.306  20.229  0.00  0.00    +0.000 C 
ATOM     15  C   UNL     1       2.524   6.946  19.207  0.00  0.00    +0.000 C 
ENDBRANCH  13  15
ENDBRANCH   1  13
TORSDOF 4
ENDMDL
