MODEL 1
REMARK VINA RESULT:      -4.4      0.000      0.000
REMARK  Name = 
REMARK  8 active torsions:
REMARK  status: ('A' for Active; 'I' for Inactive)
REMARK    1  A    between atoms: C_1  and  O_2
REMARK    2  A    between atoms: O_2  and  C_3
REMARK    3  A    between atoms: C_3  and  C_5
REMARK    4  A    between atoms: C_5  and  C_6
REMARK    5  A    between atoms: C_6  and  C_7
REMARK    6  A    between atoms: C_7  and  C_8
REMARK    7  A    between atoms: C_8  and  C_9
REMARK    8  A    between atoms: C_9  and  O_11
REMARK                            x       y       z     vdW  Elec       q    Type
REMARK                         _______ _______ _______ _____ _____    ______ ____
ROOT
ATOM      1  C   UNL     1       2.517   5.317  18.492  0.00  0.00    +0.000 C 
ENDROOT
BRANCH   1   2
ATOM      2  C   UNL     1       1.663   4.226  17.845  0.00  0.00    +0.000 C 
BRANCH   2   3
ATOM      3  C   UNL     1       1.623   2.990  18.713  0.00  0.00    +0.000 C 
ATOM      4  O   UNL     1       2.307   1.992  18.533  0.00  0.00    +0.000 OA
BRANCH   3   6
ATOM      5  C   UNL     1       1.291   2.881  21.023  0.00  0.00    +0.000 C 
ATOM      6  O   UNL     1       0.739   3.159  19.736  0.00  0.00    +0.000 OA
ENDBRANCH   3   6
ENDBRANCH   2   3
ENDBRANCH   1   2
BRANCH   1   7
ATOM      7  C   UNL     1       3.740   5.659  17.643  0.00  0.00    +0.000 C 
BRANCH   7   8
ATOM      8  C   UNL     1       4.723   4.489  17.576  0.00  0.00    +0.000 C 
BRANCH   8   9
ATOM      9  C   UNL     1       5.335   4.196  18.925  0.00  0.00    +0.000 C 
ATOM     10  O   UNL     1       5.969   4.992  19.601  0.00  0.00    +0.000 OA
BRANCH   9  11
ATOM     11  O   UNL     1       5.110   2.925  19.331  0.00  0.00    +0.000 OA
ATOM     12  H   UNL     1       4.606   2.390  18.688  0.00  0.00    +0.000 HD
ENDBRANCH   9  11
ENDBRANCH   8   9
ENDBRANCH   7   8
ENDBRANCH   1   7
TORSDOF 7
ENDMDL
MODEL 2
REMARK VINA RESULT:      -4.3      2.165      2.552
REMARK  Name = 
REMARK  8 active torsions:
REMARK  status: ('A' for Active; 'I' for Inactive)
REMARK    1  A    between atoms: C_1  and  O_2
REMARK    2  A    between atoms: O_2  and  C_3
REMARK    3  A    between atoms: C_3  and  C_5
REMARK    4  A    between atoms: C_5  and  C_6
REMARK    5  A    between atoms: C_6  and  C_7
REMARK    6  A    between atoms: C_7  and  C_8
REMARK    7  A    between atoms: C_8  and  C_9
REMARK    8  A    between atoms: C_9  and  O_11
REMARK                            x       y       z     vdW  Elec       q    Type
REMARK                         _______ _______ _______ _____ _____    ______ ____
ROOT
ATOM      1  C   UNL     1       4.199   5.408  18.184  0.00  0.00    +0.000 C 
ENDROOT
BRANCH   1   2
ATOM      2  C   UNL     1       2.677   5.503  18.285  0.00  0.00    +0.000 C 
BRANCH   2   3
ATOM      3  C   UNL     1       2.035   4.167  17.989  0.00  0.00    +0.000 C 
ATOM      4  O   UNL     1       1.121   3.997  17.194  0.00  0.00    +0.000 OA
BRANCH   3   6
ATOM      5  C   UNL     1       1.725   2.239  19.271  0.00  0.00    +0.000 C 
ATOM      6  O   UNL     1       2.639   3.182  18.711  0.00  0.00    +0.000 OA
ENDBRANCH   3   6
ENDBRANCH   2   3
ENDBRANCH   1   2
BRANCH   1   7
ATOM      7  C   UNL     1       4.667   5.334  16.731  0.00  0.00    +0.000 C 
BRANCH   7   8
ATOM      8  C   UNL     1       5.652   4.184  16.516  0.00  0.00    +0.000 C 
BRANCH   8   9
ATOM      9  C   UNL     1       7.056   4.688  16.280  0.00  0.00    +0.000 C 
ATOM     10  O   UNL     1       7.386   5.474  15.405  0.00  0.00    +0.000 OA
BRANCH   9  11
ATOM     11  O   UNL     1       7.947   4.169  17.156  0.00  0.00    +0.000 OA
ATOM     12  H   UNL     1       7.534   3.675  17.890  0.00  0.00    +0.000 HD
ENDBRANCH   9  11
ENDBRANCH   8   9
ENDBRANCH   7   8
ENDBRANCH   1   7
TORSDOF 7
ENDMDL
MODEL 3
REMARK VINA RESULT:      -4.3      2.311      2.557
REMARK  Name = 
REMARK  8 active torsions:
REMARK  status: ('A' for Active; 'I' for Inactive)
REMARK    1  A    between atoms: C_1  and  O_2
REMARK    2  A    between atoms: O_2  and  C_3
REMARK    3  A    between atoms: C_3  and  C_5
REMARK    4  A    between atoms: C_5  and  C_6
REMARK    5  A    between atoms: C_6  and  C_7
REMARK    6  A    between atoms: C_7  and  C_8
REMARK    7  A    between atoms: C_8  and  C_9
REMARK    8  A    between atoms: C_9  and  O_11
REMARK                            x       y       z     vdW  Elec       q    Type
REMARK                         _______ _______ _______ _____ _____    ______ ____
ROOT
ATOM      1  C   UNL     1       3.546   3.967  17.249  0.00  0.00    +0.000 C 
ENDROOT
BRANCH   1   2
ATOM      2  C   UNL     1       2.887   4.454  18.539  0.00  0.00    +0.000 C 
BRANCH   2   3
ATOM      3  C   UNL     1       1.549   3.784  18.743  0.00  0.00    +0.000 C 
ATOM      4  O   UNL     1       1.041   2.992  17.962  0.00  0.00    +0.000 OA
BRANCH   3   6
ATOM      5  C   UNL     1       1.956   4.700  20.855  0.00  0.00    +0.000 C 
ATOM      6  O   UNL     1       1.004   4.169  19.932  0.00  0.00    +0.000 OA
ENDBRANCH   3   6
ENDBRANCH   2   3
ENDBRANCH   1   2
BRANCH   1   7
ATOM      7  C   UNL     1       4.809   4.763  16.921  0.00  0.00    +0.000 C 
BRANCH   7   8
ATOM      8  C   UNL     1       5.719   4.002  15.956  0.00  0.00    +0.000 C 
BRANCH   8   9
ATOM      9  C   UNL     1       7.104   4.602  15.904  0.00  0.00    +0.000 C 
ATOM     10  O   UNL     1       7.493   5.408  15.073  0.00  0.00    +0.000 OA
BRANCH   9  11
ATOM     11  O   UNL     1       7.903   4.147  16.896  0.00  0.00    +0.000 OA
ATOM     12  H   UNL     1       7.444   3.575  17.540  0.00  0.00    +0.000 HD
ENDBRANCH   9  11
ENDBRANCH   8   9
ENDBRANCH   7   8
ENDBRANCH   1   7
TORSDOF 7
ENDMDL
MODEL 4
REMARK VINA RESULT:      -4.2      2.255      2.660
REMARK  Name = 
REMARK  8 active torsions:
REMARK  status: ('A' for Active; 'I' for Inactive)
REMARK    1  A    between atoms: C_1  and  O_2
REMARK    2  A    between atoms: O_2  and  C_3
REMARK    3  A    between atoms: C_3  and  C_5
REMARK    4  A    between atoms: C_5  and  C_6
REMARK    5  A    between atoms: C_6  and  C_7
REMARK    6  A    between atoms: C_7  and  C_8
REMARK    7  A    between atoms: C_8  and  C_9
REMARK    8  A    between atoms: C_9  and  O_11
REMARK                            x       y       z     vdW  Elec       q    Type
REMARK                         _______ _______ _______ _____ _____    ______ ____
ROOT
ATOM      1  C   UNL     1       4.215   4.950  17.108  0.00  0.00    +0.000 C 
ENDROOT
BRANCH   1   2
ATOM      2  C   UNL     1       3.457   4.692  18.410  0.00  0.00    +0.000 C 
BRANCH   2   3
ATOM      3  C   UNL     1       2.320   3.723  18.186  0.00  0.00    +0.000 C 
ATOM      4  O   UNL     1       1.437   3.869  17.353  0.00  0.00    +0.000 OA
BRANCH   3   6
ATOM      5  C   UNL     1       3.412   2.835  20.052  0.00  0.00    +0.000 C 
ATOM      6  O   UNL     1       2.436   2.656  19.025  0.00  0.00    +0.000 OA
ENDBRANCH   3   6
ENDBRANCH   2   3
ENDBRANCH   1   2
BRANCH   1   7
ATOM      7  C   UNL     1       4.970   3.708  16.636  0.00  0.00    +0.000 C 
BRANCH   7   8
ATOM      8  C   UNL     1       6.060   4.064  15.624  0.00  0.00    +0.000 C 
BRANCH   8   9
ATOM      9  C   UNL     1       7.172   4.863  16.259  0.00  0.00    +0.000 C 
ATOM     10  O   UNL     1       7.388   6.050  16.066  0.00  0.00    +0.000 OA
BRANCH   9  11
ATOM     11  O   UNL     1       7.937   4.118  17.090  0.00  0.00    +0.000 OA
ATOM     12  H   UNL     1       8.292   4.617  17.850  0.00  0.00    +0.000 HD
ENDBRANCH   9  11
ENDBRANCH   8   9
ENDBRANCH   7   8
ENDBRANCH   1   7
TORSDOF 7
ENDMDL
MODEL 5
REMARK VINA RESULT:      -4.2      3.361      5.028
REMARK  Name = 
REMARK  8 active torsions:
REMARK  status: ('A' for Active; 'I' for Inactive)
REMARK    1  A    between atoms: C_1  and  O_2
REMARK    2  A    between atoms: O_2  and  C_3
REMARK    3  A    between atoms: C_3  and  C_5
REMARK    4  A    between atoms: C_5  and  C_6
REMARK    5  A    between atoms: C_6  and  C_7
REMARK    6  A    between atoms: C_7  and  C_8
REMARK    7  A    between atoms: C_8  and  C_9
REMARK    8  A    between atoms: C_9  and  O_11
REMARK                            x       y       z     vdW  Elec       q    Type
REMARK                         _______ _______ _______ _____ _____    ______ ____
ROOT
ATOM      1  C   UNL     1       6.589   6.296  16.858  0.00  0.00    +0.000 C 
ENDROOT
BRANCH   1   2
ATOM      2  C   UNL     1       7.283   5.128  17.557  0.00  0.00    +0.000 C 
BRANCH   2   3
ATOM      3  C   UNL     1       6.762   4.960  18.965  0.00  0.00    +0.000 C 
ATOM      4  O   UNL     1       7.223   5.520  19.949  0.00  0.00    +0.000 OA
BRANCH   3   6
ATOM      5  C   UNL     1       4.459   4.758  19.310  0.00  0.00    +0.000 C 
ATOM      6  O   UNL     1       5.690   4.118  18.975  0.00  0.00    +0.000 OA
ENDBRANCH   3   6
ENDBRANCH   2   3
ENDBRANCH   1   2
BRANCH   1   7
ATOM      7  C   UNL     1       5.561   5.814  15.835  0.00  0.00    +0.000 C 
BRANCH   7   8
ATOM      8  C   UNL     1       5.869   4.396  15.352  0.00  0.00    +0.000 C 
BRANCH   8   9
ATOM      9  C   UNL     1       6.615   4.403  14.039  0.00  0.00    +0.000 C 
ATOM     10  O   UNL     1       7.386   5.276  13.670  0.00  0.00    +0.000 OA
BRANCH   9  11
ATOM     11  O   UNL     1       6.339   3.317  13.281  0.00  0.00    +0.000 OA
ATOM     12  H   UNL     1       7.123   2.772  13.075  0.00  0.00    +0.000 HD
ENDBRANCH   9  11
ENDBRANCH   8   9
ENDBRANCH   7   8
ENDBRANCH   1   7
TORSDOF 7
ENDMDL
MODEL 6
REMARK VINA RESULT:      -4.2      1.976      3.101
REMARK  Name = 
REMARK  8 active torsions:
REMARK  status: ('A' for Active; 'I' for Inactive)
REMARK    1  A    between atoms: C_1  and  O_2
REMARK    2  A    between atoms: O_2  and  C_3
REMARK    3  A    between atoms: C_3  and  C_5
REMARK    4  A    between atoms: C_5  and  C_6
REMARK    5  A    between atoms: C_6  and  C_7
REMARK    6  A    between atoms: C_7  and  C_8
REMARK    7  A    between atoms: C_8  and  C_9
REMARK    8  A    between atoms: C_9  and  O_11
REMARK                            x       y       z     vdW  Elec       q    Type
REMARK                         _______ _______ _______ _____ _____    ______ ____
ROOT
ATOM      1  C   UNL     1       0.660   3.663  20.181  0.00  0.00    +0.000 C 
ENDROOT
BRANCH   1   2
ATOM      2  C   UNL     1       1.077   2.440  19.365  0.00  0.00    +0.000 C 
BRANCH   2   3
ATOM      3  C   UNL     1       1.676   2.856  18.042  0.00  0.00    +0.000 C 
ATOM      4  O   UNL     1       1.303   3.815  17.381  0.00  0.00    +0.000 OA
BRANCH   3   6
ATOM      5  C   UNL     1       3.675   1.869  18.745  0.00  0.00    +0.000 C 
ATOM      6  O   UNL     1       2.706   2.028  17.708  0.00  0.00    +0.000 OA
ENDBRANCH   3   6
ENDBRANCH   2   3
ENDBRANCH   1   2
BRANCH   1   7
ATOM      7  C   UNL     1       1.834   4.252  20.961  0.00  0.00    +0.000 C 
BRANCH   7   8
ATOM      8  C   UNL     1       2.091   5.709  20.576  0.00  0.00    +0.000 C 
BRANCH   8   9
ATOM      9  C   UNL     1       3.129   5.824  19.484  0.00  0.00    +0.000 C 
ATOM     10  O   UNL     1       4.307   5.519  19.595  0.00  0.00    +0.000 OA
BRANCH   9  11
ATOM     11  O   UNL     1       2.616   6.312  18.332  0.00  0.00    +0.000 OA
ATOM     12  H   UNL     1       2.563   5.653  17.614  0.00  0.00    +0.000 HD
ENDBRANCH   9  11
ENDBRANCH   8   9
ENDBRANCH   7   8
ENDBRANCH   1   7
TORSDOF 7
ENDMDL
MODEL 7
REMARK VINA RESULT:      -4.2      1.937      3.454
REMARK  Name = 
REMARK  8 active torsions:
REMARK  status: ('A' for Active; 'I' for Inactive)
REMARK    1  A    between atoms: C_1  and  O_2
REMARK    2  A    between atoms: O_2  and  C_3
REMARK    3  A    between atoms: C_3  and  C_5
REMARK    4  A    between atoms: C_5  and  C_6
REMARK    5  A    between atoms: C_6  and  C_7
REMARK    6  A    between atoms: C_7  and  C_8
REMARK    7  A    between atoms: C_8  and  C_9
REMARK    8  A    between atoms: C_9  and  O_11
REMARK                            x       y       z     vdW  Elec       q    Type
REMARK                         _______ _______ _______ _____ _____    ______ ____
ROOT
ATOM      1  C   UNL     1       0.902   3.181  19.971  0.00  0.00    +0.000 C 
ENDROOT
BRANCH   1   2
ATOM      2  C   UNL     1       1.684   2.190  19.109  0.00  0.00    +0.000 C 
BRANCH   2   3
ATOM      3  C   UNL     1       2.269   2.879  17.898  0.00  0.00    +0.000 C 
ATOM      4  O   UNL     1       1.639   3.598  17.135  0.00  0.00    +0.000 OA
BRANCH   3   6
ATOM      5  C   UNL     1       4.341   3.609  17.101  0.00  0.00    +0.000 C 
ATOM      6  O   UNL     1       3.600   2.605  17.795  0.00  0.00    +0.000 OA
ENDBRANCH   3   6
ENDBRANCH   2   3
ENDBRANCH   1   2
BRANCH   1   7
ATOM      7  C   UNL     1       1.822   3.982  20.891  0.00  0.00    +0.000 C 
BRANCH   7   8
ATOM      8  C   UNL     1       1.688   5.486  20.650  0.00  0.00    +0.000 C 
BRANCH   8   9
ATOM      9  C   UNL     1       2.686   5.979  19.629  0.00  0.00    +0.000 C 
ATOM     10  O   UNL     1       2.413   6.639  18.638  0.00  0.00    +0.000 OA
BRANCH   9  11
ATOM     11  O   UNL     1       3.953   5.609  19.923  0.00  0.00    +0.000 OA
ATOM     12  H   UNL     1       4.020   5.009  20.690  0.00  0.00    +0.000 HD
ENDBRANCH   9  11
ENDBRANCH   8   9
ENDBRANCH   7   8
ENDBRANCH   1   7
TORSDOF 7
ENDMDL
MODEL 8
REMARK VINA RESULT:      -4.1      2.474      4.935
REMARK  Name = 
REMARK  8 active torsions:
REMARK  status: ('A' for Active; 'I' for Inactive)
REMARK    1  A    between atoms: C_1  and  O_2
REMARK    2  A    between atoms: O_2  and  C_3
REMARK    3  A    between atoms: C_3  and  C_5
REMARK    4  A    between atoms: C_5  and  C_6
REMARK    5  A    between atoms: C_6  and  C_7
REMARK    6  A    between atoms: C_7  and  C_8
REMARK    7  A    between atoms: C_8  and  C_9
REMARK    8  A    between atoms: C_9  and  O_11
REMARK                            x       y       z     vdW  Elec       q    Type
REMARK                         _______ _______ _______ _____ _____    ______ ____
ROOT
ATOM      1  C   UNL     1       4.585   5.984  17.153  0.00  0.00    +0.000 C 
ENDROOT
BRANCH   1   2
ATOM      2  C   UNL     1       5.282   5.896  15.796  0.00  0.00    +0.000 C 
BRANCH   2   3
ATOM      3  C   UNL     1       6.761   5.639  15.968  0.00  0.00    +0.000 C 
ATOM      4  O   UNL     1       7.549   6.425  16.475  0.00  0.00    +0.000 OA
BRANCH   3   6
ATOM      5  C   UNL     1       6.237   3.946  14.445  0.00  0.00    +0.000 C 
ATOM      6  O   UNL     1       7.083   4.399  15.502  0.00  0.00    +0.000 OA
ENDBRANCH   3   6
ENDBRANCH   2   3
ENDBRANCH   1   2
BRANCH   1   7
ATOM      7  C   UNL     1       4.093   4.617  17.628  0.00  0.00    +0.000 C 
BRANCH   7   8
ATOM      8  C   UNL     1       4.911   4.107  18.815  0.00  0.00    +0.000 C 
BRANCH   8   9
ATOM      9  C   UNL     1       4.231   2.948  19.504  0.00  0.00    +0.000 C 
ATOM     10  O   UNL     1       3.032   2.861  19.724  0.00  0.00    +0.000 OA
BRANCH   9  11
ATOM     11  O   UNL     1       5.103   1.980  19.870  0.00  0.00    +0.000 OA
ATOM     12  H   UNL     1       5.671   1.666  19.141  0.00  0.00    +0.000 HD
ENDBRANCH   9  11
ENDBRANCH   8   9
ENDBRANCH   7   8
ENDBRANCH   1   7
TORSDOF 7
ENDMDL
MODEL 9
REMARK VINA RESULT:      -4.1      2.214      2.808
REMARK  Name = 
REMARK  8 active torsions:
REMARK  status: ('A' for Active; 'I' for Inactive)
REMARK    1  A    between atoms: C_1  and  O_2
REMARK    2  A    between atoms: O_2  and  C_3
REMARK    3  A    between atoms: C_3  and  C_5
REMARK    4  A    between atoms: C_5  and  C_6
REMARK    5  A    between atoms: C_6  and  C_7
REMARK    6  A    between atoms: C_7  and  C_8
REMARK    7  A    between atoms: C_8  and  C_9
REMARK    8  A    between atoms: C_9  and  O_11
REMARK                            x       y       z     vdW  Elec       q    Type
REMARK                         _______ _______ _______ _____ _____    ______ ____
ROOT
ATOM      1  C   UNL     1       3.569   3.683  17.298  0.00  0.00    +0.000 C 
ENDROOT
BRANCH   1   2
ATOM      2  C   UNL     1       3.411   2.432  18.161  0.00  0.00    +0.000 C 
BRANCH   2   3
ATOM      3  C   UNL     1       3.875   2.694  19.575  0.00  0.00    +0.000 C 
ATOM      4  O   UNL     1       4.945   2.323  20.036  0.00  0.00    +0.000 OA
BRANCH   3   6
ATOM      5  C   UNL     1       2.440   2.774  21.419  0.00  0.00    +0.000 C 
ATOM      6  O   UNL     1       2.943   3.424  20.251  0.00  0.00    +0.000 OA
ENDBRANCH   3   6
ENDBRANCH   2   3
ENDBRANCH   1   2
BRANCH   1   7
ATOM      7  C   UNL     1       4.975   3.794  16.711  0.00  0.00    +0.000 C 
BRANCH   7   8
ATOM      8  C   UNL     1       5.543   5.205  16.875  0.00  0.00    +0.000 C 
BRANCH   8   9
ATOM      9  C   UNL     1       7.048   5.218  16.752  0.00  0.00    +0.000 C 
ATOM     10  O   UNL     1       7.806   4.416  17.275  0.00  0.00    +0.000 OA
BRANCH   9  11
ATOM     11  O   UNL     1       7.496   6.238  15.984  0.00  0.00    +0.000 OA
ATOM     12  H   UNL     1       6.788   6.832  15.668  0.00  0.00    +0.000 HD
ENDBRANCH   9  11
ENDBRANCH   8   9
ENDBRANCH   7   8
ENDBRANCH   1   7
TORSDOF 7
ENDMDL
