MODEL 1
REMARK VINA RESULT:      -7.5      0.000      0.000
REMARK  Name = 
REMARK  8 active torsions:
REMARK  status: ('A' for Active; 'I' for Inactive)
REMARK    1  A    between atoms: C_1  and  C_2
REMARK    2  A    between atoms: C_4  and  O_5
REMARK    3  A    between atoms: C_7  and  S_8
REMARK    4  A    between atoms: S_8  and  C_9
REMARK    5  A    between atoms: C_9  and  C_10
REMARK    6  A    between atoms: C_10  and  C_12
REMARK    7  A    between atoms: C_15  and  C_16
REMARK    8  A    between atoms: C_17  and  C_18
REMARK                            x       y       z     vdW  Elec       q    Type
REMARK                         _______ _______ _______ _____ _____    ______ ____
ROOT
ATOM      1  C   UNL     1       5.149   4.594  15.627  0.00  0.00    +0.000 C 
ENDROOT
BRANCH   1   2
ATOM      2  C   UNL     1       4.383   4.106  16.844  0.00  0.00    +0.000 C 
ATOM      3  O   UNL     1       4.362   2.928  17.210  0.00  0.00    +0.000 OA
BRANCH   2   4
ATOM      4  C   UNL     1       3.652   5.102  17.677  0.00  0.00    +0.000 A 
ATOM      5  C   UNL     1       3.775   6.477  17.477  0.00  0.00    +0.000 A 
ATOM      6  C   UNL     1       3.121   7.364  18.339  0.00  0.00    +0.000 A 
ATOM      7  C   UNL     1       2.350   6.896  19.419  0.00  0.00    +0.000 A 
ATOM      8  C   UNL     1       1.719   7.895  20.353  0.00  0.00    +0.000 C 
ATOM      9  C   UNL     1       2.217   5.510  19.618  0.00  0.00    +0.000 A 
ATOM     10  C   UNL     1       1.417   4.910  20.745  0.00  0.00    +0.000 C 
ATOM     11  C   UNL     1       2.865   4.628  18.735  0.00  0.00    +0.000 A 
ENDBRANCH   2   4
ENDBRANCH   1   2
BRANCH   1  12
ATOM     12  S   UNL     1       6.943   4.251  15.776  0.00  0.00    +0.000 S 
BRANCH  12  18
ATOM     13  C   UNL     1       7.915   9.003  17.477  0.00  0.00    +0.000 C 
ATOM     14  C   UNL     1       7.819   7.533  17.783  0.00  0.00    +0.000 A 
ATOM     15  C   UNL     1       8.073   7.077  19.057  0.00  0.00    +0.000 A 
ATOM     16  C   UNL     1       7.953   5.724  19.239  0.00  0.00    +0.000 A 
ATOM     17  N   UNL     1       7.607   4.858  18.287  0.00  0.00    +0.000 NA
ATOM     18  C   UNL     1       7.364   5.387  17.080  0.00  0.00    +0.000 A 
ATOM     19  N   UNL     1       7.475   6.696  16.777  0.00  0.00    +0.000 NA
BRANCH  16  20
ATOM     20  O   UNL     1       8.193   5.149  20.455  0.00  0.00    +0.000 OA
ATOM     21  H   UNL     1       8.062   4.193  20.373  0.00  0.00    +0.000 HD
ENDBRANCH  16  20
ENDBRANCH  12  18
ENDBRANCH   1  12
TORSDOF 5
ENDMDL
MODEL 2
REMARK VINA RESULT:      -7.3      2.879      4.215
REMARK  Name = 
REMARK  8 active torsions:
REMARK  status: ('A' for Active; 'I' for Inactive)
REMARK    1  A    between atoms: C_1  and  C_2
REMARK    2  A    between atoms: C_4  and  O_5
REMARK    3  A    between atoms: C_7  and  S_8
REMARK    4  A    between atoms: S_8  and  C_9
REMARK    5  A    between atoms: C_9  and  C_10
REMARK    6  A    between atoms: C_10  and  C_12
REMARK    7  A    between atoms: C_15  and  C_16
REMARK    8  A    between atoms: C_17  and  C_18
REMARK                            x       y       z     vdW  Elec       q    Type
REMARK                         _______ _______ _______ _____ _____    ______ ____
ROOT
ATOM      1  C   UNL     1       4.268   3.961  16.508  0.00  0.00    +0.000 C 
ENDROOT
BRANCH   1   2
ATOM      2  C   UNL     1       3.625   3.695  17.858  0.00  0.00    +0.000 C 
ATOM      3  O   UNL     1       3.540   2.574  18.364  0.00  0.00    +0.000 OA
BRANCH   2   4
ATOM      4  C   UNL     1       3.108   4.850  18.644  0.00  0.00    +0.000 A 
ATOM      5  C   UNL     1       2.632   4.714  19.948  0.00  0.00    +0.000 A 
ATOM      6  C   UNL     1       2.091   5.822  20.608  0.00  0.00    +0.000 A 
ATOM      7  C   UNL     1       2.003   7.076  19.976  0.00  0.00    +0.000 A 
ATOM      8  C   UNL     1       1.355   8.220  20.709  0.00  0.00    +0.000 C 
ATOM      9  C   UNL     1       2.491   7.219  18.664  0.00  0.00    +0.000 A 
ATOM     10  C   UNL     1       2.440   8.517  17.901  0.00  0.00    +0.000 C 
ATOM     11  C   UNL     1       3.048   6.102  18.017  0.00  0.00    +0.000 A 
ENDBRANCH   2   4
ENDBRANCH   1   2
BRANCH   1  12
ATOM     12  S   UNL     1       6.023   4.460  16.682  0.00  0.00    +0.000 S 
BRANCH  12  18
ATOM     13  C   UNL     1       5.515   2.856  11.826  0.00  0.00    +0.000 C 
ATOM     14  C   UNL     1       6.251   3.719  12.813  0.00  0.00    +0.000 A 
ATOM     15  C   UNL     1       7.295   4.511  12.391  0.00  0.00    +0.000 A 
ATOM     16  C   UNL     1       7.898   5.266  13.362  0.00  0.00    +0.000 A 
ATOM     17  N   UNL     1       7.536   5.283  14.645  0.00  0.00    +0.000 NA
ATOM     18  C   UNL     1       6.503   4.494  14.968  0.00  0.00    +0.000 A 
ATOM     19  N   UNL     1       5.850   3.690  14.105  0.00  0.00    +0.000 NA
BRANCH  16  20
ATOM     20  O   UNL     1       8.955   6.081  13.071  0.00  0.00    +0.000 OA
ATOM     21  H   UNL     1       9.771   5.566  13.151  0.00  0.00    +0.000 HD
ENDBRANCH  16  20
ENDBRANCH  12  18
ENDBRANCH   1  12
TORSDOF 5
ENDMDL
MODEL 3
REMARK VINA RESULT:      -7.2      2.051      2.982
REMARK  Name = 
REMARK  8 active torsions:
REMARK  status: ('A' for Active; 'I' for Inactive)
REMARK    1  A    between atoms: C_1  and  C_2
REMARK    2  A    between atoms: C_4  and  O_5
REMARK    3  A    between atoms: C_7  and  S_8
REMARK    4  A    between atoms: S_8  and  C_9
REMARK    5  A    between atoms: C_9  and  C_10
REMARK    6  A    between atoms: C_10  and  C_12
REMARK    7  A    between atoms: C_15  and  C_16
REMARK    8  A    between atoms: C_17  and  C_18
REMARK                            x       y       z     vdW  Elec       q    Type
REMARK                         _______ _______ _______ _____ _____    ______ ____
ROOT
ATOM      1  C   UNL     1       3.276   2.590  18.103  0.00  0.00    +0.000 C 
ENDROOT
BRANCH   1   2
ATOM      2  C   UNL     1       1.936   3.232  18.416  0.00  0.00    +0.000 C 
ATOM      3  O   UNL     1       0.852   2.685  18.202  0.00  0.00    +0.000 OA
BRANCH   2   4
ATOM      4  C   UNL     1       1.918   4.574  19.062  0.00  0.00    +0.000 A 
ATOM      5  C   UNL     1       1.479   4.768  20.371  0.00  0.00    +0.000 A 
ATOM      6  C   UNL     1       1.418   6.063  20.897  0.00  0.00    +0.000 A 
ATOM      7  C   UNL     1       1.776   7.183  20.123  0.00  0.00    +0.000 A 
ATOM      8  C   UNL     1       1.631   8.558  20.718  0.00  0.00    +0.000 C 
ATOM      9  C   UNL     1       2.228   6.989  18.805  0.00  0.00    +0.000 A 
ATOM     10  C   UNL     1       2.632   8.120  17.896  0.00  0.00    +0.000 C 
ATOM     11  C   UNL     1       2.303   5.682  18.293  0.00  0.00    +0.000 A 
ENDBRANCH   2   4
ENDBRANCH   1   2
BRANCH   1  12
ATOM     12  S   UNL     1       4.517   2.948  19.404  0.00  0.00    +0.000 S 
BRANCH  12  18
ATOM     13  C   UNL     1       6.001   5.301  15.083  0.00  0.00    +0.000 C 
ATOM     14  C   UNL     1       6.190   5.116  16.563  0.00  0.00    +0.000 A 
ATOM     15  C   UNL     1       7.162   5.828  17.228  0.00  0.00    +0.000 A 
ATOM     16  C   UNL     1       7.254   5.595  18.575  0.00  0.00    +0.000 A 
ATOM     17  N   UNL     1       6.474   4.755  19.254  0.00  0.00    +0.000 NA
ATOM     18  C   UNL     1       5.545   4.112  18.534  0.00  0.00    +0.000 A 
ATOM     19  N   UNL     1       5.379   4.241  17.203  0.00  0.00    +0.000 NA
BRANCH  16  20
ATOM     20  O   UNL     1       8.189   6.231  19.342  0.00  0.00    +0.000 OA
ATOM     21  H   UNL     1       9.038   5.780  19.227  0.00  0.00    +0.000 HD
ENDBRANCH  16  20
ENDBRANCH  12  18
ENDBRANCH   1  12
TORSDOF 5
ENDMDL
MODEL 4
REMARK VINA RESULT:      -7.2      2.932      4.533
REMARK  Name = 
REMARK  8 active torsions:
REMARK  status: ('A' for Active; 'I' for Inactive)
REMARK    1  A    between atoms: C_1  and  C_2
REMARK    2  A    between atoms: C_4  and  O_5
REMARK    3  A    between atoms: C_7  and  S_8
REMARK    4  A    between atoms: S_8  and  C_9
REMARK    5  A    between atoms: C_9  and  C_10
REMARK    6  A    between atoms: C_10  and  C_12
REMARK    7  A    between atoms: C_15  and  C_16
REMARK    8  A    between atoms: C_17  and  C_18
REMARK                            x       y       z     vdW  Elec       q    Type
REMARK                         _______ _______ _______ _____ _____    ______ ____
ROOT
ATOM      1  C   UNL     1       6.692   4.894  17.365  0.00  0.00    +0.000 C 
ENDROOT
BRANCH   1   2
ATOM      2  C   UNL     1       6.236   4.933  18.813  0.00  0.00    +0.000 C 
ATOM      3  O   UNL     1       6.986   5.191  19.757  0.00  0.00    +0.000 OA
BRANCH   2   4
ATOM      4  C   UNL     1       4.797   4.698  19.117  0.00  0.00    +0.000 A 
ATOM      5  C   UNL     1       3.967   5.696  19.627  0.00  0.00    +0.000 A 
ATOM      6  C   UNL     1       2.642   5.393  19.961  0.00  0.00    +0.000 A 
ATOM      7  C   UNL     1       2.130   4.092  19.807  0.00  0.00    +0.000 A 
ATOM      8  C   UNL     1       0.717   3.806  20.241  0.00  0.00    +0.000 C 
ATOM      9  C   UNL     1       2.962   3.084  19.284  0.00  0.00    +0.000 A 
ATOM     10  C   UNL     1       2.510   1.662  19.083  0.00  0.00    +0.000 C 
ATOM     11  C   UNL     1       4.286   3.405  18.935  0.00  0.00    +0.000 A 
ENDBRANCH   2   4
ENDBRANCH   1   2
BRANCH   1  12
ATOM     12  S   UNL     1       5.298   5.178  16.209  0.00  0.00    +0.000 S 
BRANCH  12  18
ATOM     13  C   UNL     1       5.633   2.675  11.733  0.00  0.00    +0.000 C 
ATOM     14  C   UNL     1       6.229   3.680  12.680  0.00  0.00    +0.000 A 
ATOM     15  C   UNL     1       7.403   4.321  12.354  0.00  0.00    +0.000 A 
ATOM     16  C   UNL     1       7.863   5.223  13.277  0.00  0.00    +0.000 A 
ATOM     17  N   UNL     1       7.255   5.510  14.427  0.00  0.00    +0.000 NA
ATOM     18  C   UNL     1       6.112   4.851  14.661  0.00  0.00    +0.000 A 
ATOM     19  N   UNL     1       5.577   3.925  13.840  0.00  0.00    +0.000 NA
BRANCH  16  20
ATOM     20  O   UNL     1       9.025   5.913  13.074  0.00  0.00    +0.000 OA
ATOM     21  H   UNL     1       8.804   6.838  12.889  0.00  0.00    +0.000 HD
ENDBRANCH  16  20
ENDBRANCH  12  18
ENDBRANCH   1  12
TORSDOF 5
ENDMDL
MODEL 5
REMARK VINA RESULT:      -7.1      1.568      2.105
REMARK  Name = 
REMARK  8 active torsions:
REMARK  status: ('A' for Active; 'I' for Inactive)
REMARK    1  A    between atoms: C_1  and  C_2
REMARK    2  A    between atoms: C_4  and  O_5
REMARK    3  A    between atoms: C_7  and  S_8
REMARK    4  A    between atoms: S_8  and  C_9
REMARK    5  A    between atoms: C_9  and  C_10
REMARK    6  A    between atoms: C_10  and  C_12
REMARK    7  A    between atoms: C_15  and  C_16
REMARK    8  A    between atoms: C_17  and  C_18
REMARK                            x       y       z     vdW  Elec       q    Type
REMARK                         _______ _______ _______ _____ _____    ______ ____
ROOT
ATOM      1  C   UNL     1       5.425   3.816  16.399  0.00  0.00    +0.000 C 
ENDROOT
BRANCH   1   2
ATOM      2  C   UNL     1       4.456   4.848  16.950  0.00  0.00    +0.000 C 
ATOM      3  O   UNL     1       4.302   5.968  16.460  0.00  0.00    +0.000 OA
BRANCH   2   4
ATOM      4  C   UNL     1       3.606   4.479  18.116  0.00  0.00    +0.000 A 
ATOM      5  C   UNL     1       3.871   4.934  19.408  0.00  0.00    +0.000 A 
ATOM      6  C   UNL     1       3.079   4.494  20.474  0.00  0.00    +0.000 A 
ATOM      7  C   UNL     1       2.024   3.586  20.273  0.00  0.00    +0.000 A 
ATOM      8  C   UNL     1       1.244   3.097  21.464  0.00  0.00    +0.000 C 
ATOM      9  C   UNL     1       1.748   3.132  18.970  0.00  0.00    +0.000 A 
ATOM     10  C   UNL     1       0.645   2.159  18.651  0.00  0.00    +0.000 C 
ATOM     11  C   UNL     1       2.540   3.594  17.904  0.00  0.00    +0.000 A 
ENDBRANCH   2   4
ENDBRANCH   1   2
BRANCH   1  12
ATOM     12  S   UNL     1       6.922   4.603  15.694  0.00  0.00    +0.000 S 
BRANCH  12  18
ATOM     13  C   UNL     1       8.128   9.183  17.690  0.00  0.00    +0.000 C 
ATOM     14  C   UNL     1       7.962   7.703  17.902  0.00  0.00    +0.000 A 
ATOM     15  C   UNL     1       8.198   7.154  19.142  0.00  0.00    +0.000 A 
ATOM     16  C   UNL     1       8.014   5.800  19.237  0.00  0.00    +0.000 A 
ATOM     17  N   UNL     1       7.623   5.015  18.234  0.00  0.00    +0.000 NA
ATOM     18  C   UNL     1       7.402   5.631  17.066  0.00  0.00    +0.000 A 
ATOM     19  N   UNL     1       7.574   6.950  16.846  0.00  0.00    +0.000 NA
BRANCH  16  20
ATOM     20  O   UNL     1       8.231   5.137  20.412  0.00  0.00    +0.000 OA
ATOM     21  H   UNL     1       8.572   5.769  21.062  0.00  0.00    +0.000 HD
ENDBRANCH  16  20
ENDBRANCH  12  18
ENDBRANCH   1  12
TORSDOF 5
ENDMDL
MODEL 6
REMARK VINA RESULT:      -7.1      2.865      4.571
REMARK  Name = 
REMARK  8 active torsions:
REMARK  status: ('A' for Active; 'I' for Inactive)
REMARK    1  A    between atoms: C_1  and  C_2
REMARK    2  A    between atoms: C_4  and  O_5
REMARK    3  A    between atoms: C_7  and  S_8
REMARK    4  A    between atoms: S_8  and  C_9
REMARK    5  A    between atoms: C_9  and  C_10
REMARK    6  A    between atoms: C_10  and  C_12
REMARK    7  A    between atoms: C_15  and  C_16
REMARK    8  A    between atoms: C_17  and  C_18
REMARK                            x       y       z     vdW  Elec       q    Type
REMARK                         _______ _______ _______ _____ _____    ______ ____
ROOT
ATOM      1  C   UNL     1       6.898   4.934  17.420  0.00  0.00    +0.000 C 
ENDROOT
BRANCH   1   2
ATOM      2  C   UNL     1       6.547   4.987  18.896  0.00  0.00    +0.000 C 
ATOM      3  O   UNL     1       7.345   5.319  19.776  0.00  0.00    +0.000 OA
BRANCH   2   4
ATOM      4  C   UNL     1       5.152   4.670  19.312  0.00  0.00    +0.000 A 
ATOM      5  C   UNL     1       4.693   3.361  19.452  0.00  0.00    +0.000 A 
ATOM      6  C   UNL     1       3.352   3.127  19.774  0.00  0.00    +0.000 A 
ATOM      7  C   UNL     1       2.446   4.190  19.944  0.00  0.00    +0.000 A 
ATOM      8  C   UNL     1       1.000   3.880  20.227  0.00  0.00    +0.000 C 
ATOM      9  C   UNL     1       2.908   5.513  19.812  0.00  0.00    +0.000 A 
ATOM     10  C   UNL     1       2.019   6.717  19.972  0.00  0.00    +0.000 C 
ATOM     11  C   UNL     1       4.262   5.736  19.506  0.00  0.00    +0.000 A 
ENDBRANCH   2   4
ENDBRANCH   1   2
BRANCH   1  12
ATOM     12  S   UNL     1       5.414   4.653  16.382  0.00  0.00    +0.000 S 
BRANCH  12  18
ATOM     13  C   UNL     1       5.721   2.690  11.641  0.00  0.00    +0.000 C 
ATOM     14  C   UNL     1       6.286   3.628  12.673  0.00  0.00    +0.000 A 
ATOM     15  C   UNL     1       7.393   4.390  12.376  0.00  0.00    +0.000 A 
ATOM     16  C   UNL     1       7.830   5.218  13.377  0.00  0.00    +0.000 A 
ATOM     17  N   UNL     1       7.256   5.329  14.575  0.00  0.00    +0.000 NA
ATOM     18  C   UNL     1       6.177   4.562  14.776  0.00  0.00    +0.000 A 
ATOM     19  N   UNL     1       5.672   3.693  13.877  0.00  0.00    +0.000 NA
BRANCH  16  20
ATOM     20  O   UNL     1       8.928   6.014  13.209  0.00  0.00    +0.000 OA
ATOM     21  H   UNL     1       9.575   5.535  12.671  0.00  0.00    +0.000 HD
ENDBRANCH  16  20
ENDBRANCH  12  18
ENDBRANCH   1  12
TORSDOF 5
ENDMDL
MODEL 7
REMARK VINA RESULT:      -7.0      2.200      3.220
REMARK  Name = 
REMARK  8 active torsions:
REMARK  status: ('A' for Active; 'I' for Inactive)
REMARK    1  A    between atoms: C_1  and  C_2
REMARK    2  A    between atoms: C_4  and  O_5
REMARK    3  A    between atoms: C_7  and  S_8
REMARK    4  A    between atoms: S_8  and  C_9
REMARK    5  A    between atoms: C_9  and  C_10
REMARK    6  A    between atoms: C_10  and  C_12
REMARK    7  A    between atoms: C_15  and  C_16
REMARK    8  A    between atoms: C_17  and  C_18
REMARK                            x       y       z     vdW  Elec       q    Type
REMARK                         _______ _______ _______ _____ _____    ______ ____
ROOT
ATOM      1  C   UNL     1       2.764   3.630  19.242  0.00  0.00    +0.000 C 
ENDROOT
BRANCH   1   2
ATOM      2  C   UNL     1       2.414   4.750  20.208  0.00  0.00    +0.000 C 
ATOM      3  O   UNL     1       2.360   4.604  21.431  0.00  0.00    +0.000 OA
BRANCH   2   4
ATOM      4  C   UNL     1       2.167   6.114  19.662  0.00  0.00    +0.000 A 
ATOM      5  C   UNL     1       2.503   6.469  18.356  0.00  0.00    +0.000 A 
ATOM      6  C   UNL     1       2.314   7.786  17.925  0.00  0.00    +0.000 A 
ATOM      7  C   UNL     1       1.804   8.771  18.790  0.00  0.00    +0.000 A 
ATOM      8  C   UNL     1       1.680  10.187  18.294  0.00  0.00    +0.000 C 
ATOM      9  C   UNL     1       1.455   8.414  20.106  0.00  0.00    +0.000 A 
ATOM     10  C   UNL     1       0.905   9.393  21.109  0.00  0.00    +0.000 C 
ATOM     11  C   UNL     1       1.633   7.083  20.523  0.00  0.00    +0.000 A 
ENDBRANCH   2   4
ENDBRANCH   1   2
BRANCH   1  12
ATOM     12  S   UNL     1       4.447   2.974  19.551  0.00  0.00    +0.000 S 
BRANCH  12  18
ATOM     13  C   UNL     1       5.550   5.682  15.324  0.00  0.00    +0.000 C 
ATOM     14  C   UNL     1       5.883   5.358  16.755  0.00  0.00    +0.000 A 
ATOM     15  C   UNL     1       6.938   5.989  17.376  0.00  0.00    +0.000 A 
ATOM     16  C   UNL     1       7.159   5.633  18.680  0.00  0.00    +0.000 A 
ATOM     17  N   UNL     1       6.429   4.749  19.360  0.00  0.00    +0.000 NA
ATOM     18  C   UNL     1       5.414   4.192  18.685  0.00  0.00    +0.000 A 
ATOM     19  N   UNL     1       5.117   4.445  17.395  0.00  0.00    +0.000 NA
BRANCH  16  20
ATOM     20  O   UNL     1       8.185   6.179  19.399  0.00  0.00    +0.000 OA
ATOM     21  H   UNL     1       8.983   5.653  19.242  0.00  0.00    +0.000 HD
ENDBRANCH  16  20
ENDBRANCH  12  18
ENDBRANCH   1  12
TORSDOF 5
ENDMDL
MODEL 8
REMARK VINA RESULT:      -7.0      1.290      2.115
REMARK  Name = 
REMARK  8 active torsions:
REMARK  status: ('A' for Active; 'I' for Inactive)
REMARK    1  A    between atoms: C_1  and  C_2
REMARK    2  A    between atoms: C_4  and  O_5
REMARK    3  A    between atoms: C_7  and  S_8
REMARK    4  A    between atoms: S_8  and  C_9
REMARK    5  A    between atoms: C_9  and  C_10
REMARK    6  A    between atoms: C_10  and  C_12
REMARK    7  A    between atoms: C_15  and  C_16
REMARK    8  A    between atoms: C_17  and  C_18
REMARK                            x       y       z     vdW  Elec       q    Type
REMARK                         _______ _______ _______ _____ _____    ______ ____
ROOT
ATOM      1  C   UNL     1       5.303   4.108  16.080  0.00  0.00    +0.000 C 
ENDROOT
BRANCH   1   2
ATOM      2  C   UNL     1       4.517   5.067  16.957  0.00  0.00    +0.000 C 
ATOM      3  O   UNL     1       4.313   6.248  16.665  0.00  0.00    +0.000 OA
BRANCH   2   4
ATOM      4  C   UNL     1       3.913   4.552  18.217  0.00  0.00    +0.000 A 
ATOM      5  C   UNL     1       4.112   3.245  18.663  0.00  0.00    +0.000 A 
ATOM      6  C   UNL     1       3.458   2.798  19.816  0.00  0.00    +0.000 A 
ATOM      7  C   UNL     1       2.586   3.638  20.532  0.00  0.00    +0.000 A 
ATOM      8  C   UNL     1       1.860   3.087  21.730  0.00  0.00    +0.000 C 
ATOM      9  C   UNL     1       2.390   4.960  20.091  0.00  0.00    +0.000 A 
ATOM     10  C   UNL     1       1.476   5.935  20.785  0.00  0.00    +0.000 C 
ATOM     11  C   UNL     1       3.066   5.403  18.940  0.00  0.00    +0.000 A 
ENDBRANCH   2   4
ENDBRANCH   1   2
BRANCH   1  12
ATOM     12  S   UNL     1       6.818   4.893  15.409  0.00  0.00    +0.000 S 
BRANCH  12  18
ATOM     13  C   UNL     1       8.100   9.323  17.678  0.00  0.00    +0.000 C 
ATOM     14  C   UNL     1       7.929   7.833  17.794  0.00  0.00    +0.000 A 
ATOM     15  C   UNL     1       8.192   7.201  18.989  0.00  0.00    +0.000 A 
ATOM     16  C   UNL     1       8.001   5.844  18.998  0.00  0.00    +0.000 A 
ATOM     17  N   UNL     1       7.581   5.130  17.954  0.00  0.00    +0.000 NA
ATOM     18  C   UNL     1       7.337   5.824  16.835  0.00  0.00    +0.000 A 
ATOM     19  N   UNL     1       7.512   7.154  16.700  0.00  0.00    +0.000 NA
BRANCH  16  20
ATOM     20  O   UNL     1       8.241   5.103  20.120  0.00  0.00    +0.000 OA
ATOM     21  H   UNL     1       8.054   4.174  19.920  0.00  0.00    +0.000 HD
ENDBRANCH  16  20
ENDBRANCH  12  18
ENDBRANCH   1  12
TORSDOF 5
ENDMDL
MODEL 9
REMARK VINA RESULT:      -7.0      2.890      4.387
REMARK  Name = 
REMARK  8 active torsions:
REMARK  status: ('A' for Active; 'I' for Inactive)
REMARK    1  A    between atoms: C_1  and  C_2
REMARK    2  A    between atoms: C_4  and  O_5
REMARK    3  A    between atoms: C_7  and  S_8
REMARK    4  A    between atoms: S_8  and  C_9
REMARK    5  A    between atoms: C_9  and  C_10
REMARK    6  A    between atoms: C_10  and  C_12
REMARK    7  A    between atoms: C_15  and  C_16
REMARK    8  A    between atoms: C_17  and  C_18
REMARK                            x       y       z     vdW  Elec       q    Type
REMARK                         _______ _______ _______ _____ _____    ______ ____
ROOT
ATOM      1  C   UNL     1       6.189   6.076  17.296  0.00  0.00    +0.000 C 
ENDROOT
BRANCH   1   2
ATOM      2  C   UNL     1       4.697   6.307  17.130  0.00  0.00    +0.000 C 
ATOM      3  O   UNL     1       4.220   7.251  16.497  0.00  0.00    +0.000 OA
BRANCH   2   4
ATOM      4  C   UNL     1       3.750   5.318  17.717  0.00  0.00    +0.000 A 
ATOM      5  C   UNL     1       3.234   4.250  16.984  0.00  0.00    +0.000 A 
ATOM      6  C   UNL     1       2.292   3.398  17.570  0.00  0.00    +0.000 A 
ATOM      7  C   UNL     1       1.839   3.606  18.886  0.00  0.00    +0.000 A 
ATOM      8  C   UNL     1       0.778   2.697  19.446  0.00  0.00    +0.000 C 
ATOM      9  C   UNL     1       2.365   4.677  19.632  0.00  0.00    +0.000 A 
ATOM     10  C   UNL     1       1.944   4.985  21.044  0.00  0.00    +0.000 C 
ATOM     11  C   UNL     1       3.324   5.517  19.038  0.00  0.00    +0.000 A 
ENDBRANCH   2   4
ENDBRANCH   1   2
BRANCH   1  12
ATOM     12  S   UNL     1       6.654   4.347  16.901  0.00  0.00    +0.000 S 
BRANCH  12  18
ATOM     13  C   UNL     1       5.413   2.943  12.115  0.00  0.00    +0.000 C 
ATOM     14  C   UNL     1       6.271   3.791  13.013  0.00  0.00    +0.000 A 
ATOM     15  C   UNL     1       7.206   4.643  12.470  0.00  0.00    +0.000 A 
ATOM     16  C   UNL     1       7.934   5.378  13.368  0.00  0.00    +0.000 A 
ATOM     17  N   UNL     1       7.786   5.323  14.691  0.00  0.00    +0.000 NA
ATOM     18  C   UNL     1       6.846   4.478  15.136  0.00  0.00    +0.000 A 
ATOM     19  N   UNL     1       6.088   3.687  14.350  0.00  0.00    +0.000 NA
BRANCH  16  20
ATOM     20  O   UNL     1       8.902   6.248  12.952  0.00  0.00    +0.000 OA
ATOM     21  H   UNL     1       9.205   5.973  12.074  0.00  0.00    +0.000 HD
ENDBRANCH  16  20
ENDBRANCH  12  18
ENDBRANCH   1  12
TORSDOF 5
ENDMDL
