MODEL 1
REMARK VINA RESULT:      -8.5      0.000      0.000
REMARK  Name = 
REMARK  8 active torsions:
REMARK  status: ('A' for Active; 'I' for Inactive)
REMARK    1  A    between atoms: C_1  and  C_2
REMARK    2  A    between atoms: C_4  and  C_5
REMARK    3  A    between atoms: N_7  and  CA_8
REMARK    4  A    between atoms: CA_8  and  C_9
REMARK    5  A    between atoms: C_9  and  OXT_11
REMARK    6  A    between atoms: C_12  and  O_13
REMARK    7  A    between atoms: N_17  and  C_18
REMARK    8  A    between atoms: C_18  and  C_19
REMARK                            x       y       z     vdW  Elec       q    Type
REMARK                         _______ _______ _______ _____ _____    ______ ____
ROOT
ATOM      1  C   UNK A   1       4.278   3.025  19.404  0.00  0.00    +0.000 C 
ATOM      2  C   UNK A   1       4.460   4.153  18.427  0.00  0.00    +0.000 A 
ATOM      3  N   UNK A   1       5.262   3.874  17.353  0.00  0.00    +0.000 NA
ATOM      4  C   UNK A   1       5.429   4.857  16.425  0.00  0.00    +0.000 A 
ATOM      5  C   UNK A   1       4.833   6.111  16.507  0.00  0.00    +0.000 A 
ATOM      6  C   UNK A   1       4.005   6.373  17.601  0.00  0.00    +0.000 A 
ATOM      7  C   UNK A   1       3.299   7.648  17.701  0.00  0.00    +0.000 A 
ATOM      8  C   UNK A   1       2.435   7.853  18.700  0.00  0.00    +0.000 A 
ATOM      9  N   UNK A   1       2.224   6.913  19.692  0.00  0.00    +0.000 N 
ATOM     10  C   UNK A   1       2.933   5.708  19.739  0.00  0.00    +0.000 A 
ATOM     11  O   UNK A   1       2.848   4.930  20.695  0.00  0.00    +0.000 OA
ATOM     12  C   UNK A   1       3.820   5.393  18.583  0.00  0.00    +0.000 A 
ENDROOT
BRANCH   4  13
ATOM     13  C   UNK A   1       6.282   4.534  15.240  0.00  0.00    +0.000 C 
ATOM     14  O   UNK A   1       7.508   4.662  15.304  0.00  0.00    +0.000 OA
ATOM     15  N   GLY A   2       5.646   4.107  14.105  0.00  0.00    +0.000 N 
ATOM     16  H   GLY A   2       4.628   4.022  14.107  0.00  0.00    +0.000 HD
BRANCH  15  17
ATOM     17  CA  GLY A   2       6.399   3.785  12.913  0.00  0.00    +0.000 C 
BRANCH  17  18
ATOM     18  C   GLY A   2       5.606   2.922  11.950  0.00  0.00    +0.000 C 
ATOM     19  O   GLY A   2       4.498   3.205  11.518  0.00  0.00    +0.000 OA
BRANCH  18  20
ATOM     20  OXT GLY A   2       6.250   1.779  11.604  0.00  0.00    +0.000 OA
ATOM     21  HXT GLY A   2       5.655   1.042  11.365  0.00  0.00    +0.000 HD
ENDBRANCH  18  20
ENDBRANCH  17  18
ENDBRANCH  15  17
ENDBRANCH   4  13
BRANCH   5  22
ATOM     22  O   UNK A   1       5.006   7.095  15.565  0.00  0.00    +0.000 OA
ATOM     23  H   UNK A   1       4.190   7.644  15.525  0.00  0.00    +0.000 HD
ENDBRANCH   5  22
BRANCH   9  24
ATOM     24  C   UNK A   1       1.321   7.208  20.802  0.00  0.00    +0.000 C 
BRANCH  24  25
ATOM     25  C   UNK A   1       0.889   8.654  20.921  0.00  0.00    +0.000 A 
ATOM     26  C   UNK A   1       0.491   9.377  19.784  0.00  0.00    +0.000 A 
ATOM     27  C   UNK A   1      -0.139  10.617  19.917  0.00  0.00    +0.000 A 
ATOM     28  C   UNK A   1      -0.348  11.159  21.184  0.00  0.00    +0.000 A 
ATOM     29  C   UNK A   1       0.108  10.484  22.314  0.00  0.00    +0.000 A 
ATOM     30  C   UNK A   1       0.733   9.243  22.184  0.00  0.00    +0.000 A 
ENDBRANCH  24  25
ENDBRANCH   9  24
TORSDOF 7
ENDMDL
MODEL 2
REMARK VINA RESULT:      -8.4      2.065      3.182
REMARK  Name = 
REMARK  8 active torsions:
REMARK  status: ('A' for Active; 'I' for Inactive)
REMARK    1  A    between atoms: C_1  and  C_2
REMARK    2  A    between atoms: C_4  and  C_5
REMARK    3  A    between atoms: N_7  and  CA_8
REMARK    4  A    between atoms: CA_8  and  C_9
REMARK    5  A    between atoms: C_9  and  OXT_11
REMARK    6  A    between atoms: C_12  and  O_13
REMARK    7  A    between atoms: N_17  and  C_18
REMARK    8  A    between atoms: C_18  and  C_19
REMARK                            x       y       z     vdW  Elec       q    Type
REMARK                         _______ _______ _______ _____ _____    ______ ____
ROOT
ATOM      1  C   UNK A   1       1.841   5.309  20.941  0.00  0.00    +0.000 C 
ATOM      2  C   UNK A   1       2.539   5.922  19.758  0.00  0.00    +0.000 A 
ATOM      3  N   UNK A   1       3.406   5.093  19.096  0.00  0.00    +0.000 NA
ATOM      4  C   UNK A   1       4.036   5.596  17.998  0.00  0.00    +0.000 A 
ATOM      5  C   UNK A   1       3.845   6.888  17.517  0.00  0.00    +0.000 A 
ATOM      6  C   UNK A   1       2.945   7.714  18.195  0.00  0.00    +0.000 A 
ATOM      7  C   UNK A   1       2.654   9.054  17.694  0.00  0.00    +0.000 A 
ATOM      8  C   UNK A   1       1.722   9.801  18.293  0.00  0.00    +0.000 A 
ATOM      9  N   UNK A   1       1.052   9.370  19.423  0.00  0.00    +0.000 N 
ATOM     10  C   UNK A   1       1.338   8.146  20.038  0.00  0.00    +0.000 A 
ATOM     11  O   UNK A   1       0.842   7.821  21.121  0.00  0.00    +0.000 OA
ATOM     12  C   UNK A   1       2.289   7.237  19.336  0.00  0.00    +0.000 A 
ENDROOT
BRANCH   4  13
ATOM     13  C   UNK A   1       4.958   4.677  17.263  0.00  0.00    +0.000 C 
ATOM     14  O   UNK A   1       4.580   3.548  16.938  0.00  0.00    +0.000 OA
ATOM     15  N   GLY A   2       6.217   5.139  16.986  0.00  0.00    +0.000 N 
ATOM     16  H   GLY A   2       6.478   6.081  17.282  0.00  0.00    +0.000 HD
BRANCH  15  17
ATOM     17  CA  GLY A   2       7.172   4.306  16.288  0.00  0.00    +0.000 C 
BRANCH  17  18
ATOM     18  C   GLY A   2       7.080   4.467  14.783  0.00  0.00    +0.000 C 
ATOM     19  O   GLY A   2       7.629   5.354  14.146  0.00  0.00    +0.000 OA
BRANCH  18  20
ATOM     20  OXT GLY A   2       6.313   3.516  14.191  0.00  0.00    +0.000 OA
ATOM     21  HXT GLY A   2       6.420   2.623  14.572  0.00  0.00    +0.000 HD
ENDBRANCH  18  20
ENDBRANCH  17  18
ENDBRANCH  15  17
ENDBRANCH   4  13
BRANCH   5  22
ATOM     22  O   UNK A   1       4.484   7.386  16.409  0.00  0.00    +0.000 OA
ATOM     23  H   UNK A   1       5.397   7.019  16.376  0.00  0.00    +0.000 HD
ENDBRANCH   5  22
BRANCH   9  24
ATOM     24  C   UNK A   1       0.089  10.248  20.084  0.00  0.00    +0.000 C 
BRANCH  24  25
ATOM     25  C   UNK A   1      -1.111  10.642  19.249  0.00  0.00    +0.000 A 
ATOM     26  C   UNK A   1      -1.537   9.831  18.183  0.00  0.00    +0.000 A 
ATOM     27  C   UNK A   1      -2.774  10.054  17.574  0.00  0.00    +0.000 A 
ATOM     28  C   UNK A   1      -3.582  11.105  18.003  0.00  0.00    +0.000 A 
ATOM     29  C   UNK A   1      -3.138  11.959  19.010  0.00  0.00    +0.000 A 
ATOM     30  C   UNK A   1      -1.904  11.736  19.623  0.00  0.00    +0.000 A 
ENDBRANCH  24  25
ENDBRANCH   9  24
TORSDOF 7
ENDMDL
MODEL 3
REMARK VINA RESULT:      -8.3      2.592      8.869
REMARK  Name = 
REMARK  8 active torsions:
REMARK  status: ('A' for Active; 'I' for Inactive)
REMARK    1  A    between atoms: C_1  and  C_2
REMARK    2  A    between atoms: C_4  and  C_5
REMARK    3  A    between atoms: N_7  and  CA_8
REMARK    4  A    between atoms: CA_8  and  C_9
REMARK    5  A    between atoms: C_9  and  OXT_11
REMARK    6  A    between atoms: C_12  and  O_13
REMARK    7  A    between atoms: N_17  and  C_18
REMARK    8  A    between atoms: C_18  and  C_19
REMARK                            x       y       z     vdW  Elec       q    Type
REMARK                         _______ _______ _______ _____ _____    ______ ____
ROOT
ATOM      1  C   UNK A   1       2.848   4.394  20.358  0.00  0.00    +0.000 C 
ATOM      2  C   UNK A   1       2.764   5.678  19.579  0.00  0.00    +0.000 A 
ATOM      3  N   UNK A   1       1.958   6.642  20.124  0.00  0.00    +0.000 NA
ATOM      4  C   UNK A   1       1.877   7.833  19.468  0.00  0.00    +0.000 A 
ATOM      5  C   UNK A   1       2.564   8.120  18.293  0.00  0.00    +0.000 A 
ATOM      6  C   UNK A   1       3.394   7.131  17.760  0.00  0.00    +0.000 A 
ATOM      7  C   UNK A   1       4.192   7.403  16.567  0.00  0.00    +0.000 A 
ATOM      8  C   UNK A   1       5.054   6.485  16.120  0.00  0.00    +0.000 A 
ATOM      9  N   UNK A   1       5.180   5.245  16.718  0.00  0.00    +0.000 N 
ATOM     10  C   UNK A   1       4.384   4.854  17.799  0.00  0.00    +0.000 A 
ATOM     11  O   UNK A   1       4.397   3.703  18.246  0.00  0.00    +0.000 OA
ATOM     12  C   UNK A   1       3.492   5.889  18.398  0.00  0.00    +0.000 A 
ENDROOT
BRANCH   4  13
ATOM     13  C   UNK A   1       1.019   8.890  20.085  0.00  0.00    +0.000 C 
ATOM     14  O   UNK A   1       1.112  10.063  19.711  0.00  0.00    +0.000 OA
ATOM     15  N   GLY A   2       0.152   8.500  21.071  0.00  0.00    +0.000 N 
ATOM     16  H   GLY A   2       0.119   7.516  21.343  0.00  0.00    +0.000 HD
BRANCH  15  17
ATOM     17  CA  GLY A   2      -0.705   9.465  21.725  0.00  0.00    +0.000 C 
BRANCH  17  18
ATOM     18  C   GLY A   2      -0.038  10.096  22.933  0.00  0.00    +0.000 C 
ATOM     19  O   GLY A   2       0.818   9.551  23.615  0.00  0.00    +0.000 OA
BRANCH  18  20
ATOM     20  OXT GLY A   2      -0.487  11.348  23.197  0.00  0.00    +0.000 OA
ATOM     21  HXT GLY A   2      -1.113  11.399  23.945  0.00  0.00    +0.000 HD
ENDBRANCH  18  20
ENDBRANCH  17  18
ENDBRANCH  15  17
ENDBRANCH   4  13
BRANCH   5  22
ATOM     22  O   UNK A   1       2.477   9.325  17.640  0.00  0.00    +0.000 OA
ATOM     23  H   UNK A   1       1.568   9.684  17.754  0.00  0.00    +0.000 HD
ENDBRANCH   5  22
BRANCH   9  24
ATOM     24  C   UNK A   1       6.088   4.248  16.153  0.00  0.00    +0.000 C 
BRANCH  24  25
ATOM     25  C   UNK A   1       6.343   4.370  14.666  0.00  0.00    +0.000 A 
ATOM     26  C   UNK A   1       7.435   5.113  14.187  0.00  0.00    +0.000 A 
ATOM     27  C   UNK A   1       7.818   5.025  12.847  0.00  0.00    +0.000 A 
ATOM     28  C   UNK A   1       7.097   4.220  11.968  0.00  0.00    +0.000 A 
ATOM     29  C   UNK A   1       5.969   3.535  12.416  0.00  0.00    +0.000 A 
ATOM     30  C   UNK A   1       5.587   3.618  13.756  0.00  0.00    +0.000 A 
ENDBRANCH  24  25
ENDBRANCH   9  24
TORSDOF 7
ENDMDL
MODEL 4
REMARK VINA RESULT:      -8.2      2.092      3.214
REMARK  Name = 
REMARK  8 active torsions:
REMARK  status: ('A' for Active; 'I' for Inactive)
REMARK    1  A    between atoms: C_1  and  C_2
REMARK    2  A    between atoms: C_4  and  C_5
REMARK    3  A    between atoms: N_7  and  CA_8
REMARK    4  A    between atoms: CA_8  and  C_9
REMARK    5  A    between atoms: C_9  and  OXT_11
REMARK    6  A    between atoms: C_12  and  O_13
REMARK    7  A    between atoms: N_17  and  C_18
REMARK    8  A    between atoms: C_18  and  C_19
REMARK                            x       y       z     vdW  Elec       q    Type
REMARK                         _______ _______ _______ _____ _____    ______ ____
ROOT
ATOM      1  C   UNK A   1       1.935   5.371  21.011  0.00  0.00    +0.000 C 
ATOM      2  C   UNK A   1       2.653   5.937  19.817  0.00  0.00    +0.000 A 
ATOM      3  N   UNK A   1       3.562   5.099  19.229  0.00  0.00    +0.000 NA
ATOM      4  C   UNK A   1       4.213   5.559  18.124  0.00  0.00    +0.000 A 
ATOM      5  C   UNK A   1       4.002   6.816  17.566  0.00  0.00    +0.000 A 
ATOM      6  C   UNK A   1       3.059   7.651  18.169  0.00  0.00    +0.000 A 
ATOM      7  C   UNK A   1       2.747   8.953  17.585  0.00  0.00    +0.000 A 
ATOM      8  C   UNK A   1       1.777   9.704  18.113  0.00  0.00    +0.000 A 
ATOM      9  N   UNK A   1       1.083   9.317  19.245  0.00  0.00    +0.000 N 
ATOM     10  C   UNK A   1       1.383   8.138  19.936  0.00  0.00    +0.000 A 
ATOM     11  O   UNK A   1       0.863   7.859  21.020  0.00  0.00    +0.000 OA
ATOM     12  C   UNK A   1       2.381   7.219  19.315  0.00  0.00    +0.000 A 
ENDROOT
BRANCH   4  13
ATOM     13  C   UNK A   1       5.182   4.627  17.470  0.00  0.00    +0.000 C 
ATOM     14  O   UNK A   1       6.058   4.072  18.140  0.00  0.00    +0.000 OA
ATOM     15  N   GLY A   2       5.055   4.434  16.120  0.00  0.00    +0.000 N 
ATOM     16  H   GLY A   2       4.314   4.922  15.615  0.00  0.00    +0.000 HD
BRANCH  15  17
ATOM     17  CA  GLY A   2       5.962   3.557  15.412  0.00  0.00    +0.000 C 
BRANCH  17  18
ATOM     18  C   GLY A   2       6.714   4.279  14.310  0.00  0.00    +0.000 C 
ATOM     19  O   GLY A   2       6.615   4.020  13.119  0.00  0.00    +0.000 OA
BRANCH  18  20
ATOM     20  OXT GLY A   2       7.527   5.261  14.774  0.00  0.00    +0.000 OA
ATOM     21  HXT GLY A   2       7.287   5.592  15.662  0.00  0.00    +0.000 HD
ENDBRANCH  18  20
ENDBRANCH  17  18
ENDBRANCH  15  17
ENDBRANCH   4  13
BRANCH   5  22
ATOM     22  O   UNK A   1       4.661   7.270  16.451  0.00  0.00    +0.000 OA
ATOM     23  H   UNK A   1       5.132   8.104  16.677  0.00  0.00    +0.000 HD
ENDBRANCH   5  22
BRANCH   9  24
ATOM     24  C   UNK A   1       0.076  10.202  19.826  0.00  0.00    +0.000 C 
BRANCH  24  25
ATOM     25  C   UNK A   1      -1.154  10.434  18.975  0.00  0.00    +0.000 A 
ATOM     26  C   UNK A   1      -2.072  11.444  19.308  0.00  0.00    +0.000 A 
ATOM     27  C   UNK A   1      -3.065  11.825  18.402  0.00  0.00    +0.000 A 
ATOM     28  C   UNK A   1      -3.167  11.182  17.170  0.00  0.00    +0.000 A 
ATOM     29  C   UNK A   1      -2.307  10.131  16.859  0.00  0.00    +0.000 A 
ATOM     30  C   UNK A   1      -1.312   9.751  17.761  0.00  0.00    +0.000 A 
ENDBRANCH  24  25
ENDBRANCH   9  24
TORSDOF 7
ENDMDL
MODEL 5
REMARK VINA RESULT:      -8.2      5.030     10.644
REMARK  Name = 
REMARK  8 active torsions:
REMARK  status: ('A' for Active; 'I' for Inactive)
REMARK    1  A    between atoms: C_1  and  C_2
REMARK    2  A    between atoms: C_4  and  C_5
REMARK    3  A    between atoms: N_7  and  CA_8
REMARK    4  A    between atoms: CA_8  and  C_9
REMARK    5  A    between atoms: C_9  and  OXT_11
REMARK    6  A    between atoms: C_12  and  O_13
REMARK    7  A    between atoms: N_17  and  C_18
REMARK    8  A    between atoms: C_18  and  C_19
REMARK                            x       y       z     vdW  Elec       q    Type
REMARK                         _______ _______ _______ _____ _____    ______ ____
ROOT
ATOM      1  C   UNK A   1      -0.837  10.560  17.700  0.00  0.00    +0.000 C 
ATOM      2  C   UNK A   1      -0.717  10.686  19.194  0.00  0.00    +0.000 A 
ATOM      3  N   UNK A   1      -1.553  11.604  19.773  0.00  0.00    +0.000 NA
ATOM      4  C   UNK A   1      -1.502  11.728  21.128  0.00  0.00    +0.000 A 
ATOM      5  C   UNK A   1      -0.661  10.979  21.945  0.00  0.00    +0.000 A 
ATOM      6  C   UNK A   1       0.173  10.036  21.340  0.00  0.00    +0.000 A 
ATOM      7  C   UNK A   1       1.025   9.175  22.155  0.00  0.00    +0.000 A 
ATOM      8  C   UNK A   1       1.747   8.212  21.574  0.00  0.00    +0.000 A 
ATOM      9  N   UNK A   1       1.764   8.033  20.203  0.00  0.00    +0.000 N 
ATOM     10  C   UNK A   1       1.065   8.876  19.333  0.00  0.00    +0.000 A 
ATOM     11  O   UNK A   1       1.187   8.806  18.106  0.00  0.00    +0.000 OA
ATOM     12  C   UNK A   1       0.159   9.890  19.947  0.00  0.00    +0.000 A 
ENDROOT
BRANCH   4  13
ATOM     13  C   UNK A   1      -2.438  12.711  21.755  0.00  0.00    +0.000 C 
ATOM     14  O   UNK A   1      -2.301  13.920  21.546  0.00  0.00    +0.000 OA
ATOM     15  N   GLY A   2      -3.425  12.212  22.562  0.00  0.00    +0.000 N 
ATOM     16  H   GLY A   2      -3.490  11.203  22.703  0.00  0.00    +0.000 HD
BRANCH  15  17
ATOM     17  CA  GLY A   2      -4.364  13.098  23.215  0.00  0.00    +0.000 C 
BRANCH  17  18
ATOM     18  C   GLY A   2      -3.989  13.365  24.660  0.00  0.00    +0.000 C 
ATOM     19  O   GLY A   2      -3.287  14.293  25.034  0.00  0.00    +0.000 OA
BRANCH  18  20
ATOM     20  OXT GLY A   2      -4.515  12.459  25.523  0.00  0.00    +0.000 OA
ATOM     21  HXT GLY A   2      -3.972  11.655  25.638  0.00  0.00    +0.000 HD
ENDBRANCH  18  20
ENDBRANCH  17  18
ENDBRANCH  15  17
ENDBRANCH   4  13
BRANCH   5  22
ATOM     22  O   UNK A   1      -0.617  11.111  23.311  0.00  0.00    +0.000 OA
ATOM     23  H   UNK A   1      -0.354  10.249  23.706  0.00  0.00    +0.000 HD
ENDBRANCH   5  22
BRANCH   9  24
ATOM     24  C   UNK A   1       2.621   7.011  19.608  0.00  0.00    +0.000 C 
BRANCH  24  25
ATOM     25  C   UNK A   1       1.964   5.667  19.375  0.00  0.00    +0.000 A 
ATOM     26  C   UNK A   1       1.978   5.076  18.101  0.00  0.00    +0.000 A 
ATOM     27  C   UNK A   1       1.598   3.742  17.934  0.00  0.00    +0.000 A 
ATOM     28  C   UNK A   1       1.173   2.997  19.032  0.00  0.00    +0.000 A 
ATOM     29  C   UNK A   1       1.087   3.593  20.288  0.00  0.00    +0.000 A 
ATOM     30  C   UNK A   1       1.470   4.926  20.458  0.00  0.00    +0.000 A 
ENDBRANCH  24  25
ENDBRANCH   9  24
TORSDOF 7
ENDMDL
MODEL 6
REMARK VINA RESULT:      -8.2      2.746      8.500
REMARK  Name = 
REMARK  8 active torsions:
REMARK  status: ('A' for Active; 'I' for Inactive)
REMARK    1  A    between atoms: C_1  and  C_2
REMARK    2  A    between atoms: C_4  and  C_5
REMARK    3  A    between atoms: N_7  and  CA_8
REMARK    4  A    between atoms: CA_8  and  C_9
REMARK    5  A    between atoms: C_9  and  OXT_11
REMARK    6  A    between atoms: C_12  and  O_13
REMARK    7  A    between atoms: N_17  and  C_18
REMARK    8  A    between atoms: C_18  and  C_19
REMARK                            x       y       z     vdW  Elec       q    Type
REMARK                         _______ _______ _______ _____ _____    ______ ____
ROOT
ATOM      1  C   UNK A   1       2.841   3.925  20.259  0.00  0.00    +0.000 C 
ATOM      2  C   UNK A   1       2.819   5.272  19.589  0.00  0.00    +0.000 A 
ATOM      3  N   UNK A   1       2.073   6.229  20.223  0.00  0.00    +0.000 NA
ATOM      4  C   UNK A   1       2.052   7.473  19.670  0.00  0.00    +0.000 A 
ATOM      5  C   UNK A   1       2.742   7.820  18.513  0.00  0.00    +0.000 A 
ATOM      6  C   UNK A   1       3.512   6.835  17.888  0.00  0.00    +0.000 A 
ATOM      7  C   UNK A   1       4.312   7.162  16.711  0.00  0.00    +0.000 A 
ATOM      8  C   UNK A   1       5.118   6.240  16.177  0.00  0.00    +0.000 A 
ATOM      9  N   UNK A   1       5.182   4.949  16.669  0.00  0.00    +0.000 N 
ATOM     10  C   UNK A   1       4.376   4.513  17.725  0.00  0.00    +0.000 A 
ATOM     11  O   UNK A   1       4.330   3.330  18.075  0.00  0.00    +0.000 OA
ATOM     12  C   UNK A   1       3.547   5.541  18.420  0.00  0.00    +0.000 A 
ENDROOT
BRANCH   4  13
ATOM     13  C   UNK A   1       1.258   8.520  20.384  0.00  0.00    +0.000 C 
ATOM     14  O   UNK A   1       1.168   8.499  21.614  0.00  0.00    +0.000 OA
ATOM     15  N   GLY A   2       0.645   9.475  19.617  0.00  0.00    +0.000 N 
ATOM     16  H   GLY A   2       0.751   9.442  18.602  0.00  0.00    +0.000 HD
BRANCH  15  17
ATOM     17  CA  GLY A   2      -0.150  10.516  20.232  0.00  0.00    +0.000 C 
BRANCH  17  18
ATOM     18  C   GLY A   2      -0.981  11.276  19.215  0.00  0.00    +0.000 C 
ATOM     19  O   GLY A   2      -1.870  12.066  19.500  0.00  0.00    +0.000 OA
BRANCH  18  20
ATOM     20  OXT GLY A   2      -0.644  10.995  17.932  0.00  0.00    +0.000 OA
ATOM     21  HXT GLY A   2      -0.598  11.778  17.350  0.00  0.00    +0.000 HD
ENDBRANCH  18  20
ENDBRANCH  17  18
ENDBRANCH  15  17
ENDBRANCH   4  13
BRANCH   5  22
ATOM     22  O   UNK A   1       2.716   9.077  17.963  0.00  0.00    +0.000 OA
ATOM     23  H   UNK A   1       3.550   9.223  17.461  0.00  0.00    +0.000 HD
ENDBRANCH   5  22
BRANCH   9  24
ATOM     24  C   UNK A   1       6.028   3.955  16.012  0.00  0.00    +0.000 C 
BRANCH  24  25
ATOM     25  C   UNK A   1       6.339   4.227  14.555  0.00  0.00    +0.000 A 
ATOM     26  C   UNK A   1       7.417   5.053  14.197  0.00  0.00    +0.000 A 
ATOM     27  C   UNK A   1       7.858   5.107  12.872  0.00  0.00    +0.000 A 
ATOM     28  C   UNK A   1       7.207   4.363  11.891  0.00  0.00    +0.000 A 
ATOM     29  C   UNK A   1       6.092   3.597  12.222  0.00  0.00    +0.000 A 
ATOM     30  C   UNK A   1       5.652   3.537  13.546  0.00  0.00    +0.000 A 
ENDBRANCH  24  25
ENDBRANCH   9  24
TORSDOF 7
ENDMDL
MODEL 7
REMARK VINA RESULT:      -8.1      5.072      9.512
REMARK  Name = 
REMARK  8 active torsions:
REMARK  status: ('A' for Active; 'I' for Inactive)
REMARK    1  A    between atoms: C_1  and  C_2
REMARK    2  A    between atoms: C_4  and  C_5
REMARK    3  A    between atoms: N_7  and  CA_8
REMARK    4  A    between atoms: CA_8  and  C_9
REMARK    5  A    between atoms: C_9  and  OXT_11
REMARK    6  A    between atoms: C_12  and  O_13
REMARK    7  A    between atoms: N_17  and  C_18
REMARK    8  A    between atoms: C_18  and  C_19
REMARK                            x       y       z     vdW  Elec       q    Type
REMARK                         _______ _______ _______ _____ _____    ______ ____
ROOT
ATOM      1  C   UNK A   1      -0.018   9.409  22.924  0.00  0.00    +0.000 C 
ATOM      2  C   UNK A   1      -0.002  10.046  21.561  0.00  0.00    +0.000 A 
ATOM      3  N   UNK A   1      -0.645  11.251  21.471  0.00  0.00    +0.000 NA
ATOM      4  C   UNK A   1      -0.628  11.880  20.263  0.00  0.00    +0.000 A 
ATOM      5  C   UNK A   1       0.004  11.372  19.133  0.00  0.00    +0.000 A 
ATOM      6  C   UNK A   1       0.669  10.149  19.247  0.00  0.00    +0.000 A 
ATOM      7  C   UNK A   1       1.408   9.604  18.111  0.00  0.00    +0.000 A 
ATOM      8  C   UNK A   1       2.119   8.482  18.257  0.00  0.00    +0.000 A 
ATOM      9  N   UNK A   1       2.138   7.775  19.445  0.00  0.00    +0.000 N 
ATOM     10  C   UNK A   1       1.378   8.161  20.554  0.00  0.00    +0.000 A 
ATOM     11  O   UNK A   1       1.284   7.459  21.566  0.00  0.00    +0.000 OA
ATOM     12  C   UNK A   1       0.661   9.466  20.469  0.00  0.00    +0.000 A 
ENDROOT
BRANCH   4  13
ATOM     13  C   UNK A   1      -1.307  13.210  20.181  0.00  0.00    +0.000 C 
ATOM     14  O   UNK A   1      -2.539  13.277  20.156  0.00  0.00    +0.000 OA
ATOM     15  N   GLY A   2      -0.509  14.321  20.126  0.00  0.00    +0.000 N 
ATOM     16  H   GLY A   2       0.506  14.206  20.147  0.00  0.00    +0.000 HD
BRANCH  15  17
ATOM     17  CA  GLY A   2      -1.089  15.643  20.034  0.00  0.00    +0.000 C 
BRANCH  17  18
ATOM     18  C   GLY A   2      -0.521  16.437  18.873  0.00  0.00    +0.000 C 
ATOM     19  O   GLY A   2       0.622  16.327  18.452  0.00  0.00    +0.000 OA
BRANCH  18  20
ATOM     20  OXT GLY A   2      -1.414  17.303  18.330  0.00  0.00    +0.000 OA
ATOM     21  HXT GLY A   2      -1.900  16.945  17.562  0.00  0.00    +0.000 HD
ENDBRANCH  18  20
ENDBRANCH  17  18
ENDBRANCH  15  17
ENDBRANCH   4  13
BRANCH   5  22
ATOM     22  O   UNK A   1       0.017  12.015  17.919  0.00  0.00    +0.000 OA
ATOM     23  H   UNK A   1      -0.008  11.341  17.202  0.00  0.00    +0.000 HD
ENDBRANCH   5  22
BRANCH   9  24
ATOM     24  C   UNK A   1       2.877   6.517  19.538  0.00  0.00    +0.000 C 
BRANCH  24  25
ATOM     25  C   UNK A   1       2.083   5.271  19.206  0.00  0.00    +0.000 A 
ATOM     26  C   UNK A   1       2.043   4.780  17.891  0.00  0.00    +0.000 A 
ATOM     27  C   UNK A   1       1.527   3.509  17.625  0.00  0.00    +0.000 A 
ATOM     28  C   UNK A   1       1.019   2.733  18.665  0.00  0.00    +0.000 A 
ATOM     29  C   UNK A   1       0.988   3.239  19.962  0.00  0.00    +0.000 A 
ATOM     30  C   UNK A   1       1.507   4.507  20.231  0.00  0.00    +0.000 A 
ENDBRANCH  24  25
ENDBRANCH   9  24
TORSDOF 7
ENDMDL
MODEL 8
REMARK VINA RESULT:      -8.1      4.959     10.699
REMARK  Name = 
REMARK  8 active torsions:
REMARK  status: ('A' for Active; 'I' for Inactive)
REMARK    1  A    between atoms: C_1  and  C_2
REMARK    2  A    between atoms: C_4  and  C_5
REMARK    3  A    between atoms: N_7  and  CA_8
REMARK    4  A    between atoms: CA_8  and  C_9
REMARK    5  A    between atoms: C_9  and  OXT_11
REMARK    6  A    between atoms: C_12  and  O_13
REMARK    7  A    between atoms: N_17  and  C_18
REMARK    8  A    between atoms: C_18  and  C_19
REMARK                            x       y       z     vdW  Elec       q    Type
REMARK                         _______ _______ _______ _____ _____    ______ ____
ROOT
ATOM      1  C   UNK A   1       0.286  12.439  18.608  0.00  0.00    +0.000 C 
ATOM      2  C   UNK A   1       0.088  11.695  19.900  0.00  0.00    +0.000 A 
ATOM      3  N   UNK A   1      -0.675  12.340  20.836  0.00  0.00    +0.000 NA
ATOM      4  C   UNK A   1      -0.908  11.689  22.010  0.00  0.00    +0.000 A 
ATOM      5  C   UNK A   1      -0.422  10.419  22.302  0.00  0.00    +0.000 A 
ATOM      6  C   UNK A   1       0.342   9.768  21.330  0.00  0.00    +0.000 A 
ATOM      7  C   UNK A   1       0.818   8.407  21.556  0.00  0.00    +0.000 A 
ATOM      8  C   UNK A   1       1.465   7.758  20.583  0.00  0.00    +0.000 A 
ATOM      9  N   UNK A   1       1.757   8.355  19.371  0.00  0.00    +0.000 N 
ATOM     10  C   UNK A   1       1.435   9.690  19.101  0.00  0.00    +0.000 A 
ATOM     11  O   UNK A   1       1.815  10.266  18.078  0.00  0.00    +0.000 OA
ATOM     12  C   UNK A   1       0.614  10.411  20.116  0.00  0.00    +0.000 A 
ENDROOT
BRANCH   4  13
ATOM     13  C   UNK A   1      -1.767  12.388  23.015  0.00  0.00    +0.000 C 
ATOM     14  O   UNK A   1      -1.408  13.466  23.496  0.00  0.00    +0.000 OA
ATOM     15  N   GLY A   2      -2.940  11.778  23.370  0.00  0.00    +0.000 N 
ATOM     16  H   GLY A   2      -3.186  10.884  22.943  0.00  0.00    +0.000 HD
BRANCH  15  17
ATOM     17  CA  GLY A   2      -3.821  12.384  24.345  0.00  0.00    +0.000 C 
BRANCH  17  18
ATOM     18  C   GLY A   2      -5.055  12.988  23.703  0.00  0.00    +0.000 C 
ATOM     19  O   GLY A   2      -5.749  12.424  22.869  0.00  0.00    +0.000 OA
BRANCH  18  20
ATOM     20  OXT GLY A   2      -5.328  14.242  24.145  0.00  0.00    +0.000 OA
ATOM     21  HXT GLY A   2      -4.611  14.886  23.985  0.00  0.00    +0.000 HD
ENDBRANCH  18  20
ENDBRANCH  17  18
ENDBRANCH  15  17
ENDBRANCH   4  13
BRANCH   5  22
ATOM     22  O   UNK A   1      -0.663   9.770  23.488  0.00  0.00    +0.000 OA
ATOM     23  H   UNK A   1      -0.500  10.394  24.231  0.00  0.00    +0.000 HD
ENDBRANCH   5  22
BRANCH   9  24
ATOM     24  C   UNK A   1       2.526   7.630  18.362  0.00  0.00    +0.000 C 
BRANCH  24  25
ATOM     25  C   UNK A   1       2.672   6.142  18.602  0.00  0.00    +0.000 A 
ATOM     26  C   UNK A   1       1.797   5.231  17.987  0.00  0.00    +0.000 A 
ATOM     27  C   UNK A   1       2.076   3.862  18.003  0.00  0.00    +0.000 A 
ATOM     28  C   UNK A   1       3.211   3.390  18.658  0.00  0.00    +0.000 A 
ATOM     29  C   UNK A   1       4.046   4.277  19.332  0.00  0.00    +0.000 A 
ATOM     30  C   UNK A   1       3.773   5.647  19.314  0.00  0.00    +0.000 A 
ENDBRANCH  24  25
ENDBRANCH   9  24
TORSDOF 7
ENDMDL
MODEL 9
REMARK VINA RESULT:      -8.1      5.004      9.831
REMARK  Name = 
REMARK  8 active torsions:
REMARK  status: ('A' for Active; 'I' for Inactive)
REMARK    1  A    between atoms: C_1  and  C_2
REMARK    2  A    between atoms: C_4  and  C_5
REMARK    3  A    between atoms: N_7  and  CA_8
REMARK    4  A    between atoms: CA_8  and  C_9
REMARK    5  A    between atoms: C_9  and  OXT_11
REMARK    6  A    between atoms: C_12  and  O_13
REMARK    7  A    between atoms: N_17  and  C_18
REMARK    8  A    between atoms: C_18  and  C_19
REMARK                            x       y       z     vdW  Elec       q    Type
REMARK                         _______ _______ _______ _____ _____    ______ ____
ROOT
ATOM      1  C   UNK A   1       0.157   9.414  22.993  0.00  0.00    +0.000 C 
ATOM      2  C   UNK A   1       0.011   9.998  21.614  0.00  0.00    +0.000 A 
ATOM      3  N   UNK A   1      -0.710  11.160  21.545  0.00  0.00    +0.000 NA
ATOM      4  C   UNK A   1      -0.840  11.742  20.320  0.00  0.00    +0.000 A 
ATOM      5  C   UNK A   1      -0.283  11.228  19.153  0.00  0.00    +0.000 A 
ATOM      6  C   UNK A   1       0.463  10.051  19.245  0.00  0.00    +0.000 A 
ATOM      7  C   UNK A   1       1.128   9.506  18.065  0.00  0.00    +0.000 A 
ATOM      8  C   UNK A   1       1.917   8.434  18.182  0.00  0.00    +0.000 A 
ATOM      9  N   UNK A   1       2.086   7.774  19.386  0.00  0.00    +0.000 N 
ATOM     10  C   UNK A   1       1.407   8.159  20.547  0.00  0.00    +0.000 A 
ATOM     11  O   UNK A   1       1.448   7.492  21.586  0.00  0.00    +0.000 OA
ATOM     12  C   UNK A   1       0.607   9.416  20.485  0.00  0.00    +0.000 A 
ENDROOT
BRANCH   4  13
ATOM     13  C   UNK A   1      -1.604  13.026  20.256  0.00  0.00    +0.000 C 
ATOM     14  O   UNK A   1      -1.108  14.018  19.715  0.00  0.00    +0.000 OA
ATOM     15  N   GLY A   2      -2.850  13.044  20.824  0.00  0.00    +0.000 N 
ATOM     16  H   GLY A   2      -3.210  12.195  21.262  0.00  0.00    +0.000 HD
BRANCH  15  17
ATOM     17  CA  GLY A   2      -3.648  14.251  20.814  0.00  0.00    +0.000 C 
BRANCH  17  18
ATOM     18  C   GLY A   2      -5.096  13.977  20.452  0.00  0.00    +0.000 C 
ATOM     19  O   GLY A   2      -5.805  13.154  21.013  0.00  0.00    +0.000 OA
BRANCH  18  20
ATOM     20  OXT GLY A   2      -5.543  14.743  19.426  0.00  0.00    +0.000 OA
ATOM     21  HXT GLY A   2      -6.179  14.291  18.838  0.00  0.00    +0.000 HD
ENDBRANCH  18  20
ENDBRANCH  17  18
ENDBRANCH  15  17
ENDBRANCH   4  13
BRANCH   5  22
ATOM     22  O   UNK A   1      -0.419  11.823  17.923  0.00  0.00    +0.000 OA
ATOM     23  H   UNK A   1      -1.243  12.361  17.919  0.00  0.00    +0.000 HD
ENDBRANCH   5  22
BRANCH   9  24
ATOM     24  C   UNK A   1       2.905   6.566  19.452  0.00  0.00    +0.000 C 
BRANCH  24  25
ATOM     25  C   UNK A   1       2.193   5.278  19.100  0.00  0.00    +0.000 A 
ATOM     26  C   UNK A   1       2.336   4.708  17.824  0.00  0.00    +0.000 A 
ATOM     27  C   UNK A   1       1.890   3.408  17.574  0.00  0.00    +0.000 A 
ATOM     28  C   UNK A   1       1.271   2.678  18.587  0.00  0.00    +0.000 A 
ATOM     29  C   UNK A   1       1.059   3.259  19.835  0.00  0.00    +0.000 A 
ATOM     30  C   UNK A   1       1.508   4.557  20.088  0.00  0.00    +0.000 A 
ENDBRANCH  24  25
ENDBRANCH   9  24
TORSDOF 7
ENDMDL
