MODEL 1
REMARK VINA RESULT:      -6.8      0.000      0.000
REMARK  Name = 
REMARK  7 active torsions:
REMARK  status: ('A' for Active; 'I' for Inactive)
REMARK    1  A    between atoms: C_1  and  N_2
REMARK    2  A    between atoms: N_11  and  C_12
REMARK    3  A    between atoms: C_12  and  C_13
REMARK    4  A    between atoms: C_13  and  C_14
REMARK    5  A    between atoms: C_13  and  C_15
REMARK    6  A    between atoms: C_13  and  C_16
REMARK    7  A    between atoms: C_16  and  N_17
REMARK                            x       y       z     vdW  Elec       q    Type
REMARK                         _______ _______ _______ _____ _____    ______ ____
ROOT
ATOM      1  C   UNL     1      -5.855  12.812  18.598  0.00  0.00    +0.000 C 
ATOM      2  N   UNL     1      -4.530  12.227  18.626  0.00  0.00    +0.000 N 
ATOM      3  C   UNL     1      -3.999  11.515  17.568  0.00  0.00    +0.000 A 
ATOM      4  C   UNL     1      -4.532  11.200  16.301  0.00  0.00    +0.000 A 
ATOM      5  C   UNL     1      -3.764  10.443  15.415  0.00  0.00    +0.000 A 
ATOM      6  C   UNL     1      -2.504   9.998  15.779  0.00  0.00    +0.000 A 
ATOM      7  C   UNL     1      -1.988  10.301  17.042  0.00  0.00    +0.000 A 
ATOM      8  C   UNL     1      -2.735  11.082  17.960  0.00  0.00    +0.000 A 
ATOM      9  C   UNL     1      -2.502  11.567  19.300  0.00  0.00    +0.000 A 
ATOM     10  C   UNL     1      -1.413  11.423  20.204  0.00  0.00    +0.000 A 
ATOM     11  N   UNL     1      -0.302  10.681  19.850  0.00  0.00    +0.000 N 
ATOM     12  N   UNL     1      -1.491  11.994  21.429  0.00  0.00    +0.000 NA
ATOM     13  C   UNL     1      -2.571  12.693  21.808  0.00  0.00    +0.000 A 
ATOM     14  C   UNL     1      -2.567  13.257  23.075  0.00  0.00    +0.000 A 
ATOM     15  C   UNL     1      -3.650  13.989  23.572  0.00  0.00    +0.000 A 
ATOM     16  C   UNL     1      -4.773  14.164  22.778  0.00  0.00    +0.000 A 
ATOM     17 BR   UNL     1      -6.255  15.136  23.429  0.00  0.00    +0.000 Br
ATOM     18  C   UNL     1      -4.811  13.620  21.495  0.00  0.00    +0.000 A 
ATOM     19  C   UNL     1      -3.711  12.881  20.994  0.00  0.00    +0.000 A 
ATOM     20  C   UNL     1      -3.645  12.284  19.695  0.00  0.00    +0.000 A 
ATOM     21  H   UNL     1      -0.100  10.741  18.863  0.00  0.00    +0.000 HD
ENDROOT
BRANCH  11  22
ATOM     22  C   UNL     1       0.858  10.523  20.708  0.00  0.00    +0.000 C 
BRANCH  22  23
ATOM     23  C   UNL     1       0.888   9.072  21.292  0.00  0.00    +0.000 C 
ATOM     24  C   UNL     1      -0.552   8.515  21.346  0.00  0.00    +0.000 C 
ATOM     25  C   UNL     1       1.756   8.143  20.413  0.00  0.00    +0.000 C 
BRANCH  23  26
ATOM     26  C   UNL     1       1.492   9.144  22.723  0.00  0.00    +0.000 C 
BRANCH  26  27
ATOM     27  N   UNL     1       0.562   9.637  23.740  0.00  0.00    +0.000 NA
ATOM     28  H   UNL     1       0.125   8.852  24.221  0.00  0.00    +0.000 HD
ATOM     29  H   UNL     1      -0.197  10.148  23.291  0.00  0.00    +0.000 HD
ENDBRANCH  26  27
ENDBRANCH  23  26
ENDBRANCH  22  23
ENDBRANCH  11  22
TORSDOF 4
ENDMDL
MODEL 2
REMARK VINA RESULT:      -6.7      0.834      1.212
REMARK  Name = 
REMARK  7 active torsions:
REMARK  status: ('A' for Active; 'I' for Inactive)
REMARK    1  A    between atoms: C_1  and  N_2
REMARK    2  A    between atoms: N_11  and  C_12
REMARK    3  A    between atoms: C_12  and  C_13
REMARK    4  A    between atoms: C_13  and  C_14
REMARK    5  A    between atoms: C_13  and  C_15
REMARK    6  A    between atoms: C_13  and  C_16
REMARK    7  A    between atoms: C_16  and  N_17
REMARK                            x       y       z     vdW  Elec       q    Type
REMARK                         _______ _______ _______ _____ _____    ______ ____
ROOT
ATOM      1  C   UNL     1      -5.862  12.819  18.671  0.00  0.00    +0.000 C 
ATOM      2  N   UNL     1      -4.532  12.248  18.705  0.00  0.00    +0.000 N 
ATOM      3  C   UNL     1      -3.988  11.542  17.651  0.00  0.00    +0.000 A 
ATOM      4  C   UNL     1      -4.511  11.222  16.381  0.00  0.00    +0.000 A 
ATOM      5  C   UNL     1      -3.731  10.472  15.499  0.00  0.00    +0.000 A 
ATOM      6  C   UNL     1      -2.468  10.041  15.869  0.00  0.00    +0.000 A 
ATOM      7  C   UNL     1      -1.962  10.349  17.135  0.00  0.00    +0.000 A 
ATOM      8  C   UNL     1      -2.721  11.121  18.049  0.00  0.00    +0.000 A 
ATOM      9  C   UNL     1      -2.500  11.609  19.390  0.00  0.00    +0.000 A 
ATOM     10  C   UNL     1      -1.415  11.476  20.300  0.00  0.00    +0.000 A 
ATOM     11  N   UNL     1      -0.295  10.745  19.952  0.00  0.00    +0.000 N 
ATOM     12  N   UNL     1      -1.506  12.046  21.525  0.00  0.00    +0.000 NA
ATOM     13  C   UNL     1      -2.595  12.734  21.898  0.00  0.00    +0.000 A 
ATOM     14  C   UNL     1      -2.603  13.298  23.165  0.00  0.00    +0.000 A 
ATOM     15  C   UNL     1      -3.696  14.018  23.657  0.00  0.00    +0.000 A 
ATOM     16  C   UNL     1      -4.816  14.181  22.857  0.00  0.00    +0.000 A 
ATOM     17 BR   UNL     1      -6.312  15.138  23.500  0.00  0.00    +0.000 Br
ATOM     18  C   UNL     1      -4.842  13.637  21.573  0.00  0.00    +0.000 A 
ATOM     19  C   UNL     1      -3.732  12.910  21.079  0.00  0.00    +0.000 A 
ATOM     20  C   UNL     1      -3.653  12.314  19.780  0.00  0.00    +0.000 A 
ATOM     21  H   UNL     1      -0.088  10.807  18.966  0.00  0.00    +0.000 HD
ENDROOT
BRANCH  11  22
ATOM     22  C   UNL     1       0.863  10.600  20.815  0.00  0.00    +0.000 C 
BRANCH  22  23
ATOM     23  C   UNL     1       0.897   9.153  21.411  0.00  0.00    +0.000 C 
ATOM     24  C   UNL     1       1.611   9.184  22.780  0.00  0.00    +0.000 C 
ATOM     25  C   UNL     1      -0.534   8.601  21.600  0.00  0.00    +0.000 C 
BRANCH  23  26
ATOM     26  C   UNL     1       1.675   8.245  20.417  0.00  0.00    +0.000 C 
BRANCH  26  27
ATOM     27  N   UNL     1       1.748   6.840  20.823  0.00  0.00    +0.000 NA
ATOM     28  H   UNL     1       2.636   6.659  21.290  0.00  0.00    +0.000 HD
ATOM     29  H   UNL     1       1.740   6.244  19.997  0.00  0.00    +0.000 HD
ENDBRANCH  26  27
ENDBRANCH  23  26
ENDBRANCH  22  23
ENDBRANCH  11  22
TORSDOF 4
ENDMDL
MODEL 3
REMARK VINA RESULT:      -6.6      2.100      2.730
REMARK  Name = 
REMARK  7 active torsions:
REMARK  status: ('A' for Active; 'I' for Inactive)
REMARK    1  A    between atoms: C_1  and  N_2
REMARK    2  A    between atoms: N_11  and  C_12
REMARK    3  A    between atoms: C_12  and  C_13
REMARK    4  A    between atoms: C_13  and  C_14
REMARK    5  A    between atoms: C_13  and  C_15
REMARK    6  A    between atoms: C_13  and  C_16
REMARK    7  A    between atoms: C_16  and  N_17
REMARK                            x       y       z     vdW  Elec       q    Type
REMARK                         _______ _______ _______ _____ _____    ______ ____
ROOT
ATOM      1  C   UNL     1      -6.557  12.007  19.163  0.00  0.00    +0.000 C 
ATOM      2  N   UNL     1      -5.109  12.010  19.127  0.00  0.00    +0.000 N 
ATOM      3  C   UNL     1      -4.381  11.636  18.015  0.00  0.00    +0.000 A 
ATOM      4  C   UNL     1      -4.795  11.203  16.739  0.00  0.00    +0.000 A 
ATOM      5  C   UNL     1      -3.826  10.874  15.790  0.00  0.00    +0.000 A 
ATOM      6  C   UNL     1      -2.479  10.961  16.101  0.00  0.00    +0.000 A 
ATOM      7  C   UNL     1      -2.076  11.377  17.373  0.00  0.00    +0.000 A 
ATOM      8  C   UNL     1      -3.034  11.734  18.355  0.00  0.00    +0.000 A 
ATOM      9  C   UNL     1      -2.960  12.197  19.720  0.00  0.00    +0.000 A 
ATOM     10  C   UNL     1      -1.868  12.457  20.594  0.00  0.00    +0.000 A 
ATOM     11  N   UNL     1      -0.568  12.253  20.171  0.00  0.00    +0.000 N 
ATOM     12  N   UNL     1      -2.117  12.878  21.857  0.00  0.00    +0.000 NA
ATOM     13  C   UNL     1      -3.370  13.055  22.300  0.00  0.00    +0.000 A 
ATOM     14  C   UNL     1      -3.540  13.501  23.603  0.00  0.00    +0.000 A 
ATOM     15  C   UNL     1      -4.804  13.700  24.167  0.00  0.00    +0.000 A 
ATOM     16  C   UNL     1      -5.934  13.447  23.406  0.00  0.00    +0.000 A 
ATOM     17 BR   UNL     1      -7.654  13.694  24.147  0.00  0.00    +0.000 Br
ATOM     18  C   UNL     1      -5.805  13.007  22.090  0.00  0.00    +0.000 A 
ATOM     19  C   UNL     1      -4.523  12.809  21.521  0.00  0.00    +0.000 A 
ATOM     20  C   UNL     1      -4.277  12.363  20.183  0.00  0.00    +0.000 A 
ATOM     21  H   UNL     1      -0.450  12.444  19.187  0.00  0.00    +0.000 HD
ENDROOT
BRANCH  11  22
ATOM     22  C   UNL     1       0.592  12.533  20.996  0.00  0.00    +0.000 C 
BRANCH  22  23
ATOM     23  C   UNL     1       1.302  13.831  20.485  0.00  0.00    +0.000 C 
ATOM     24  C   UNL     1       2.830  13.667  20.633  0.00  0.00    +0.000 C 
ATOM     25  C   UNL     1       0.963  14.094  19.000  0.00  0.00    +0.000 C 
BRANCH  23  26
ATOM     26  C   UNL     1       0.801  15.023  21.349  0.00  0.00    +0.000 C 
BRANCH  26  27
ATOM     27  N   UNL     1       0.201  14.626  22.624  0.00  0.00    +0.000 NA
ATOM     28  H   UNL     1       0.022  15.451  23.195  0.00  0.00    +0.000 HD
ATOM     29  H   UNL     1       0.864  14.060  23.153  0.00  0.00    +0.000 HD
ENDBRANCH  26  27
ENDBRANCH  23  26
ENDBRANCH  22  23
ENDBRANCH  11  22
TORSDOF 4
ENDMDL
MODEL 4
REMARK VINA RESULT:      -6.6      5.474      8.918
REMARK  Name = 
REMARK  7 active torsions:
REMARK  status: ('A' for Active; 'I' for Inactive)
REMARK    1  A    between atoms: C_1  and  N_2
REMARK    2  A    between atoms: N_11  and  C_12
REMARK    3  A    between atoms: C_12  and  C_13
REMARK    4  A    between atoms: C_13  and  C_14
REMARK    5  A    between atoms: C_13  and  C_15
REMARK    6  A    between atoms: C_13  and  C_16
REMARK    7  A    between atoms: C_16  and  N_17
REMARK                            x       y       z     vdW  Elec       q    Type
REMARK                         _______ _______ _______ _____ _____    ______ ____
ROOT
ATOM      1  C   UNL     1       0.758   6.711  21.582  0.00  0.00    +0.000 C 
ATOM      2  N   UNL     1       1.687   6.181  20.606  0.00  0.00    +0.000 N 
ATOM      3  C   UNL     1       2.177   4.891  20.655  0.00  0.00    +0.000 A 
ATOM      4  C   UNL     1       1.932   3.839  21.562  0.00  0.00    +0.000 A 
ATOM      5  C   UNL     1       2.583   2.620  21.373  0.00  0.00    +0.000 A 
ATOM      6  C   UNL     1       3.465   2.449  20.319  0.00  0.00    +0.000 A 
ATOM      7  C   UNL     1       3.715   3.499  19.433  0.00  0.00    +0.000 A 
ATOM      8  C   UNL     1       3.058   4.746  19.585  0.00  0.00    +0.000 A 
ATOM      9  C   UNL     1       3.081   5.998  18.866  0.00  0.00    +0.000 A 
ATOM     10  C   UNL     1       3.799   6.441  17.721  0.00  0.00    +0.000 A 
ATOM     11  N   UNL     1       4.695   5.600  17.087  0.00  0.00    +0.000 N 
ATOM     12  N   UNL     1       3.619   7.707  17.276  0.00  0.00    +0.000 NA
ATOM     13  C   UNL     1       2.779   8.552  17.891  0.00  0.00    +0.000 A 
ATOM     14  C   UNL     1       2.642   9.828  17.365  0.00  0.00    +0.000 A 
ATOM     15  C   UNL     1       1.806  10.789  17.942  0.00  0.00    +0.000 A 
ATOM     16  C   UNL     1       1.083  10.465  19.080  0.00  0.00    +0.000 A 
ATOM     17 BR   UNL     1      -0.044  11.749  19.887  0.00  0.00    +0.000 Br
ATOM     18  C   UNL     1       1.186   9.190  19.632  0.00  0.00    +0.000 A 
ATOM     19  C   UNL     1       2.033   8.218  19.044  0.00  0.00    +0.000 A 
ATOM     20  C   UNL     1       2.211   6.883  19.527  0.00  0.00    +0.000 A 
ATOM     21  H   UNL     1       4.408   4.633  17.128  0.00  0.00    +0.000 HD
ENDROOT
BRANCH  11  22
ATOM     22  C   UNL     1       5.432   5.973  15.894  0.00  0.00    +0.000 C 
BRANCH  22  23
ATOM     23  C   UNL     1       6.443   4.838  15.523  0.00  0.00    +0.000 C 
ATOM     24  C   UNL     1       5.694   3.489  15.463  0.00  0.00    +0.000 C 
ATOM     25  C   UNL     1       7.098   5.113  14.150  0.00  0.00    +0.000 C 
BRANCH  23  26
ATOM     26  C   UNL     1       7.543   4.797  16.621  0.00  0.00    +0.000 C 
BRANCH  26  27
ATOM     27  N   UNL     1       7.107   4.190  17.880  0.00  0.00    +0.000 NA
ATOM     28  H   UNL     1       7.753   3.450  18.151  0.00  0.00    +0.000 HD
ATOM     29  H   UNL     1       6.204   3.737  17.747  0.00  0.00    +0.000 HD
ENDBRANCH  26  27
ENDBRANCH  23  26
ENDBRANCH  22  23
ENDBRANCH  11  22
TORSDOF 4
ENDMDL
MODEL 5
REMARK VINA RESULT:      -6.5      2.951      5.674
REMARK  Name = 
REMARK  7 active torsions:
REMARK  status: ('A' for Active; 'I' for Inactive)
REMARK    1  A    between atoms: C_1  and  N_2
REMARK    2  A    between atoms: N_11  and  C_12
REMARK    3  A    between atoms: C_12  and  C_13
REMARK    4  A    between atoms: C_13  and  C_14
REMARK    5  A    between atoms: C_13  and  C_15
REMARK    6  A    between atoms: C_13  and  C_16
REMARK    7  A    between atoms: C_16  and  N_17
REMARK                            x       y       z     vdW  Elec       q    Type
REMARK                         _______ _______ _______ _____ _____    ______ ____
ROOT
ATOM      1  C   UNL     1      -3.369  10.250  17.045  0.00  0.00    +0.000 C 
ATOM      2  N   UNL     1      -3.680  11.174  18.115  0.00  0.00    +0.000 N 
ATOM      3  C   UNL     1      -4.927  11.743  18.282  0.00  0.00    +0.000 A 
ATOM      4  C   UNL     1      -6.120  11.594  17.545  0.00  0.00    +0.000 A 
ATOM      5  C   UNL     1      -7.251  12.311  17.939  0.00  0.00    +0.000 A 
ATOM      6  C   UNL     1      -7.198  13.164  19.029  0.00  0.00    +0.000 A 
ATOM      7  C   UNL     1      -6.009  13.318  19.746  0.00  0.00    +0.000 A 
ATOM      8  C   UNL     1      -4.847  12.593  19.383  0.00  0.00    +0.000 A 
ATOM      9  C   UNL     1      -3.500  12.514  19.897  0.00  0.00    +0.000 A 
ATOM     10  C   UNL     1      -2.839  13.164  20.977  0.00  0.00    +0.000 A 
ATOM     11  N   UNL     1      -3.511  14.086  21.757  0.00  0.00    +0.000 N 
ATOM     12  N   UNL     1      -1.534  12.892  21.212  0.00  0.00    +0.000 NA
ATOM     13  C   UNL     1      -0.851  12.024  20.451  0.00  0.00    +0.000 A 
ATOM     14  C   UNL     1       0.480  11.792  20.767  0.00  0.00    +0.000 A 
ATOM     15  C   UNL     1       1.283  10.920  20.026  0.00  0.00    +0.000 A 
ATOM     16  C   UNL     1       0.741  10.259  18.935  0.00  0.00    +0.000 A 
ATOM     17 BR   UNL     1       1.807   9.086  17.908  0.00  0.00    +0.000 Br
ATOM     18  C   UNL     1      -0.596  10.459  18.592  0.00  0.00    +0.000 A 
ATOM     19  C   UNL     1      -1.407  11.341  19.347  0.00  0.00    +0.000 A 
ATOM     20  C   UNL     1      -2.787  11.616  19.084  0.00  0.00    +0.000 A 
ATOM     21  H   UNL     1      -4.489  13.860  21.860  0.00  0.00    +0.000 HD
ENDROOT
BRANCH  11  22
ATOM     22  C   UNL     1      -2.910  14.757  22.895  0.00  0.00    +0.000 C 
BRANCH  22  23
ATOM     23  C   UNL     1      -3.891  14.709  24.113  0.00  0.00    +0.000 C 
ATOM     24  C   UNL     1      -3.073  14.693  25.424  0.00  0.00    +0.000 C 
ATOM     25  C   UNL     1      -4.826  15.940  24.116  0.00  0.00    +0.000 C 
BRANCH  23  26
ATOM     26  C   UNL     1      -4.741  13.413  23.993  0.00  0.00    +0.000 C 
BRANCH  26  27
ATOM     27  N   UNL     1      -4.003  12.184  24.289  0.00  0.00    +0.000 NA
ATOM     28  H   UNL     1      -4.467  11.387  23.854  0.00  0.00    +0.000 HD
ATOM     29  H   UNL     1      -4.024  12.005  25.292  0.00  0.00    +0.000 HD
ENDBRANCH  26  27
ENDBRANCH  23  26
ENDBRANCH  22  23
ENDBRANCH  11  22
TORSDOF 4
ENDMDL
MODEL 6
REMARK VINA RESULT:      -6.5      2.809      5.614
REMARK  Name = 
REMARK  7 active torsions:
REMARK  status: ('A' for Active; 'I' for Inactive)
REMARK    1  A    between atoms: C_1  and  N_2
REMARK    2  A    between atoms: N_11  and  C_12
REMARK    3  A    between atoms: C_12  and  C_13
REMARK    4  A    between atoms: C_13  and  C_14
REMARK    5  A    between atoms: C_13  and  C_15
REMARK    6  A    between atoms: C_13  and  C_16
REMARK    7  A    between atoms: C_16  and  N_17
REMARK                            x       y       z     vdW  Elec       q    Type
REMARK                         _______ _______ _______ _____ _____    ______ ____
ROOT
ATOM      1  C   UNL     1      -3.311  10.925  16.767  0.00  0.00    +0.000 C 
ATOM      2  N   UNL     1      -3.742  11.576  17.986  0.00  0.00    +0.000 N 
ATOM      3  C   UNL     1      -4.994  12.140  18.137  0.00  0.00    +0.000 A 
ATOM      4  C   UNL     1      -6.086  12.223  17.250  0.00  0.00    +0.000 A 
ATOM      5  C   UNL     1      -7.249  12.871  17.669  0.00  0.00    +0.000 A 
ATOM      6  C   UNL     1      -7.324  13.434  18.932  0.00  0.00    +0.000 A 
ATOM      7  C   UNL     1      -6.232  13.361  19.801  0.00  0.00    +0.000 A 
ATOM      8  C   UNL     1      -5.042  12.696  19.413  0.00  0.00    +0.000 A 
ATOM      9  C   UNL     1      -3.771  12.440  20.050  0.00  0.00    +0.000 A 
ATOM     10  C   UNL     1      -3.244  12.783  21.326  0.00  0.00    +0.000 A 
ATOM     11  N   UNL     1      -3.998  13.517  22.221  0.00  0.00    +0.000 N 
ATOM     12  N   UNL     1      -1.982  12.407  21.641  0.00  0.00    +0.000 NA
ATOM     13  C   UNL     1      -1.220  11.720  20.778  0.00  0.00    +0.000 A 
ATOM     14  C   UNL     1       0.058  11.363  21.184  0.00  0.00    +0.000 A 
ATOM     15  C   UNL     1       0.938  10.662  20.353  0.00  0.00    +0.000 A 
ATOM     16  C   UNL     1       0.529  10.306  19.078  0.00  0.00    +0.000 A 
ATOM     17 BR   UNL     1       1.702   9.371  17.931  0.00  0.00    +0.000 Br
ATOM     18  C   UNL     1      -0.751  10.638  18.638  0.00  0.00    +0.000 A 
ATOM     19  C   UNL     1      -1.640  11.347  19.483  0.00  0.00    +0.000 A 
ATOM     20  C   UNL     1      -2.973  11.735  19.133  0.00  0.00    +0.000 A 
ATOM     21  H   UNL     1      -4.984  13.314  22.149  0.00  0.00    +0.000 HD
ENDROOT
BRANCH  11  22
ATOM     22  C   UNL     1      -3.537  13.869  23.552  0.00  0.00    +0.000 C 
BRANCH  22  23
ATOM     23  C   UNL     1      -3.227  15.402  23.614  0.00  0.00    +0.000 C 
ATOM     24  C   UNL     1      -4.038  16.129  22.519  0.00  0.00    +0.000 C 
ATOM     25  C   UNL     1      -3.609  15.984  24.994  0.00  0.00    +0.000 C 
BRANCH  23  26
ATOM     26  C   UNL     1      -1.703  15.593  23.375  0.00  0.00    +0.000 C 
BRANCH  26  27
ATOM     27  N   UNL     1      -0.897  14.409  23.680  0.00  0.00    +0.000 NA
ATOM     28  H   UNL     1      -1.162  13.641  23.063  0.00  0.00    +0.000 HD
ATOM     29  H   UNL     1      -1.101  14.091  24.626  0.00  0.00    +0.000 HD
ENDBRANCH  26  27
ENDBRANCH  23  26
ENDBRANCH  22  23
ENDBRANCH  11  22
TORSDOF 4
ENDMDL
MODEL 7
REMARK VINA RESULT:      -6.4      2.886      5.894
REMARK  Name = 
REMARK  7 active torsions:
REMARK  status: ('A' for Active; 'I' for Inactive)
REMARK    1  A    between atoms: C_1  and  N_2
REMARK    2  A    between atoms: N_11  and  C_12
REMARK    3  A    between atoms: C_12  and  C_13
REMARK    4  A    between atoms: C_13  and  C_14
REMARK    5  A    between atoms: C_13  and  C_15
REMARK    6  A    between atoms: C_13  and  C_16
REMARK    7  A    between atoms: C_16  and  N_17
REMARK                            x       y       z     vdW  Elec       q    Type
REMARK                         _______ _______ _______ _____ _____    ______ ____
ROOT
ATOM      1  C   UNL     1      -3.359  10.963  16.753  0.00  0.00    +0.000 C 
ATOM      2  N   UNL     1      -3.805  11.618  17.965  0.00  0.00    +0.000 N 
ATOM      3  C   UNL     1      -5.064  12.168  18.104  0.00  0.00    +0.000 A 
ATOM      4  C   UNL     1      -6.152  12.232  17.210  0.00  0.00    +0.000 A 
ATOM      5  C   UNL     1      -7.325  12.870  17.618  0.00  0.00    +0.000 A 
ATOM      6  C   UNL     1      -7.414  13.441  18.877  0.00  0.00    +0.000 A 
ATOM      7  C   UNL     1      -6.327  13.387  19.752  0.00  0.00    +0.000 A 
ATOM      8  C   UNL     1      -5.127  12.733  19.376  0.00  0.00    +0.000 A 
ATOM      9  C   UNL     1      -3.857  12.497  20.022  0.00  0.00    +0.000 A 
ATOM     10  C   UNL     1      -3.341  12.855  21.298  0.00  0.00    +0.000 A 
ATOM     11  N   UNL     1      -4.109  13.587  22.184  0.00  0.00    +0.000 N 
ATOM     12  N   UNL     1      -2.076  12.497  21.624  0.00  0.00    +0.000 NA
ATOM     13  C   UNL     1      -1.301  11.812  20.771  0.00  0.00    +0.000 A 
ATOM     14  C   UNL     1      -0.021  11.473  21.186  0.00  0.00    +0.000 A 
ATOM     15  C   UNL     1       0.871  10.776  20.366  0.00  0.00    +0.000 A 
ATOM     16  C   UNL     1       0.474  10.406  19.091  0.00  0.00    +0.000 A 
ATOM     17 BR   UNL     1       1.665   9.476  17.957  0.00  0.00    +0.000 Br
ATOM     18  C   UNL     1      -0.807  10.720  18.641  0.00  0.00    +0.000 A 
ATOM     19  C   UNL     1      -1.710  11.424  19.475  0.00  0.00    +0.000 A 
ATOM     20  C   UNL     1      -3.044  11.794  19.115  0.00  0.00    +0.000 A 
ATOM     21  H   UNL     1      -5.092  13.372  22.108  0.00  0.00    +0.000 HD
ENDROOT
BRANCH  11  22
ATOM     22  C   UNL     1      -3.659  13.954  23.514  0.00  0.00    +0.000 C 
BRANCH  22  23
ATOM     23  C   UNL     1      -3.957  15.468  23.773  0.00  0.00    +0.000 C 
ATOM     24  C   UNL     1      -3.402  15.867  25.158  0.00  0.00    +0.000 C 
ATOM     25  C   UNL     1      -3.296  16.351  22.690  0.00  0.00    +0.000 C 
BRANCH  23  26
ATOM     26  C   UNL     1      -5.498  15.667  23.732  0.00  0.00    +0.000 C 
BRANCH  26  27
ATOM     27  N   UNL     1      -6.262  14.530  24.248  0.00  0.00    +0.000 NA
ATOM     28  H   UNL     1      -6.901  14.843  24.978  0.00  0.00    +0.000 HD
ATOM     29  H   UNL     1      -5.629  13.868  24.695  0.00  0.00    +0.000 HD
ENDBRANCH  26  27
ENDBRANCH  23  26
ENDBRANCH  22  23
ENDBRANCH  11  22
TORSDOF 4
ENDMDL
MODEL 8
REMARK VINA RESULT:      -6.3      3.881      6.399
REMARK  Name = 
REMARK  7 active torsions:
REMARK  status: ('A' for Active; 'I' for Inactive)
REMARK    1  A    between atoms: C_1  and  N_2
REMARK    2  A    between atoms: N_11  and  C_12
REMARK    3  A    between atoms: C_12  and  C_13
REMARK    4  A    between atoms: C_13  and  C_14
REMARK    5  A    between atoms: C_13  and  C_15
REMARK    6  A    between atoms: C_13  and  C_16
REMARK    7  A    between atoms: C_16  and  N_17
REMARK                            x       y       z     vdW  Elec       q    Type
REMARK                         _______ _______ _______ _____ _____    ______ ____
ROOT
ATOM      1  C   UNL     1       1.209  13.199  19.235  0.00  0.00    +0.000 C 
ATOM      2  N   UNL     1       0.212  13.073  20.278  0.00  0.00    +0.000 N 
ATOM      3  C   UNL     1       0.113  11.964  21.096  0.00  0.00    +0.000 A 
ATOM      4  C   UNL     1       0.875  10.779  21.148  0.00  0.00    +0.000 A 
ATOM      5  C   UNL     1       0.540   9.802  22.087  0.00  0.00    +0.000 A 
ATOM      6  C   UNL     1      -0.530   9.989  22.946  0.00  0.00    +0.000 A 
ATOM      7  C   UNL     1      -1.289  11.159  22.879  0.00  0.00    +0.000 A 
ATOM      8  C   UNL     1      -0.967  12.179  21.949  0.00  0.00    +0.000 A 
ATOM      9  C   UNL     1      -1.523  13.473  21.632  0.00  0.00    +0.000 A 
ATOM     10  C   UNL     1      -2.630  14.202  22.150  0.00  0.00    +0.000 A 
ATOM     11  N   UNL     1      -3.416  13.665  23.151  0.00  0.00    +0.000 N 
ATOM     12  N   UNL     1      -2.924  15.417  21.628  0.00  0.00    +0.000 NA
ATOM     13  C   UNL     1      -2.195  15.947  20.636  0.00  0.00    +0.000 A 
ATOM     14  C   UNL     1      -2.555  17.202  20.165  0.00  0.00    +0.000 A 
ATOM     15  C   UNL     1      -1.871  17.834  19.122  0.00  0.00    +0.000 A 
ATOM     16  C   UNL     1      -0.794  17.193  18.530  0.00  0.00    +0.000 A 
ATOM     17 BR   UNL     1       0.139  18.019  17.110  0.00  0.00    +0.000 Br
ATOM     18  C   UNL     1      -0.396  15.936  18.981  0.00  0.00    +0.000 A 
ATOM     19  C   UNL     1      -1.090  15.300  20.040  0.00  0.00    +0.000 A 
ATOM     20  C   UNL     1      -0.765  14.015  20.579  0.00  0.00    +0.000 A 
ATOM     21  H   UNL     1      -2.886  13.084  23.785  0.00  0.00    +0.000 HD
ENDROOT
BRANCH  11  22
ATOM     22  C   UNL     1      -4.535  14.368  23.751  0.00  0.00    +0.000 C 
BRANCH  22  23
ATOM     23  C   UNL     1      -5.875  13.668  23.346  0.00  0.00    +0.000 C 
ATOM     24  C   UNL     1      -7.010  14.716  23.322  0.00  0.00    +0.000 C 
ATOM     25  C   UNL     1      -5.757  13.021  21.947  0.00  0.00    +0.000 C 
BRANCH  23  26
ATOM     26  C   UNL     1      -6.179  12.568  24.401  0.00  0.00    +0.000 C 
BRANCH  26  27
ATOM     27  N   UNL     1      -4.986  11.991  25.024  0.00  0.00    +0.000 NA
ATOM     28  H   UNL     1      -5.246  11.491  25.874  0.00  0.00    +0.000 HD
ATOM     29  H   UNL     1      -4.360  12.739  25.320  0.00  0.00    +0.000 HD
ENDBRANCH  26  27
ENDBRANCH  23  26
ENDBRANCH  22  23
ENDBRANCH  11  22
TORSDOF 4
ENDMDL
MODEL 9
REMARK VINA RESULT:      -6.3      2.937      5.767
REMARK  Name = 
REMARK  7 active torsions:
REMARK  status: ('A' for Active; 'I' for Inactive)
REMARK    1  A    between atoms: C_1  and  N_2
REMARK    2  A    between atoms: N_11  and  C_12
REMARK    3  A    between atoms: C_12  and  C_13
REMARK    4  A    between atoms: C_13  and  C_14
REMARK    5  A    between atoms: C_13  and  C_15
REMARK    6  A    between atoms: C_13  and  C_16
REMARK    7  A    between atoms: C_16  and  N_17
REMARK                            x       y       z     vdW  Elec       q    Type
REMARK                         _______ _______ _______ _____ _____    ______ ____
ROOT
ATOM      1  C   UNL     1      -3.390  10.279  16.958  0.00  0.00    +0.000 C 
ATOM      2  N   UNL     1      -3.666  11.179  18.058  0.00  0.00    +0.000 N 
ATOM      3  C   UNL     1      -4.894  11.778  18.252  0.00  0.00    +0.000 A 
ATOM      4  C   UNL     1      -6.097  11.686  17.521  0.00  0.00    +0.000 A 
ATOM      5  C   UNL     1      -7.203  12.423  17.945  0.00  0.00    +0.000 A 
ATOM      6  C   UNL     1      -7.118  13.241  19.059  0.00  0.00    +0.000 A 
ATOM      7  C   UNL     1      -5.920  13.340  19.770  0.00  0.00    +0.000 A 
ATOM      8  C   UNL     1      -4.782  12.592  19.377  0.00  0.00    +0.000 A 
ATOM      9  C   UNL     1      -3.434  12.460  19.878  0.00  0.00    +0.000 A 
ATOM     10  C   UNL     1      -2.747  13.058  20.971  0.00  0.00    +0.000 A 
ATOM     11  N   UNL     1      -3.386  13.975  21.783  0.00  0.00    +0.000 N 
ATOM     12  N   UNL     1      -1.448  12.742  21.188  0.00  0.00    +0.000 NA
ATOM     13  C   UNL     1      -0.797  11.878  20.396  0.00  0.00    +0.000 A 
ATOM     14  C   UNL     1       0.529  11.598  20.694  0.00  0.00    +0.000 A 
ATOM     15  C   UNL     1       1.302  10.726  19.920  0.00  0.00    +0.000 A 
ATOM     16  C   UNL     1       0.732  10.113  18.815  0.00  0.00    +0.000 A 
ATOM     17 BR   UNL     1       1.757   8.941  17.745  0.00  0.00    +0.000 Br
ATOM     18  C   UNL     1      -0.600  10.362  18.489  0.00  0.00    +0.000 A 
ATOM     19  C   UNL     1      -1.380  11.244  19.276  0.00  0.00    +0.000 A 
ATOM     20  C   UNL     1      -2.753  11.567  19.032  0.00  0.00    +0.000 A 
ATOM     21  H   UNL     1      -4.370  13.774  21.888  0.00  0.00    +0.000 HD
ENDROOT
BRANCH  11  22
ATOM     22  C   UNL     1      -2.758  14.594  22.936  0.00  0.00    +0.000 C 
BRANCH  22  23
ATOM     23  C   UNL     1      -3.684  14.438  24.188  0.00  0.00    +0.000 C 
ATOM     24  C   UNL     1      -3.999  12.942  24.404  0.00  0.00    +0.000 C 
ATOM     25  C   UNL     1      -2.995  14.997  25.454  0.00  0.00    +0.000 C 
BRANCH  23  26
ATOM     26  C   UNL     1      -4.993  15.232  23.918  0.00  0.00    +0.000 C 
BRANCH  26  27
ATOM     27  N   UNL     1      -4.789  16.499  23.213  0.00  0.00    +0.000 NA
ATOM     28  H   UNL     1      -5.288  17.248  23.693  0.00  0.00    +0.000 HD
ATOM     29  H   UNL     1      -5.199  16.443  22.282  0.00  0.00    +0.000 HD
ENDBRANCH  26  27
ENDBRANCH  23  26
ENDBRANCH  22  23
ENDBRANCH  11  22
TORSDOF 4
ENDMDL
