MODEL 1
REMARK VINA RESULT:      -8.7      0.000      0.000
REMARK  Name = 
REMARK  8 active torsions:
REMARK  status: ('A' for Active; 'I' for Inactive)
REMARK    1  A    between atoms: C_1  and  O_2
REMARK    2  A    between atoms: O_2  and  C_3
REMARK    3  A    between atoms: C_6  and  C_7
REMARK    4  A    between atoms: C_7  and  C_8
REMARK    5  A    between atoms: C_8  and  N_9
REMARK    6  A    between atoms: N_9  and  C_10
REMARK    7  A    between atoms: C_26  and  O_27
REMARK    8  A    between atoms: O_27  and  C_28
REMARK                            x       y       z     vdW  Elec       q    Type
REMARK                         _______ _______ _______ _____ _____    ______ ____
ROOT
ATOM      1  C   UNL     1       3.067   5.615  18.433  0.00  0.00    +0.000 A 
ATOM      2  C   UNL     1       2.609   4.535  19.209  0.00  0.00    +0.000 A 
ATOM      3  C   UNL     1       3.381   3.389  19.169  0.00  0.00    +0.000 A 
ATOM      4  N   UNL     1       4.151   3.101  18.106  0.00  0.00    +0.000 NA
ATOM      5  C   UNL     1       4.560   4.138  17.366  0.00  0.00    +0.000 A 
ATOM      6  C   UNL     1       5.223   3.977  16.162  0.00  0.00    +0.000 A 
ATOM      7  C   UNL     1       6.052   4.988  15.695  0.00  0.00    +0.000 A 
ATOM      8 CL   UNL     1       6.820   4.837  14.168  0.00  0.00    +0.000 Cl
ATOM      9  C   UNL     1       6.266   6.113  16.477  0.00  0.00    +0.000 A 
ATOM     10  C   UNL     1       5.348   6.381  17.491  0.00  0.00    +0.000 A 
ATOM     11  C   UNL     1       4.335   5.430  17.794  0.00  0.00    +0.000 A 
ATOM     12  C   UNL     1       3.558   2.541  20.397  0.00  0.00    +0.000 C 
ATOM     13  C   UNL     1       2.503   2.724  21.482  0.00  0.00    +0.000 C 
ATOM     14  C   UNL     1       1.189   3.311  20.995  0.00  0.00    +0.000 C 
ATOM     15  C   UNL     1       1.302   4.423  19.944  0.00  0.00    +0.000 C 
ENDROOT
BRANCH   1  16
ATOM     16  N   UNL     1       2.310   6.721  18.020  0.00  0.00    +0.000 N 
ATOM     17  H   UNL     1       1.773   6.617  17.166  0.00  0.00    +0.000 HD
BRANCH  16  18
ATOM     18  C   UNL     1       2.230   8.010  18.707  0.00  0.00    +0.000 C 
BRANCH  18  19
ATOM     19  C   UNL     1       1.781   9.188  17.825  0.00  0.00    +0.000 C 
BRANCH  19  23
ATOM     20  C   UNL     1      -1.607  11.414  19.417  0.00  0.00    +0.000 A 
ATOM     21  C   UNL     1      -0.416  11.316  20.139  0.00  0.00    +0.000 A 
ATOM     22  C   UNL     1       0.661  10.568  19.666  0.00  0.00    +0.000 A 
ATOM     23  C   UNL     1       0.577   9.885  18.448  0.00  0.00    +0.000 A 
ATOM     24  C   UNL     1      -0.646   9.923  17.773  0.00  0.00    +0.000 A 
ATOM     25  C   UNL     1      -1.744  10.665  18.228  0.00  0.00    +0.000 A 
BRANCH  20  27
ATOM     26  C   UNL     1      -2.283  13.386  20.555  0.00  0.00    +0.000 C 
ATOM     27  O   UNL     1      -2.636  12.200  19.836  0.00  0.00    +0.000 OA
ENDBRANCH  20  27
BRANCH  25  28
ATOM     28  O   UNL     1      -2.813  10.596  17.379  0.00  0.00    +0.000 OA
ATOM     29  C   UNL     1      -2.585  10.479  15.982  0.00  0.00    +0.000 C 
ENDBRANCH  25  28
ENDBRANCH  19  23
ENDBRANCH  18  19
ENDBRANCH  16  18
ENDBRANCH   1  16
TORSDOF 6
ENDMDL
MODEL 2
REMARK VINA RESULT:      -8.7      1.302      2.188
REMARK  Name = 
REMARK  8 active torsions:
REMARK  status: ('A' for Active; 'I' for Inactive)
REMARK    1  A    between atoms: C_1  and  O_2
REMARK    2  A    between atoms: O_2  and  C_3
REMARK    3  A    between atoms: C_6  and  C_7
REMARK    4  A    between atoms: C_7  and  C_8
REMARK    5  A    between atoms: C_8  and  N_9
REMARK    6  A    between atoms: N_9  and  C_10
REMARK    7  A    between atoms: C_26  and  O_27
REMARK    8  A    between atoms: O_27  and  C_28
REMARK                            x       y       z     vdW  Elec       q    Type
REMARK                         _______ _______ _______ _____ _____    ______ ____
ROOT
ATOM      1  C   UNL     1       2.979   5.576  18.446  0.00  0.00    +0.000 A 
ATOM      2  C   UNL     1       2.551   4.494  19.236  0.00  0.00    +0.000 A 
ATOM      3  C   UNL     1       3.347   3.363  19.199  0.00  0.00    +0.000 A 
ATOM      4  N   UNL     1       4.113   3.082  18.132  0.00  0.00    +0.000 NA
ATOM      5  C   UNL     1       4.493   4.120  17.379  0.00  0.00    +0.000 A 
ATOM      6  C   UNL     1       5.149   3.961  16.170  0.00  0.00    +0.000 A 
ATOM      7  C   UNL     1       5.952   4.985  15.686  0.00  0.00    +0.000 A 
ATOM      8 CL   UNL     1       6.710   4.835  14.153  0.00  0.00    +0.000 Cl
ATOM      9  C   UNL     1       6.150   6.122  16.456  0.00  0.00    +0.000 A 
ATOM     10  C   UNL     1       5.235   6.380  17.476  0.00  0.00    +0.000 A 
ATOM     11  C   UNL     1       4.246   5.411  17.796  0.00  0.00    +0.000 A 
ATOM     12  C   UNL     1       3.552   2.531  20.433  0.00  0.00    +0.000 C 
ATOM     13  C   UNL     1       2.503   2.702  21.526  0.00  0.00    +0.000 C 
ATOM     14  C   UNL     1       1.173   3.257  21.046  0.00  0.00    +0.000 C 
ATOM     15  C   UNL     1       1.254   4.362  19.983  0.00  0.00    +0.000 C 
ENDROOT
BRANCH   1  16
ATOM     16  N   UNL     1       2.195   6.662  18.029  0.00  0.00    +0.000 N 
ATOM     17  H   UNL     1       1.551   6.496  17.264  0.00  0.00    +0.000 HD
BRANCH  16  18
ATOM     18  C   UNL     1       2.228   8.009  18.595  0.00  0.00    +0.000 C 
BRANCH  18  19
ATOM     19  C   UNL     1       1.380   9.050  17.844  0.00  0.00    +0.000 C 
BRANCH  19  23
ATOM     20  C   UNL     1      -0.944  11.305  20.756  0.00  0.00    +0.000 A 
ATOM     21  C   UNL     1      -1.228  11.398  19.391  0.00  0.00    +0.000 A 
ATOM     22  C   UNL     1      -0.463  10.720  18.443  0.00  0.00    +0.000 A 
ATOM     23  C   UNL     1       0.620   9.926  18.833  0.00  0.00    +0.000 A 
ATOM     24  C   UNL     1       0.946   9.904  20.192  0.00  0.00    +0.000 A 
ATOM     25  C   UNL     1       0.196  10.578  21.165  0.00  0.00    +0.000 A 
BRANCH  20  27
ATOM     26  C   UNL     1      -1.317  13.200  22.138  0.00  0.00    +0.000 C 
ATOM     27  O   UNL     1      -1.729  11.904  21.693  0.00  0.00    +0.000 OA
ENDBRANCH  20  27
BRANCH  25  28
ATOM     28  O   UNL     1       0.669  10.370  22.430  0.00  0.00    +0.000 OA
ATOM     29  C   UNL     1      -0.037   9.499  23.302  0.00  0.00    +0.000 C 
ENDBRANCH  25  28
ENDBRANCH  19  23
ENDBRANCH  18  19
ENDBRANCH  16  18
ENDBRANCH   1  16
TORSDOF 6
ENDMDL
MODEL 3
REMARK VINA RESULT:      -8.6      1.785      2.072
REMARK  Name = 
REMARK  8 active torsions:
REMARK  status: ('A' for Active; 'I' for Inactive)
REMARK    1  A    between atoms: C_1  and  O_2
REMARK    2  A    between atoms: O_2  and  C_3
REMARK    3  A    between atoms: C_6  and  C_7
REMARK    4  A    between atoms: C_7  and  C_8
REMARK    5  A    between atoms: C_8  and  N_9
REMARK    6  A    between atoms: N_9  and  C_10
REMARK    7  A    between atoms: C_26  and  O_27
REMARK    8  A    between atoms: O_27  and  C_28
REMARK                            x       y       z     vdW  Elec       q    Type
REMARK                         _______ _______ _______ _____ _____    ______ ____
ROOT
ATOM      1  C   UNL     1       3.027   5.591  18.517  0.00  0.00    +0.000 A 
ATOM      2  C   UNL     1       2.581   4.490  19.270  0.00  0.00    +0.000 A 
ATOM      3  C   UNL     1       3.355   3.346  19.189  0.00  0.00    +0.000 A 
ATOM      4  N   UNL     1       4.112   3.089  18.109  0.00  0.00    +0.000 NA
ATOM      5  C   UNL     1       4.509   4.146  17.392  0.00  0.00    +0.000 A 
ATOM      6  C   UNL     1       5.158   4.019  16.176  0.00  0.00    +0.000 A 
ATOM      7  C   UNL     1       5.978   5.044  15.725  0.00  0.00    +0.000 A 
ATOM      8 CL   UNL     1       6.727   4.936  14.185  0.00  0.00    +0.000 Cl
ATOM      9  C   UNL     1       6.200   6.148  16.535  0.00  0.00    +0.000 A 
ATOM     10  C   UNL     1       5.294   6.387  17.567  0.00  0.00    +0.000 A 
ATOM     11  C   UNL     1       4.288   5.426  17.857  0.00  0.00    +0.000 A 
ATOM     12  C   UNL     1       3.549   2.466  20.391  0.00  0.00    +0.000 C 
ATOM     13  C   UNL     1       2.508   2.618  21.495  0.00  0.00    +0.000 C 
ATOM     14  C   UNL     1       1.187   3.215  21.041  0.00  0.00    +0.000 C 
ATOM     15  C   UNL     1       1.284   4.355  20.017  0.00  0.00    +0.000 C 
ENDROOT
BRANCH   1  16
ATOM     16  N   UNL     1       2.263   6.706  18.143  0.00  0.00    +0.000 N 
ATOM     17  H   UNL     1       1.760   6.644  17.265  0.00  0.00    +0.000 HD
BRANCH  16  18
ATOM     18  C   UNL     1       2.129   7.948  18.904  0.00  0.00    +0.000 C 
BRANCH  18  19
ATOM     19  C   UNL     1       1.838   7.762  20.403  0.00  0.00    +0.000 C 
BRANCH  19  23
ATOM     20  C   UNL     1      -0.469  11.118  21.945  0.00  0.00    +0.000 A 
ATOM     21  C   UNL     1      -0.416   9.909  22.643  0.00  0.00    +0.000 A 
ATOM     22  C   UNL     1       0.278   8.810  22.139  0.00  0.00    +0.000 A 
ATOM     23  C   UNL     1       0.943   8.886  20.911  0.00  0.00    +0.000 A 
ATOM     24  C   UNL     1       0.817  10.073  20.184  0.00  0.00    +0.000 A 
ATOM     25  C   UNL     1       0.123  11.191  20.665  0.00  0.00    +0.000 A 
BRANCH  20  27
ATOM     26  C   UNL     1      -2.317  11.995  23.152  0.00  0.00    +0.000 C 
ATOM     27  O   UNL     1      -1.083  12.218  22.464  0.00  0.00    +0.000 OA
ENDBRANCH  20  27
BRANCH  25  28
ATOM     28  O   UNL     1       0.178  12.253  19.808  0.00  0.00    +0.000 OA
ATOM     29  C   UNL     1       1.186  12.288  18.807  0.00  0.00    +0.000 C 
ENDBRANCH  25  28
ENDBRANCH  19  23
ENDBRANCH  18  19
ENDBRANCH  16  18
ENDBRANCH   1  16
TORSDOF 6
ENDMDL
MODEL 4
REMARK VINA RESULT:      -8.6      1.012      1.991
REMARK  Name = 
REMARK  8 active torsions:
REMARK  status: ('A' for Active; 'I' for Inactive)
REMARK    1  A    between atoms: C_1  and  O_2
REMARK    2  A    between atoms: O_2  and  C_3
REMARK    3  A    between atoms: C_6  and  C_7
REMARK    4  A    between atoms: C_7  and  C_8
REMARK    5  A    between atoms: C_8  and  N_9
REMARK    6  A    between atoms: N_9  and  C_10
REMARK    7  A    between atoms: C_26  and  O_27
REMARK    8  A    between atoms: O_27  and  C_28
REMARK                            x       y       z     vdW  Elec       q    Type
REMARK                         _______ _______ _______ _____ _____    ______ ____
ROOT
ATOM      1  C   UNL     1       3.091   5.625  18.424  0.00  0.00    +0.000 A 
ATOM      2  C   UNL     1       2.628   4.547  19.199  0.00  0.00    +0.000 A 
ATOM      3  C   UNL     1       3.393   3.396  19.158  0.00  0.00    +0.000 A 
ATOM      4  N   UNL     1       4.162   3.106  18.095  0.00  0.00    +0.000 NA
ATOM      5  C   UNL     1       4.577   4.141  17.356  0.00  0.00    +0.000 A 
ATOM      6  C   UNL     1       5.239   3.978  16.152  0.00  0.00    +0.000 A 
ATOM      7  C   UNL     1       6.073   4.984  15.686  0.00  0.00    +0.000 A 
ATOM      8 CL   UNL     1       6.841   4.831  14.158  0.00  0.00    +0.000 Cl
ATOM      9  C   UNL     1       6.294   6.108  16.469  0.00  0.00    +0.000 A 
ATOM     10  C   UNL     1       5.377   6.380  17.483  0.00  0.00    +0.000 A 
ATOM     11  C   UNL     1       4.359   5.434  17.785  0.00  0.00    +0.000 A 
ATOM     12  C   UNL     1       3.566   2.546  20.385  0.00  0.00    +0.000 C 
ATOM     13  C   UNL     1       2.511   2.734  21.470  0.00  0.00    +0.000 C 
ATOM     14  C   UNL     1       1.201   3.329  20.984  0.00  0.00    +0.000 C 
ATOM     15  C   UNL     1       1.320   4.441  19.933  0.00  0.00    +0.000 C 
ENDROOT
BRANCH   1  16
ATOM     16  N   UNL     1       2.340   6.736  18.011  0.00  0.00    +0.000 N 
ATOM     17  H   UNL     1       1.862   6.661  17.121  0.00  0.00    +0.000 HD
BRANCH  16  18
ATOM     18  C   UNL     1       2.190   7.990  18.748  0.00  0.00    +0.000 C 
BRANCH  18  19
ATOM     19  C   UNL     1       1.910   9.226  17.875  0.00  0.00    +0.000 C 
BRANCH  19  23
ATOM     20  C   UNL     1      -1.132  11.535  19.967  0.00  0.00    +0.000 A 
ATOM     21  C   UNL     1      -1.462  10.774  18.844  0.00  0.00    +0.000 A 
ATOM     22  C   UNL     1      -0.492  10.068  18.135  0.00  0.00    +0.000 A 
ATOM     23  C   UNL     1       0.850  10.104  18.528  0.00  0.00    +0.000 A 
ATOM     24  C   UNL     1       1.182  10.933  19.603  0.00  0.00    +0.000 A 
ATOM     25  C   UNL     1       0.227  11.656  20.330  0.00  0.00    +0.000 A 
BRANCH  20  27
ATOM     26  C   UNL     1      -3.286  12.535  20.025  0.00  0.00    +0.000 C 
ATOM     27  O   UNL     1      -2.082  12.169  20.707  0.00  0.00    +0.000 OA
ENDBRANCH  20  27
BRANCH  25  28
ATOM     28  O   UNL     1       0.776  12.353  21.370  0.00  0.00    +0.000 OA
ATOM     29  C   UNL     1       1.107  13.723  21.191  0.00  0.00    +0.000 C 
ENDBRANCH  25  28
ENDBRANCH  19  23
ENDBRANCH  18  19
ENDBRANCH  16  18
ENDBRANCH   1  16
TORSDOF 6
ENDMDL
MODEL 5
REMARK VINA RESULT:      -8.5      1.136      1.326
REMARK  Name = 
REMARK  8 active torsions:
REMARK  status: ('A' for Active; 'I' for Inactive)
REMARK    1  A    between atoms: C_1  and  O_2
REMARK    2  A    between atoms: O_2  and  C_3
REMARK    3  A    between atoms: C_6  and  C_7
REMARK    4  A    between atoms: C_7  and  C_8
REMARK    5  A    between atoms: C_8  and  N_9
REMARK    6  A    between atoms: N_9  and  C_10
REMARK    7  A    between atoms: C_26  and  O_27
REMARK    8  A    between atoms: O_27  and  C_28
REMARK                            x       y       z     vdW  Elec       q    Type
REMARK                         _______ _______ _______ _____ _____    ______ ____
ROOT
ATOM      1  C   UNL     1       3.832   5.856  18.659  0.00  0.00    +0.000 A 
ATOM      2  C   UNL     1       3.106   4.845  19.311  0.00  0.00    +0.000 A 
ATOM      3  C   UNL     1       3.488   3.546  19.032  0.00  0.00    +0.000 A 
ATOM      4  N   UNL     1       4.081   3.227  17.869  0.00  0.00    +0.000 NA
ATOM      5  C   UNL     1       4.749   4.206  17.250  0.00  0.00    +0.000 A 
ATOM      6  C   UNL     1       5.272   4.061  15.976  0.00  0.00    +0.000 A 
ATOM      7  C   UNL     1       6.345   4.847  15.582  0.00  0.00    +0.000 A 
ATOM      8 CL   UNL     1       6.955   4.735  13.981  0.00  0.00    +0.000 Cl
ATOM      9  C   UNL     1       6.931   5.713  16.493  0.00  0.00    +0.000 A 
ATOM     10  C   UNL     1       6.189   6.066  17.620  0.00  0.00    +0.000 A 
ATOM     11  C   UNL     1       4.951   5.417  17.879  0.00  0.00    +0.000 A 
ATOM     12  C   UNL     1       3.458   2.491  20.101  0.00  0.00    +0.000 C 
ATOM     13  C   UNL     1       2.564   2.791  21.299  0.00  0.00    +0.000 C 
ATOM     14  C   UNL     1       1.469   3.811  21.032  0.00  0.00    +0.000 C 
ATOM     15  C   UNL     1       1.865   5.000  20.145  0.00  0.00    +0.000 C 
ENDROOT
BRANCH   1  16
ATOM     16  N   UNL     1       3.429   7.189  18.485  0.00  0.00    +0.000 N 
ATOM     17  H   UNL     1       4.083   7.907  18.775  0.00  0.00    +0.000 HD
BRANCH  16  18
ATOM     18  C   UNL     1       2.152   7.632  17.926  0.00  0.00    +0.000 C 
BRANCH  18  19
ATOM     19  C   UNL     1       1.987   9.157  17.816  0.00  0.00    +0.000 C 
BRANCH  19  23
ATOM     20  C   UNL     1      -0.734  10.840  20.770  0.00  0.00    +0.000 A 
ATOM     21  C   UNL     1       0.208   9.877  21.136  0.00  0.00    +0.000 A 
ATOM     22  C   UNL     1       1.054   9.293  20.194  0.00  0.00    +0.000 A 
ATOM     23  C   UNL     1       0.980   9.655  18.845  0.00  0.00    +0.000 A 
ATOM     24  C   UNL     1      -0.020  10.559  18.476  0.00  0.00    +0.000 A 
ATOM     25  C   UNL     1      -0.885  11.158  19.403  0.00  0.00    +0.000 A 
BRANCH  20  27
ATOM     26  C   UNL     1      -1.276  11.131  23.064  0.00  0.00    +0.000 C 
ATOM     27  O   UNL     1      -1.513  11.467  21.694  0.00  0.00    +0.000 OA
ENDBRANCH  20  27
BRANCH  25  28
ATOM     28  O   UNL     1      -1.744  12.047  18.821  0.00  0.00    +0.000 OA
ATOM     29  C   UNL     1      -2.990  11.585  18.320  0.00  0.00    +0.000 C 
ENDBRANCH  25  28
ENDBRANCH  19  23
ENDBRANCH  18  19
ENDBRANCH  16  18
ENDBRANCH   1  16
TORSDOF 6
ENDMDL
MODEL 6
REMARK VINA RESULT:      -8.4      1.267      1.530
REMARK  Name = 
REMARK  8 active torsions:
REMARK  status: ('A' for Active; 'I' for Inactive)
REMARK    1  A    between atoms: C_1  and  O_2
REMARK    2  A    between atoms: O_2  and  C_3
REMARK    3  A    between atoms: C_6  and  C_7
REMARK    4  A    between atoms: C_7  and  C_8
REMARK    5  A    between atoms: C_8  and  N_9
REMARK    6  A    between atoms: N_9  and  C_10
REMARK    7  A    between atoms: C_26  and  O_27
REMARK    8  A    between atoms: O_27  and  C_28
REMARK                            x       y       z     vdW  Elec       q    Type
REMARK                         _______ _______ _______ _____ _____    ______ ____
ROOT
ATOM      1  C   UNL     1       3.143   5.633  18.436  0.00  0.00    +0.000 A 
ATOM      2  C   UNL     1       2.666   4.552  19.198  0.00  0.00    +0.000 A 
ATOM      3  C   UNL     1       3.418   3.392  19.145  0.00  0.00    +0.000 A 
ATOM      4  N   UNL     1       4.183   3.104  18.079  0.00  0.00    +0.000 NA
ATOM      5  C   UNL     1       4.611   4.142  17.351  0.00  0.00    +0.000 A 
ATOM      6  C   UNL     1       5.272   3.985  16.146  0.00  0.00    +0.000 A 
ATOM      7  C   UNL     1       6.118   4.987  15.691  0.00  0.00    +0.000 A 
ATOM      8 CL   UNL     1       6.885   4.841  14.162  0.00  0.00    +0.000 Cl
ATOM      9  C   UNL     1       6.352   6.099  16.487  0.00  0.00    +0.000 A 
ATOM     10  C   UNL     1       5.438   6.370  17.504  0.00  0.00    +0.000 A 
ATOM     11  C   UNL     1       4.408   5.434  17.795  0.00  0.00    +0.000 A 
ATOM     12  C   UNL     1       3.579   2.526  20.362  0.00  0.00    +0.000 C 
ATOM     13  C   UNL     1       2.527   2.715  21.449  0.00  0.00    +0.000 C 
ATOM     14  C   UNL     1       1.224   3.331  20.969  0.00  0.00    +0.000 C 
ATOM     15  C   UNL     1       1.357   4.454  19.931  0.00  0.00    +0.000 C 
ENDROOT
BRANCH   1  16
ATOM     16  N   UNL     1       2.406   6.757  18.035  0.00  0.00    +0.000 N 
ATOM     17  H   UNL     1       1.980   6.723  17.116  0.00  0.00    +0.000 HD
BRANCH  16  18
ATOM     18  C   UNL     1       2.199   7.971  18.823  0.00  0.00    +0.000 C 
BRANCH  18  19
ATOM     19  C   UNL     1       1.563   9.143  18.055  0.00  0.00    +0.000 C 
BRANCH  19  23
ATOM     20  C   UNL     1      -0.859  11.581  20.729  0.00  0.00    +0.000 A 
ATOM     21  C   UNL     1      -0.388  10.331  21.136  0.00  0.00    +0.000 A 
ATOM     22  C   UNL     1       0.347   9.518  20.275  0.00  0.00    +0.000 A 
ATOM     23  C   UNL     1       0.634   9.931  18.970  0.00  0.00    +0.000 A 
ATOM     24  C   UNL     1       0.089  11.147  18.547  0.00  0.00    +0.000 A 
ATOM     25  C   UNL     1      -0.656  11.982  19.391  0.00  0.00    +0.000 A 
BRANCH  20  27
ATOM     26  C   UNL     1      -1.260  12.225  22.980  0.00  0.00    +0.000 C 
ATOM     27  O   UNL     1      -1.515  12.413  21.585  0.00  0.00    +0.000 OA
ENDBRANCH  20  27
BRANCH  25  28
ATOM     28  O   UNL     1      -1.039  13.142  18.777  0.00  0.00    +0.000 OA
ATOM     29  C   UNL     1      -0.165  14.261  18.797  0.00  0.00    +0.000 C 
ENDBRANCH  25  28
ENDBRANCH  19  23
ENDBRANCH  18  19
ENDBRANCH  16  18
ENDBRANCH   1  16
TORSDOF 6
ENDMDL
MODEL 7
REMARK VINA RESULT:      -8.4      2.025      2.455
REMARK  Name = 
REMARK  8 active torsions:
REMARK  status: ('A' for Active; 'I' for Inactive)
REMARK    1  A    between atoms: C_1  and  O_2
REMARK    2  A    between atoms: O_2  and  C_3
REMARK    3  A    between atoms: C_6  and  C_7
REMARK    4  A    between atoms: C_7  and  C_8
REMARK    5  A    between atoms: C_8  and  N_9
REMARK    6  A    between atoms: N_9  and  C_10
REMARK    7  A    between atoms: C_26  and  O_27
REMARK    8  A    between atoms: O_27  and  C_28
REMARK                            x       y       z     vdW  Elec       q    Type
REMARK                         _______ _______ _______ _____ _____    ______ ____
ROOT
ATOM      1  C   UNL     1       3.767   5.703  18.624  0.00  0.00    +0.000 A 
ATOM      2  C   UNL     1       2.828   4.736  19.024  0.00  0.00    +0.000 A 
ATOM      3  C   UNL     1       3.019   3.461  18.525  0.00  0.00    +0.000 A 
ATOM      4  N   UNL     1       3.659   3.254  17.362  0.00  0.00    +0.000 NA
ATOM      5  C   UNL     1       4.533   4.193  16.985  0.00  0.00    +0.000 A 
ATOM      6  C   UNL     1       5.143   4.187  15.742  0.00  0.00    +0.000 A 
ATOM      7  C   UNL     1       6.362   4.829  15.573  0.00  0.00    +0.000 A 
ATOM      8 CL   UNL     1       7.093   4.897  14.021  0.00  0.00    +0.000 Cl
ATOM      9  C   UNL     1       6.992   5.401  16.668  0.00  0.00    +0.000 A 
ATOM     10  C   UNL     1       6.214   5.673  17.793  0.00  0.00    +0.000 A 
ATOM     11  C   UNL     1       4.868   5.218  17.846  0.00  0.00    +0.000 A 
ATOM     12  C   UNL     1       2.718   2.255  19.369  0.00  0.00    +0.000 C 
ATOM     13  C   UNL     1       1.776   2.491  20.544  0.00  0.00    +0.000 C 
ATOM     14  C   UNL     1       0.891   3.719  20.410  0.00  0.00    +0.000 C 
ATOM     15  C   UNL     1       1.556   4.958  19.794  0.00  0.00    +0.000 C 
ENDROOT
BRANCH   1  16
ATOM     16  N   UNL     1       3.604   7.095  18.683  0.00  0.00    +0.000 N 
ATOM     17  H   UNL     1       3.998   7.569  19.487  0.00  0.00    +0.000 HD
BRANCH  16  18
ATOM     18  C   UNL     1       2.915   7.920  17.691  0.00  0.00    +0.000 C 
BRANCH  18  19
ATOM     19  C   UNL     1       1.445   8.234  18.018  0.00  0.00    +0.000 C 
BRANCH  19  23
ATOM     20  C   UNL     1       0.895  11.563  20.771  0.00  0.00    +0.000 A 
ATOM     21  C   UNL     1       1.128  11.792  19.413  0.00  0.00    +0.000 A 
ATOM     22  C   UNL     1       1.354  10.740  18.528  0.00  0.00    +0.000 A 
ATOM     23  C   UNL     1       1.357   9.415  18.977  0.00  0.00    +0.000 A 
ATOM     24  C   UNL     1       1.204   9.201  20.349  0.00  0.00    +0.000 A 
ATOM     25  C   UNL     1       0.979  10.241  21.261  0.00  0.00    +0.000 A 
BRANCH  20  27
ATOM     26  C   UNL     1      -0.726  13.109  21.563  0.00  0.00    +0.000 C 
ATOM     27  O   UNL     1       0.602  12.579  21.629  0.00  0.00    +0.000 OA
ENDBRANCH  20  27
BRANCH  25  28
ATOM     28  O   UNL     1       0.805   9.791  22.540  0.00  0.00    +0.000 OA
ATOM     29  C   UNL     1      -0.512   9.630  23.048  0.00  0.00    +0.000 C 
ENDBRANCH  25  28
ENDBRANCH  19  23
ENDBRANCH  18  19
ENDBRANCH  16  18
ENDBRANCH   1  16
TORSDOF 6
ENDMDL
MODEL 8
REMARK VINA RESULT:      -8.4      1.919      2.189
REMARK  Name = 
REMARK  8 active torsions:
REMARK  status: ('A' for Active; 'I' for Inactive)
REMARK    1  A    between atoms: C_1  and  O_2
REMARK    2  A    between atoms: O_2  and  C_3
REMARK    3  A    between atoms: C_6  and  C_7
REMARK    4  A    between atoms: C_7  and  C_8
REMARK    5  A    between atoms: C_8  and  N_9
REMARK    6  A    between atoms: N_9  and  C_10
REMARK    7  A    between atoms: C_26  and  O_27
REMARK    8  A    between atoms: O_27  and  C_28
REMARK                            x       y       z     vdW  Elec       q    Type
REMARK                         _______ _______ _______ _____ _____    ______ ____
ROOT
ATOM      1  C   UNL     1       3.137   5.616  18.412  0.00  0.00    +0.000 A 
ATOM      2  C   UNL     1       2.650   4.541  19.178  0.00  0.00    +0.000 A 
ATOM      3  C   UNL     1       3.389   3.373  19.124  0.00  0.00    +0.000 A 
ATOM      4  N   UNL     1       4.148   3.075  18.057  0.00  0.00    +0.000 NA
ATOM      5  C   UNL     1       4.585   4.107  17.326  0.00  0.00    +0.000 A 
ATOM      6  C   UNL     1       5.241   3.940  16.119  0.00  0.00    +0.000 A 
ATOM      7  C   UNL     1       6.097   4.931  15.660  0.00  0.00    +0.000 A 
ATOM      8 CL   UNL     1       6.857   4.775  14.129  0.00  0.00    +0.000 Cl
ATOM      9  C   UNL     1       6.345   6.042  16.453  0.00  0.00    +0.000 A 
ATOM     10  C   UNL     1       5.437   6.326  17.473  0.00  0.00    +0.000 A 
ATOM     11  C   UNL     1       4.398   5.401  17.768  0.00  0.00    +0.000 A 
ATOM     12  C   UNL     1       3.544   2.508  20.343  0.00  0.00    +0.000 C 
ATOM     13  C   UNL     1       2.497   2.710  21.432  0.00  0.00    +0.000 C 
ATOM     14  C   UNL     1       1.200   3.340  20.955  0.00  0.00    +0.000 C 
ATOM     15  C   UNL     1       1.342   4.459  19.914  0.00  0.00    +0.000 C 
ENDROOT
BRANCH   1  16
ATOM     16  N   UNL     1       2.411   6.747  18.012  0.00  0.00    +0.000 N 
ATOM     17  H   UNL     1       1.992   6.721  17.090  0.00  0.00    +0.000 HD
BRANCH  16  18
ATOM     18  C   UNL     1       2.210   7.960  18.804  0.00  0.00    +0.000 C 
BRANCH  18  19
ATOM     19  C   UNL     1       1.556   9.129  18.046  0.00  0.00    +0.000 C 
BRANCH  19  23
ATOM     20  C   UNL     1       0.696  12.272  20.934  0.00  0.00    +0.000 A 
ATOM     21  C   UNL     1       0.242  10.968  21.144  0.00  0.00    +0.000 A 
ATOM     22  C   UNL     1       0.468   9.961  20.207  0.00  0.00    +0.000 A 
ATOM     23  C   UNL     1       1.155  10.231  19.019  0.00  0.00    +0.000 A 
ATOM     24  C   UNL     1       1.533  11.555  18.782  0.00  0.00    +0.000 A 
ATOM     25  C   UNL     1       1.316  12.586  19.706  0.00  0.00    +0.000 A 
BRANCH  20  27
ATOM     26  C   UNL     1      -0.791  13.495  22.326  0.00  0.00    +0.000 C 
ATOM     27  O   UNL     1       0.544  13.244  21.876  0.00  0.00    +0.000 OA
ENDBRANCH  20  27
BRANCH  25  28
ATOM     28  O   UNL     1       1.818  13.785  19.282  0.00  0.00    +0.000 OA
ATOM     29  C   UNL     1       2.627  13.828  18.116  0.00  0.00    +0.000 C 
ENDBRANCH  25  28
ENDBRANCH  19  23
ENDBRANCH  18  19
ENDBRANCH  16  18
ENDBRANCH   1  16
TORSDOF 6
ENDMDL
MODEL 9
REMARK VINA RESULT:      -8.4      2.012      2.290
REMARK  Name = 
REMARK  8 active torsions:
REMARK  status: ('A' for Active; 'I' for Inactive)
REMARK    1  A    between atoms: C_1  and  O_2
REMARK    2  A    between atoms: O_2  and  C_3
REMARK    3  A    between atoms: C_6  and  C_7
REMARK    4  A    between atoms: C_7  and  C_8
REMARK    5  A    between atoms: C_8  and  N_9
REMARK    6  A    between atoms: N_9  and  C_10
REMARK    7  A    between atoms: C_26  and  O_27
REMARK    8  A    between atoms: O_27  and  C_28
REMARK                            x       y       z     vdW  Elec       q    Type
REMARK                         _______ _______ _______ _____ _____    ______ ____
ROOT
ATOM      1  C   UNL     1       3.826   5.965  18.454  0.00  0.00    +0.000 A 
ATOM      2  C   UNL     1       3.083   4.981  19.131  0.00  0.00    +0.000 A 
ATOM      3  C   UNL     1       3.458   3.670  18.899  0.00  0.00    +0.000 A 
ATOM      4  N   UNL     1       4.062   3.308  17.755  0.00  0.00    +0.000 NA
ATOM      5  C   UNL     1       4.747   4.261  17.112  0.00  0.00    +0.000 A 
ATOM      6  C   UNL     1       5.284   4.070  15.851  0.00  0.00    +0.000 A 
ATOM      7  C   UNL     1       6.368   4.834  15.443  0.00  0.00    +0.000 A 
ATOM      8 CL   UNL     1       6.996   4.663  13.855  0.00  0.00    +0.000 Cl
ATOM      9  C   UNL     1       6.949   5.725  16.333  0.00  0.00    +0.000 A 
ATOM     10  C   UNL     1       6.197   6.121  17.438  0.00  0.00    +0.000 A 
ATOM     11  C   UNL     1       4.950   5.491  17.703  0.00  0.00    +0.000 A 
ATOM     12  C   UNL     1       3.407   2.652  20.003  0.00  0.00    +0.000 C 
ATOM     13  C   UNL     1       2.501   3.000  21.179  0.00  0.00    +0.000 C 
ATOM     14  C   UNL     1       1.418   4.018  20.864  0.00  0.00    +0.000 C 
ATOM     15  C   UNL     1       1.834   5.174  19.944  0.00  0.00    +0.000 C 
ENDROOT
BRANCH   1  16
ATOM     16  N   UNL     1       3.436   7.293  18.230  0.00  0.00    +0.000 N 
ATOM     17  H   UNL     1       4.151   8.005  18.329  0.00  0.00    +0.000 HD
BRANCH  16  18
ATOM     18  C   UNL     1       2.091   7.743  17.871  0.00  0.00    +0.000 C 
BRANCH  18  19
ATOM     19  C   UNL     1       1.889   9.268  17.895  0.00  0.00    +0.000 C 
BRANCH  19  23
ATOM     20  C   UNL     1       0.279  10.527  21.740  0.00  0.00    +0.000 A 
ATOM     21  C   UNL     1       0.292   9.178  21.380  0.00  0.00    +0.000 A 
ATOM     22  C   UNL     1       0.760   8.763  20.134  0.00  0.00    +0.000 A 
ATOM     23  C   UNL     1       1.228   9.693  19.200  0.00  0.00    +0.000 A 
ATOM     24  C   UNL     1       1.135  11.046  19.538  0.00  0.00    +0.000 A 
ATOM     25  C   UNL     1       0.667  11.490  20.782  0.00  0.00    +0.000 A 
BRANCH  20  27
ATOM     26  C   UNL     1      -1.475  11.331  23.126  0.00  0.00    +0.000 C 
ATOM     27  O   UNL     1      -0.108  10.934  22.980  0.00  0.00    +0.000 OA
ENDBRANCH  20  27
BRANCH  25  28
ATOM     28  O   UNL     1       0.716  12.850  20.907  0.00  0.00    +0.000 OA
ATOM     29  C   UNL     1       1.098  13.638  19.789  0.00  0.00    +0.000 C 
ENDBRANCH  25  28
ENDBRANCH  19  23
ENDBRANCH  18  19
ENDBRANCH  16  18
ENDBRANCH   1  16
TORSDOF 6
ENDMDL
