MODEL 1
REMARK VINA RESULT:      -8.6      0.000      0.000
REMARK  Name = 
REMARK  8 active torsions:
REMARK  status: ('A' for Active; 'I' for Inactive)
REMARK    1  A    between atoms: C_1  and  N_2
REMARK    2  A    between atoms: C_3  and  C_5
REMARK    3  A    between atoms: C_7  and  O_8
REMARK    4  A    between atoms: O_8  and  C_9
REMARK    5  A    between atoms: C_12  and  C_13
REMARK    6  A    between atoms: C_16  and  C_17
REMARK    7  A    between atoms: C_17  and  C_18
REMARK    8  A    between atoms: C_17  and  C_19
REMARK                            x       y       z     vdW  Elec       q    Type
REMARK                         _______ _______ _______ _____ _____    ______ ____
ROOT
ATOM      1  C   UNL     1       2.965   5.459  18.706  0.00  0.00    +0.000 A 
ATOM      2  C   UNL     1       2.403   5.232  19.967  0.00  0.00    +0.000 A 
ATOM      3  C   UNL     1       1.807   6.286  20.659  0.00  0.00    +0.000 A 
ATOM      4  C   UNL     1       1.783   7.575  20.108  0.00  0.00    +0.000 A 
ATOM      5  C   UNL     1       2.321   7.783  18.829  0.00  0.00    +0.000 A 
ATOM      6  C   UNL     1       2.922   6.740  18.151  0.00  0.00    +0.000 A 
ENDROOT
BRANCH   4   7
ATOM      7  C   UNL     1       1.247   8.696  20.859  0.00  0.00    +0.000 A 
ATOM      8  N   UNL     1       1.436   8.866  22.179  0.00  0.00    +0.000 NA
ATOM      9  O   UNL     1       0.762  10.052  22.462  0.00  0.00    +0.000 OA
ATOM     10  C   UNL     1       0.230  10.480  21.280  0.00  0.00    +0.000 A 
ATOM     11  N   UNL     1       0.510   9.703  20.269  0.00  0.00    +0.000 NA
BRANCH  10  12
ATOM     12  C   UNL     1      -0.599  11.716  21.343  0.00  0.00    +0.000 C 
ATOM     13  C   UNL     1      -1.073  11.987  22.769  0.00  0.00    +0.000 C 
ATOM     14  C   UNL     1       0.181  12.915  20.803  0.00  0.00    +0.000 C 
ENDBRANCH  10  12
ENDBRANCH   4   7
BRANCH   1  15
ATOM     15  O   UNL     1       3.581   4.398  18.088  0.00  0.00    +0.000 OA
BRANCH  15  18
ATOM     16  C   UNL     1       6.494   4.664  15.851  0.00  0.00    +0.000 A 
ATOM     17  C   UNL     1       5.170   4.520  16.221  0.00  0.00    +0.000 A 
ATOM     18  C   UNL     1       4.848   4.562  17.579  0.00  0.00    +0.000 A 
ATOM     19  C   UNL     1       5.868   4.720  18.510  0.00  0.00    +0.000 A 
ATOM     20  C   UNL     1       7.161   4.853  18.048  0.00  0.00    +0.000 A 
ATOM     21  N   UNL     1       7.512   4.830  16.741  0.00  0.00    +0.000 NA
BRANCH  16  24
ATOM     22  C   UNL     1       6.568   3.490  12.244  0.00  0.00    +0.000 C 
ATOM     23  N   UNL     1       6.275   3.641  13.639  0.00  0.00    +0.000 N 
ATOM     24  C   UNL     1       6.882   4.610  14.400  0.00  0.00    +0.000 C 
ATOM     25  O   UNL     1       7.694   5.419  13.941  0.00  0.00    +0.000 OA
ATOM     26  H   UNL     1       5.496   3.127  14.054  0.00  0.00    +0.000 HD
ENDBRANCH  16  24
ENDBRANCH  15  18
ENDBRANCH   1  15
TORSDOF 5
ENDMDL
MODEL 2
REMARK VINA RESULT:      -8.3      0.540      1.228
REMARK  Name = 
REMARK  8 active torsions:
REMARK  status: ('A' for Active; 'I' for Inactive)
REMARK    1  A    between atoms: C_1  and  N_2
REMARK    2  A    between atoms: C_3  and  C_5
REMARK    3  A    between atoms: C_7  and  O_8
REMARK    4  A    between atoms: O_8  and  C_9
REMARK    5  A    between atoms: C_12  and  C_13
REMARK    6  A    between atoms: C_16  and  C_17
REMARK    7  A    between atoms: C_17  and  C_18
REMARK    8  A    between atoms: C_17  and  C_19
REMARK                            x       y       z     vdW  Elec       q    Type
REMARK                         _______ _______ _______ _____ _____    ______ ____
ROOT
ATOM      1  C   UNL     1       3.169   5.394  18.778  0.00  0.00    +0.000 A 
ATOM      2  C   UNL     1       3.077   6.614  18.100  0.00  0.00    +0.000 A 
ATOM      3  C   UNL     1       2.454   7.701  18.713  0.00  0.00    +0.000 A 
ATOM      4  C   UNL     1       1.901   7.573  19.995  0.00  0.00    +0.000 A 
ATOM      5  C   UNL     1       2.028   6.354  20.677  0.00  0.00    +0.000 A 
ATOM      6  C   UNL     1       2.636   5.275  20.063  0.00  0.00    +0.000 A 
ENDROOT
BRANCH   4   7
ATOM      7  C   UNL     1       1.170   8.671  20.603  0.00  0.00    +0.000 A 
ATOM      8  N   UNL     1       1.014   8.817  21.930  0.00  0.00    +0.000 NA
ATOM      9  O   UNL     1       0.268   9.987  22.051  0.00  0.00    +0.000 OA
ATOM     10  C   UNL     1       0.046  10.431  20.779  0.00  0.00    +0.000 A 
ATOM     11  N   UNL     1       0.589   9.679  19.861  0.00  0.00    +0.000 NA
BRANCH  10  12
ATOM     12  C   UNL     1      -0.795  11.654  20.650  0.00  0.00    +0.000 C 
ATOM     13  C   UNL     1       0.032  12.917  20.882  0.00  0.00    +0.000 C 
ATOM     14  C   UNL     1      -1.468  11.702  19.278  0.00  0.00    +0.000 C 
ENDBRANCH  10  12
ENDBRANCH   4   7
BRANCH   1  15
ATOM     15  O   UNL     1       3.751   4.343  18.113  0.00  0.00    +0.000 OA
BRANCH  15  18
ATOM     16  C   UNL     1       6.587   4.619  15.780  0.00  0.00    +0.000 A 
ATOM     17  C   UNL     1       5.277   4.474  16.194  0.00  0.00    +0.000 A 
ATOM     18  C   UNL     1       5.001   4.507  17.562  0.00  0.00    +0.000 A 
ATOM     19  C   UNL     1       6.052   4.657  18.459  0.00  0.00    +0.000 A 
ATOM     20  C   UNL     1       7.329   4.791  17.954  0.00  0.00    +0.000 A 
ATOM     21  N   UNL     1       7.636   4.776  16.636  0.00  0.00    +0.000 NA
BRANCH  16  24
ATOM     22  C   UNL     1       6.514   3.490  12.159  0.00  0.00    +0.000 C 
ATOM     23  N   UNL     1       6.271   3.629  13.564  0.00  0.00    +0.000 N 
ATOM     24  C   UNL     1       6.926   4.574  14.316  0.00  0.00    +0.000 C 
ATOM     25  O   UNL     1       7.743   5.368  13.841  0.00  0.00    +0.000 OA
ATOM     26  H   UNL     1       5.494   3.129  13.999  0.00  0.00    +0.000 HD
ENDBRANCH  16  24
ENDBRANCH  15  18
ENDBRANCH   1  15
TORSDOF 5
ENDMDL
MODEL 3
REMARK VINA RESULT:      -8.2      0.973      1.173
REMARK  Name = 
REMARK  8 active torsions:
REMARK  status: ('A' for Active; 'I' for Inactive)
REMARK    1  A    between atoms: C_1  and  N_2
REMARK    2  A    between atoms: C_3  and  C_5
REMARK    3  A    between atoms: C_7  and  O_8
REMARK    4  A    between atoms: O_8  and  C_9
REMARK    5  A    between atoms: C_12  and  C_13
REMARK    6  A    between atoms: C_16  and  C_17
REMARK    7  A    between atoms: C_17  and  C_18
REMARK    8  A    between atoms: C_17  and  C_19
REMARK                            x       y       z     vdW  Elec       q    Type
REMARK                         _______ _______ _______ _____ _____    ______ ____
ROOT
ATOM      1  C   UNL     1       3.236   5.865  18.694  0.00  0.00    +0.000 A 
ATOM      2  C   UNL     1       2.527   5.956  19.897  0.00  0.00    +0.000 A 
ATOM      3  C   UNL     1       1.819   7.119  20.195  0.00  0.00    +0.000 A 
ATOM      4  C   UNL     1       1.828   8.205  19.308  0.00  0.00    +0.000 A 
ATOM      5  C   UNL     1       2.516   8.089  18.091  0.00  0.00    +0.000 A 
ATOM      6  C   UNL     1       3.227   6.940  17.803  0.00  0.00    +0.000 A 
ENDROOT
BRANCH   4   7
ATOM      7  C   UNL     1       1.169   9.453  19.652  0.00  0.00    +0.000 A 
ATOM      8  N   UNL     1       1.268  10.574  18.917  0.00  0.00    +0.000 NA
ATOM      9  O   UNL     1       0.484  11.495  19.607  0.00  0.00    +0.000 OA
ATOM     10  C   UNL     1      -0.011  10.836  20.696  0.00  0.00    +0.000 A 
ATOM     11  N   UNL     1       0.359   9.585  20.762  0.00  0.00    +0.000 NA
BRANCH  10  12
ATOM     12  C   UNL     1      -0.842  11.645  21.631  0.00  0.00    +0.000 C 
ATOM     13  C   UNL     1      -1.060  10.907  22.950  0.00  0.00    +0.000 C 
ATOM     14  C   UNL     1      -0.197  13.008  21.882  0.00  0.00    +0.000 C 
ENDBRANCH  10  12
ENDBRANCH   4   7
BRANCH   1  15
ATOM     15  O   UNL     1       3.955   4.716  18.469  0.00  0.00    +0.000 OA
BRANCH  15  18
ATOM     16  C   UNL     1       6.635   4.766  15.945  0.00  0.00    +0.000 A 
ATOM     17  C   UNL     1       5.350   4.701  16.450  0.00  0.00    +0.000 A 
ATOM     18  C   UNL     1       5.170   4.799  17.831  0.00  0.00    +0.000 A 
ATOM     19  C   UNL     1       6.286   4.931  18.650  0.00  0.00    +0.000 A 
ATOM     20  C   UNL     1       7.530   4.984  18.056  0.00  0.00    +0.000 A 
ATOM     21  N   UNL     1       7.745   4.904  16.722  0.00  0.00    +0.000 NA
BRANCH  16  24
ATOM     22  C   UNL     1       6.339   3.438  12.403  0.00  0.00    +0.000 C 
ATOM     23  N   UNL     1       6.192   3.648  13.813  0.00  0.00    +0.000 N 
ATOM     24  C   UNL     1       6.871   4.649  14.465  0.00  0.00    +0.000 C 
ATOM     25  O   UNL     1       7.628   5.436  13.891  0.00  0.00    +0.000 OA
ATOM     26  H   UNL     1       5.462   3.154  14.328  0.00  0.00    +0.000 HD
ENDBRANCH  16  24
ENDBRANCH  15  18
ENDBRANCH   1  15
TORSDOF 5
ENDMDL
MODEL 4
REMARK VINA RESULT:      -8.1      1.103      1.765
REMARK  Name = 
REMARK  8 active torsions:
REMARK  status: ('A' for Active; 'I' for Inactive)
REMARK    1  A    between atoms: C_1  and  N_2
REMARK    2  A    between atoms: C_3  and  C_5
REMARK    3  A    between atoms: C_7  and  O_8
REMARK    4  A    between atoms: O_8  and  C_9
REMARK    5  A    between atoms: C_12  and  C_13
REMARK    6  A    between atoms: C_16  and  C_17
REMARK    7  A    between atoms: C_17  and  C_18
REMARK    8  A    between atoms: C_17  and  C_19
REMARK                            x       y       z     vdW  Elec       q    Type
REMARK                         _______ _______ _______ _____ _____    ______ ____
ROOT
ATOM      1  C   UNL     1       2.983   6.238  18.535  0.00  0.00    +0.000 A 
ATOM      2  C   UNL     1       2.922   7.291  17.616  0.00  0.00    +0.000 A 
ATOM      3  C   UNL     1       2.321   8.495  17.981  0.00  0.00    +0.000 A 
ATOM      4  C   UNL     1       1.759   8.650  19.256  0.00  0.00    +0.000 A 
ATOM      5  C   UNL     1       1.854   7.598  20.179  0.00  0.00    +0.000 A 
ATOM      6  C   UNL     1       2.440   6.402  19.811  0.00  0.00    +0.000 A 
ENDROOT
BRANCH   4   7
ATOM      7  C   UNL     1       1.050   9.866  19.614  0.00  0.00    +0.000 A 
ATOM      8  N   UNL     1       1.012  10.962  18.836  0.00  0.00    +0.000 NA
ATOM      9  O   UNL     1       0.229  11.858  19.561  0.00  0.00    +0.000 OA
ATOM     10  C   UNL     1      -0.127  11.211  20.709  0.00  0.00    +0.000 A 
ATOM     11  N   UNL     1       0.329   9.990  20.785  0.00  0.00    +0.000 NA
BRANCH  10  12
ATOM     12  C   UNL     1      -0.928  12.002  21.686  0.00  0.00    +0.000 C 
ATOM     13  C   UNL     1      -2.219  12.513  21.051  0.00  0.00    +0.000 C 
ATOM     14  C   UNL     1      -1.238  11.166  22.929  0.00  0.00    +0.000 C 
ENDBRANCH  10  12
ENDBRANCH   4   7
BRANCH   1  15
ATOM     15  O   UNL     1       3.544   5.059  18.109  0.00  0.00    +0.000 OA
BRANCH  15  18
ATOM     16  C   UNL     1       6.488   4.909  15.902  0.00  0.00    +0.000 A 
ATOM     17  C   UNL     1       5.153   4.916  16.261  0.00  0.00    +0.000 A 
ATOM     18  C   UNL     1       4.825   5.068  17.610  0.00  0.00    +0.000 A 
ATOM     19  C   UNL     1       5.848   5.178  18.545  0.00  0.00    +0.000 A 
ATOM     20  C   UNL     1       7.152   5.158  18.094  0.00  0.00    +0.000 A 
ATOM     21  N   UNL     1       7.510   5.025  16.795  0.00  0.00    +0.000 NA
BRANCH  16  24
ATOM     22  C   UNL     1       6.472   3.533  12.367  0.00  0.00    +0.000 C 
ATOM     23  N   UNL     1       6.184   3.790  13.747  0.00  0.00    +0.000 N 
ATOM     24  C   UNL     1       6.881   4.733  14.462  0.00  0.00    +0.000 C 
ATOM     25  O   UNL     1       7.777   5.426  13.972  0.00  0.00    +0.000 OA
ATOM     26  H   UNL     1       5.352   3.384  14.178  0.00  0.00    +0.000 HD
ENDBRANCH  16  24
ENDBRANCH  15  18
ENDBRANCH   1  15
TORSDOF 5
ENDMDL
MODEL 5
REMARK VINA RESULT:      -8.0      1.475      1.962
REMARK  Name = 
REMARK  8 active torsions:
REMARK  status: ('A' for Active; 'I' for Inactive)
REMARK    1  A    between atoms: C_1  and  N_2
REMARK    2  A    between atoms: C_3  and  C_5
REMARK    3  A    between atoms: C_7  and  O_8
REMARK    4  A    between atoms: O_8  and  C_9
REMARK    5  A    between atoms: C_12  and  C_13
REMARK    6  A    between atoms: C_16  and  C_17
REMARK    7  A    between atoms: C_17  and  C_18
REMARK    8  A    between atoms: C_17  and  C_19
REMARK                            x       y       z     vdW  Elec       q    Type
REMARK                         _______ _______ _______ _____ _____    ______ ____
ROOT
ATOM      1  C   UNL     1       2.951   6.241  18.792  0.00  0.00    +0.000 A 
ATOM      2  C   UNL     1       2.823   7.216  17.796  0.00  0.00    +0.000 A 
ATOM      3  C   UNL     1       2.140   8.400  18.071  0.00  0.00    +0.000 A 
ATOM      4  C   UNL     1       1.561   8.611  19.330  0.00  0.00    +0.000 A 
ATOM      5  C   UNL     1       1.723   7.640  20.329  0.00  0.00    +0.000 A 
ATOM      6  C   UNL     1       2.391   6.463  20.052  0.00  0.00    +0.000 A 
ENDROOT
BRANCH   4   7
ATOM      7  C   UNL     1       0.769   9.800  19.596  0.00  0.00    +0.000 A 
ATOM      8  N   UNL     1       0.972  10.608  20.650  0.00  0.00    +0.000 NA
ATOM      9  O   UNL     1       0.006  11.600  20.499  0.00  0.00    +0.000 OA
ATOM     10  C   UNL     1      -0.687  11.289  19.365  0.00  0.00    +0.000 A 
ATOM     11  N   UNL     1      -0.252  10.214  18.765  0.00  0.00    +0.000 NA
BRANCH  10  12
ATOM     12  C   UNL     1      -1.828  12.185  19.026  0.00  0.00    +0.000 C 
ATOM     13  C   UNL     1      -2.809  11.494  18.082  0.00  0.00    +0.000 C 
ATOM     14  C   UNL     1      -2.545  12.647  20.295  0.00  0.00    +0.000 C 
ENDBRANCH  10  12
ENDBRANCH   4   7
BRANCH   1  15
ATOM     15  O   UNL     1       3.593   5.075  18.456  0.00  0.00    +0.000 OA
BRANCH  15  18
ATOM     16  C   UNL     1       6.491   4.998  16.186  0.00  0.00    +0.000 A 
ATOM     17  C   UNL     1       5.167   4.944  16.577  0.00  0.00    +0.000 A 
ATOM     18  C   UNL     1       4.860   5.136  17.925  0.00  0.00    +0.000 A 
ATOM     19  C   UNL     1       5.895   5.348  18.829  0.00  0.00    +0.000 A 
ATOM     20  C   UNL     1       7.187   5.383  18.347  0.00  0.00    +0.000 A 
ATOM     21  N   UNL     1       7.524   5.213  17.047  0.00  0.00    +0.000 NA
BRANCH  16  24
ATOM     22  C   UNL     1       6.356   3.593  12.664  0.00  0.00    +0.000 C 
ATOM     23  N   UNL     1       6.095   3.883  14.043  0.00  0.00    +0.000 N 
ATOM     24  C   UNL     1       6.862   4.781  14.745  0.00  0.00    +0.000 C 
ATOM     25  O   UNL     1       7.803   5.404  14.243  0.00  0.00    +0.000 OA
ATOM     26  H   UNL     1       5.240   3.542  14.483  0.00  0.00    +0.000 HD
ENDBRANCH  16  24
ENDBRANCH  15  18
ENDBRANCH   1  15
TORSDOF 5
ENDMDL
MODEL 6
REMARK VINA RESULT:      -8.0      1.376      1.619
REMARK  Name = 
REMARK  8 active torsions:
REMARK  status: ('A' for Active; 'I' for Inactive)
REMARK    1  A    between atoms: C_1  and  N_2
REMARK    2  A    between atoms: C_3  and  C_5
REMARK    3  A    between atoms: C_7  and  O_8
REMARK    4  A    between atoms: O_8  and  C_9
REMARK    5  A    between atoms: C_12  and  C_13
REMARK    6  A    between atoms: C_16  and  C_17
REMARK    7  A    between atoms: C_17  and  C_18
REMARK    8  A    between atoms: C_17  and  C_19
REMARK                            x       y       z     vdW  Elec       q    Type
REMARK                         _______ _______ _______ _____ _____    ______ ____
ROOT
ATOM      1  C   UNL     1       3.316   5.900  18.527  0.00  0.00    +0.000 A 
ATOM      2  C   UNL     1       2.618   6.078  19.727  0.00  0.00    +0.000 A 
ATOM      3  C   UNL     1       1.943   7.275  19.962  0.00  0.00    +0.000 A 
ATOM      4  C   UNL     1       1.974   8.308  19.015  0.00  0.00    +0.000 A 
ATOM      5  C   UNL     1       2.650   8.104  17.802  0.00  0.00    +0.000 A 
ATOM      6  C   UNL     1       3.328   6.922  17.576  0.00  0.00    +0.000 A 
ENDROOT
BRANCH   4   7
ATOM      7  C   UNL     1       1.350   9.590  19.290  0.00  0.00    +0.000 A 
ATOM      8  N   UNL     1       0.558   9.820  20.351  0.00  0.00    +0.000 NA
ATOM      9  O   UNL     1       0.201  11.159  20.216  0.00  0.00    +0.000 OA
ATOM     10  C   UNL     1       0.814  11.606  19.082  0.00  0.00    +0.000 A 
ATOM     11  N   UNL     1       1.542  10.698  18.489  0.00  0.00    +0.000 NA
BRANCH  10  12
ATOM     12  C   UNL     1       0.528  13.015  18.692  0.00  0.00    +0.000 C 
ATOM     13  C   UNL     1      -0.352  13.705  19.732  0.00  0.00    +0.000 C 
ATOM     14  C   UNL     1       1.828  13.793  18.492  0.00  0.00    +0.000 C 
ENDBRANCH  10  12
ENDBRANCH   4   7
BRANCH   1  15
ATOM     15  O   UNL     1       4.002   4.721  18.364  0.00  0.00    +0.000 OA
BRANCH  15  18
ATOM     16  C   UNL     1       6.700   4.665  15.859  0.00  0.00    +0.000 A 
ATOM     17  C   UNL     1       5.410   4.675  16.354  0.00  0.00    +0.000 A 
ATOM     18  C   UNL     1       5.225   4.738  17.737  0.00  0.00    +0.000 A 
ATOM     19  C   UNL     1       6.341   4.762  18.566  0.00  0.00    +0.000 A 
ATOM     20  C   UNL     1       7.591   4.747  17.982  0.00  0.00    +0.000 A 
ATOM     21  N   UNL     1       7.811   4.697  16.648  0.00  0.00    +0.000 NA
BRANCH  16  24
ATOM     22  C   UNL     1       6.397   3.433  12.284  0.00  0.00    +0.000 C 
ATOM     23  N   UNL     1       6.248   3.609  13.698  0.00  0.00    +0.000 N 
ATOM     24  C   UNL     1       6.940   4.582  14.378  0.00  0.00    +0.000 C 
ATOM     25  O   UNL     1       7.712   5.372  13.826  0.00  0.00    +0.000 OA
ATOM     26  H   UNL     1       5.509   3.113  14.198  0.00  0.00    +0.000 HD
ENDBRANCH  16  24
ENDBRANCH  15  18
ENDBRANCH   1  15
TORSDOF 5
ENDMDL
MODEL 7
REMARK VINA RESULT:      -7.9      3.127      8.945
REMARK  Name = 
REMARK  8 active torsions:
REMARK  status: ('A' for Active; 'I' for Inactive)
REMARK    1  A    between atoms: C_1  and  N_2
REMARK    2  A    between atoms: C_3  and  C_5
REMARK    3  A    between atoms: C_7  and  O_8
REMARK    4  A    between atoms: O_8  and  C_9
REMARK    5  A    between atoms: C_12  and  C_13
REMARK    6  A    between atoms: C_16  and  C_17
REMARK    7  A    between atoms: C_17  and  C_18
REMARK    8  A    between atoms: C_17  and  C_19
REMARK                            x       y       z     vdW  Elec       q    Type
REMARK                         _______ _______ _______ _____ _____    ______ ____
ROOT
ATOM      1  C   UNL     1       1.463   8.765  19.708  0.00  0.00    +0.000 A 
ATOM      2  C   UNL     1       1.693   7.578  20.412  0.00  0.00    +0.000 A 
ATOM      3  C   UNL     1       2.383   6.533  19.799  0.00  0.00    +0.000 A 
ATOM      4  C   UNL     1       2.832   6.656  18.477  0.00  0.00    +0.000 A 
ATOM      5  C   UNL     1       2.624   7.863  17.793  0.00  0.00    +0.000 A 
ATOM      6  C   UNL     1       1.929   8.893  18.398  0.00  0.00    +0.000 A 
ENDROOT
BRANCH   4   7
ATOM      7  C   UNL     1       3.471   5.541  17.800  0.00  0.00    +0.000 A 
ATOM      8  N   UNL     1       3.080   4.263  17.941  0.00  0.00    +0.000 NA
ATOM      9  O   UNL     1       3.955   3.555  17.120  0.00  0.00    +0.000 OA
ATOM     10  C   UNL     1       4.791   4.480  16.565  0.00  0.00    +0.000 A 
ATOM     11  N   UNL     1       4.529   5.706  16.929  0.00  0.00    +0.000 NA
BRANCH  10  12
ATOM     12  C   UNL     1       5.867   3.947  15.683  0.00  0.00    +0.000 C 
ATOM     13  C   UNL     1       5.569   4.240  14.214  0.00  0.00    +0.000 C 
ATOM     14  C   UNL     1       7.225   4.528  16.079  0.00  0.00    +0.000 C 
ENDBRANCH  10  12
ENDBRANCH   4   7
BRANCH   1  15
ATOM     15  O   UNL     1       0.738   9.745  20.341  0.00  0.00    +0.000 OA
BRANCH  15  18
ATOM     16  C   UNL     1      -1.496  11.509  18.005  0.00  0.00    +0.000 A 
ATOM     17  C   UNL     1      -0.975  10.456  18.734  0.00  0.00    +0.000 A 
ATOM     18  C   UNL     1       0.103  10.702  19.586  0.00  0.00    +0.000 A 
ATOM     19  C   UNL     1       0.630  11.987  19.653  0.00  0.00    +0.000 A 
ATOM     20  C   UNL     1       0.046  12.975  18.887  0.00  0.00    +0.000 A 
ATOM     21  N   UNL     1      -1.006  12.779  18.058  0.00  0.00    +0.000 NA
BRANCH  16  24
ATOM     22  C   UNL     1      -3.359  10.446  14.876  0.00  0.00    +0.000 C 
ATOM     23  N   UNL     1      -2.345  10.709  15.854  0.00  0.00    +0.000 N 
ATOM     24  C   UNL     1      -2.647  11.280  17.066  0.00  0.00    +0.000 C 
ATOM     25  O   UNL     1      -3.795  11.585  17.401  0.00  0.00    +0.000 OA
ATOM     26  H   UNL     1      -1.404  10.335  15.725  0.00  0.00    +0.000 HD
ENDBRANCH  16  24
ENDBRANCH  15  18
ENDBRANCH   1  15
TORSDOF 5
ENDMDL
MODEL 8
REMARK VINA RESULT:      -7.9      1.967      2.978
REMARK  Name = 
REMARK  8 active torsions:
REMARK  status: ('A' for Active; 'I' for Inactive)
REMARK    1  A    between atoms: C_1  and  N_2
REMARK    2  A    between atoms: C_3  and  C_5
REMARK    3  A    between atoms: C_7  and  O_8
REMARK    4  A    between atoms: O_8  and  C_9
REMARK    5  A    between atoms: C_12  and  C_13
REMARK    6  A    between atoms: C_16  and  C_17
REMARK    7  A    between atoms: C_17  and  C_18
REMARK    8  A    between atoms: C_17  and  C_19
REMARK                            x       y       z     vdW  Elec       q    Type
REMARK                         _______ _______ _______ _____ _____    ______ ____
ROOT
ATOM      1  C   UNL     1       2.710   6.284  18.275  0.00  0.00    +0.000 A 
ATOM      2  C   UNL     1       2.458   5.872  19.588  0.00  0.00    +0.000 A 
ATOM      3  C   UNL     1       1.883   6.762  20.494  0.00  0.00    +0.000 A 
ATOM      4  C   UNL     1       1.574   8.073  20.104  0.00  0.00    +0.000 A 
ATOM      5  C   UNL     1       1.802   8.463  18.776  0.00  0.00    +0.000 A 
ATOM      6  C   UNL     1       2.383   7.583  17.883  0.00  0.00    +0.000 A 
ENDROOT
BRANCH   4   7
ATOM      7  C   UNL     1       1.061   9.034  21.064  0.00  0.00    +0.000 A 
ATOM      8  N   UNL     1       1.304   8.969  22.385  0.00  0.00    +0.000 NA
ATOM      9  O   UNL     1       0.633  10.075  22.901  0.00  0.00    +0.000 OA
ATOM     10  C   UNL     1       0.048  10.698  21.837  0.00  0.00    +0.000 A 
ATOM     11  N   UNL     1       0.292  10.118  20.693  0.00  0.00    +0.000 NA
BRANCH  10  12
ATOM     12  C   UNL     1      -0.787  11.891  22.153  0.00  0.00    +0.000 C 
ATOM     13  C   UNL     1      -1.460  12.439  20.896  0.00  0.00    +0.000 C 
ATOM     14  C   UNL     1      -1.834  11.549  23.213  0.00  0.00    +0.000 C 
ENDBRANCH  10  12
ENDBRANCH   4   7
BRANCH   1  15
ATOM     15  O   UNL     1       3.320   5.383  17.436  0.00  0.00    +0.000 OA
BRANCH  15  18
ATOM     16  C   UNL     1       6.814   6.540  17.312  0.00  0.00    +0.000 A 
ATOM     17  C   UNL     1       5.511   6.441  17.762  0.00  0.00    +0.000 A 
ATOM     18  C   UNL     1       4.646   5.556  17.116  0.00  0.00    +0.000 A 
ATOM     19  C   UNL     1       5.115   4.827  16.029  0.00  0.00    +0.000 A 
ATOM     20  C   UNL     1       6.431   4.993  15.648  0.00  0.00    +0.000 A 
ATOM     21  N   UNL     1       7.303   5.831  16.256  0.00  0.00    +0.000 NA
BRANCH  16  24
ATOM     22  C   UNL     1       8.631   9.784  18.066  0.00  0.00    +0.000 C 
ATOM     23  N   UNL     1       7.761   8.788  17.514  0.00  0.00    +0.000 N 
ATOM     24  C   UNL     1       7.771   7.493  17.972  0.00  0.00    +0.000 C 
ATOM     25  O   UNL     1       8.504   7.105  18.887  0.00  0.00    +0.000 OA
ATOM     26  H   UNL     1       7.011   9.062  16.877  0.00  0.00    +0.000 HD
ENDBRANCH  16  24
ENDBRANCH  15  18
ENDBRANCH   1  15
TORSDOF 5
ENDMDL
MODEL 9
REMARK VINA RESULT:      -7.8      1.320      1.984
REMARK  Name = 
REMARK  8 active torsions:
REMARK  status: ('A' for Active; 'I' for Inactive)
REMARK    1  A    between atoms: C_1  and  N_2
REMARK    2  A    between atoms: C_3  and  C_5
REMARK    3  A    between atoms: C_7  and  O_8
REMARK    4  A    between atoms: O_8  and  C_9
REMARK    5  A    between atoms: C_12  and  C_13
REMARK    6  A    between atoms: C_16  and  C_17
REMARK    7  A    between atoms: C_17  and  C_18
REMARK    8  A    between atoms: C_17  and  C_19
REMARK                            x       y       z     vdW  Elec       q    Type
REMARK                         _______ _______ _______ _____ _____    ______ ____
ROOT
ATOM      1  C   UNL     1       3.236   6.124  18.764  0.00  0.00    +0.000 A 
ATOM      2  C   UNL     1       3.241   7.038  17.705  0.00  0.00    +0.000 A 
ATOM      3  C   UNL     1       2.526   8.230  17.816  0.00  0.00    +0.000 A 
ATOM      4  C   UNL     1       1.786   8.509  18.974  0.00  0.00    +0.000 A 
ATOM      5  C   UNL     1       1.815   7.599  20.041  0.00  0.00    +0.000 A 
ATOM      6  C   UNL     1       2.514   6.414  19.924  0.00  0.00    +0.000 A 
ENDROOT
BRANCH   4   7
ATOM      7  C   UNL     1       0.965   9.704  19.063  0.00  0.00    +0.000 A 
ATOM      8  N   UNL     1       0.006  10.016  18.174  0.00  0.00    +0.000 NA
ATOM      9  O   UNL     1      -0.513  11.217  18.651  0.00  0.00    +0.000 OA
ATOM     10  C   UNL     1       0.189  11.512  19.784  0.00  0.00    +0.000 A 
ATOM     11  N   UNL     1       1.087  10.616  20.092  0.00  0.00    +0.000 NA
BRANCH  10  12
ATOM     12  C   UNL     1      -0.151  12.802  20.449  0.00  0.00    +0.000 C 
ATOM     13  C   UNL     1      -0.198  13.945  19.438  0.00  0.00    +0.000 C 
ATOM     14  C   UNL     1      -1.484  12.690  21.191  0.00  0.00    +0.000 C 
ENDBRANCH  10  12
ENDBRANCH   4   7
BRANCH   1  15
ATOM     15  O   UNL     1       3.918   4.945  18.585  0.00  0.00    +0.000 OA
BRANCH  15  18
ATOM     16  C   UNL     1       6.636   4.836  16.103  0.00  0.00    +0.000 A 
ATOM     17  C   UNL     1       5.342   4.831  16.589  0.00  0.00    +0.000 A 
ATOM     18  C   UNL     1       5.145   4.968  17.964  0.00  0.00    +0.000 A 
ATOM     19  C   UNL     1       6.252   5.078  18.797  0.00  0.00    +0.000 A 
ATOM     20  C   UNL     1       7.506   5.071  18.222  0.00  0.00    +0.000 A 
ATOM     21  N   UNL     1       7.738   4.952  16.894  0.00  0.00    +0.000 NA
BRANCH  16  24
ATOM     22  C   UNL     1       6.316   3.463  12.580  0.00  0.00    +0.000 C 
ATOM     23  N   UNL     1       6.158   3.709  13.983  0.00  0.00    +0.000 N 
ATOM     24  C   UNL     1       6.889   4.677  14.630  0.00  0.00    +0.000 C 
ATOM     25  O   UNL     1       7.706   5.402  14.055  0.00  0.00    +0.000 OA
ATOM     26  H   UNL     1       5.389   3.273  14.494  0.00  0.00    +0.000 HD
ENDBRANCH  16  24
ENDBRANCH  15  18
ENDBRANCH   1  15
TORSDOF 5
ENDMDL
