MODEL 1
REMARK VINA RESULT:      -7.7      0.000      0.000
REMARK  Name = 
REMARK  9 active torsions:
REMARK  status: ('A' for Active; 'I' for Inactive)
REMARK    1  A    between atoms: C_2  and  CA_9
REMARK    2  A    between atoms: N_3  and  CA_4
REMARK    3  A    between atoms: CA_4  and  CB_5
REMARK    4  A    between atoms: CA_4  and  C_7
REMARK    5  A    between atoms: CB_5  and  O_6
REMARK    6  A    between atoms: C_7  and  O_8
REMARK    7  A    between atoms: C_11  and  C_12
REMARK    8  A    between atoms: C_12  and  C_13
REMARK    9  A    between atoms: C_13  and  C_14
REMARK                            x       y       z     vdW  Elec       q    Type
REMARK                         _______ _______ _______ _____ _____    ______ ____
ROOT
ATOM      1  CA  UNL     1       7.128   4.803  15.701  0.00  0.00    +0.000 C 
ATOM      2  C   UNL     1       5.871   4.191  16.312  0.00  0.00    +0.000 C 
ATOM      3  C   UNL     1       5.848   4.266  17.845  0.00  0.00    +0.000 C 
ATOM      4  C   UNL     1       6.176   5.696  18.300  0.00  0.00    +0.000 C 
ATOM      5  C   UNL     1       7.433   6.238  17.621  0.00  0.00    +0.000 C 
ATOM      6  N   UNL     1       7.318   6.202  16.158  0.00  0.00    +0.000 NA
ATOM      7  H   UNL     1       8.199   6.539  15.765  0.00  0.00    +0.000 HD
ENDROOT
BRANCH   1   9
ATOM      8  O   UNL     1       7.595   5.484  13.415  0.00  0.00    +0.000 OA
ATOM      9  C   UNL     1       6.961   4.751  14.171  0.00  0.00    +0.000 C 
ATOM     10  N   UNL     1       6.146   3.745  13.702  0.00  0.00    +0.000 N 
ATOM     11  H   UNL     1       5.823   3.080  14.403  0.00  0.00    +0.000 HD
BRANCH  10  12
ATOM     12  CA  UNL     1       5.952   3.497  12.265  0.00  0.00    +0.000 C 
BRANCH  12  13
ATOM     13  CB  UNL     1       6.882   2.390  11.724  0.00  0.00    +0.000 C 
BRANCH  13  14
ATOM     14  O   UNL     1       6.185   1.235  11.273  0.00  0.00    +0.000 OA
ATOM     15  H   UNL     1       5.827   0.761  12.047  0.00  0.00    +0.000 HD
ENDBRANCH  13  14
ENDBRANCH  12  13
BRANCH  12  16
ATOM     16  C   UNL     1       4.486   3.134  11.988  0.00  0.00    +0.000 C 
BRANCH  16  17
ATOM     17  O   UNL     1       4.041   3.705  10.762  0.00  0.00    +0.000 OA
ATOM     18  H   UNL     1       4.455   4.583  10.694  0.00  0.00    +0.000 HD
ENDBRANCH  16  17
ENDBRANCH  12  16
ENDBRANCH  10  12
ENDBRANCH   1   9
BRANCH   3  19
ATOM     19  C   UNL     1       4.480   3.827  18.408  0.00  0.00    +0.000 C 
BRANCH  19  20
ATOM     20  C   UNL     1       3.936   4.806  19.455  0.00  0.00    +0.000 C 
BRANCH  20  21
ATOM     21  C   UNL     1       2.504   5.313  19.187  0.00  0.00    +0.000 C 
ATOM     22  C   UNL     1       1.803   4.592  18.022  0.00  0.00    +0.000 C 
ATOM     23  C   UNL     1       1.469   3.132  18.335  0.00  0.00    +0.000 C 
ATOM     24  C   UNL     1       0.676   2.993  19.630  0.00  0.00    +0.000 C 
ATOM     25  C   UNL     1       1.342   3.708  20.801  0.00  0.00    +0.000 C 
ATOM     26  C   UNL     1       1.652   5.167  20.465  0.00  0.00    +0.000 C 
ENDBRANCH  20  21
ENDBRANCH  19  20
ENDBRANCH   3  19
TORSDOF 9
ENDMDL
MODEL 2
REMARK VINA RESULT:      -7.7      1.061      1.506
REMARK  Name = 
REMARK  9 active torsions:
REMARK  status: ('A' for Active; 'I' for Inactive)
REMARK    1  A    between atoms: C_2  and  CA_9
REMARK    2  A    between atoms: N_3  and  CA_4
REMARK    3  A    between atoms: CA_4  and  CB_5
REMARK    4  A    between atoms: CA_4  and  C_7
REMARK    5  A    between atoms: CB_5  and  O_6
REMARK    6  A    between atoms: C_7  and  O_8
REMARK    7  A    between atoms: C_11  and  C_12
REMARK    8  A    between atoms: C_12  and  C_13
REMARK    9  A    between atoms: C_13  and  C_14
REMARK                            x       y       z     vdW  Elec       q    Type
REMARK                         _______ _______ _______ _____ _____    ______ ____
ROOT
ATOM      1  CA  UNL     1       6.501   4.204  15.676  0.00  0.00    +0.000 C 
ATOM      2  C   UNL     1       5.235   4.928  16.125  0.00  0.00    +0.000 C 
ATOM      3  C   UNL     1       5.064   4.955  17.649  0.00  0.00    +0.000 C 
ATOM      4  C   UNL     1       6.368   5.430  18.310  0.00  0.00    +0.000 C 
ATOM      5  C   UNL     1       7.585   4.670  17.785  0.00  0.00    +0.000 C 
ATOM      6  N   UNL     1       7.704   4.779  16.326  0.00  0.00    +0.000 NA
ATOM      7  H   UNL     1       8.510   4.222  16.034  0.00  0.00    +0.000 HD
ENDROOT
BRANCH   1   9
ATOM      8  O   UNL     1       7.280   5.211  13.606  0.00  0.00    +0.000 OA
ATOM      9  C   UNL     1       6.589   4.350  14.145  0.00  0.00    +0.000 C 
ATOM     10  N   UNL     1       5.942   3.373  13.423  0.00  0.00    +0.000 N 
ATOM     11  H   UNL     1       5.561   2.603  13.970  0.00  0.00    +0.000 HD
BRANCH  10  12
ATOM     12  CA  UNL     1       6.004   3.310  11.954  0.00  0.00    +0.000 C 
BRANCH  12  13
ATOM     13  CB  UNL     1       7.155   2.415  11.448  0.00  0.00    +0.000 C 
BRANCH  13  14
ATOM     14  O   UNL     1       6.772   1.060  11.245  0.00  0.00    +0.000 OA
ATOM     15  H   UNL     1       6.615   0.918  10.292  0.00  0.00    +0.000 HD
ENDBRANCH  13  14
ENDBRANCH  12  13
BRANCH  12  16
ATOM     16  C   UNL     1       4.665   2.813  11.393  0.00  0.00    +0.000 C 
BRANCH  16  17
ATOM     17  O   UNL     1       3.929   3.881  10.803  0.00  0.00    +0.000 OA
ATOM     18  H   UNL     1       3.095   3.501  10.478  0.00  0.00    +0.000 HD
ENDBRANCH  16  17
ENDBRANCH  12  16
ENDBRANCH  10  12
ENDBRANCH   1   9
BRANCH   3  19
ATOM     19  C   UNL     1       3.891   5.867  18.067  0.00  0.00    +0.000 C 
BRANCH  19  20
ATOM     20  C   UNL     1       2.963   5.197  19.087  0.00  0.00    +0.000 C 
BRANCH  20  21
ATOM     21  C   UNL     1       2.814   3.670  18.925  0.00  0.00    +0.000 C 
ATOM     22  C   UNL     1       3.488   2.863  20.048  0.00  0.00    +0.000 C 
ATOM     23  C   UNL     1       2.787   3.014  21.399  0.00  0.00    +0.000 C 
ATOM     24  C   UNL     1       1.297   2.699  21.308  0.00  0.00    +0.000 C 
ATOM     25  C   UNL     1       0.604   3.478  20.195  0.00  0.00    +0.000 C 
ATOM     26  C   UNL     1       1.318   3.298  18.855  0.00  0.00    +0.000 C 
ENDBRANCH  20  21
ENDBRANCH  19  20
ENDBRANCH   3  19
TORSDOF 9
ENDMDL
MODEL 3
REMARK VINA RESULT:      -7.6      0.982      1.039
REMARK  Name = 
REMARK  9 active torsions:
REMARK  status: ('A' for Active; 'I' for Inactive)
REMARK    1  A    between atoms: C_2  and  CA_9
REMARK    2  A    between atoms: N_3  and  CA_4
REMARK    3  A    between atoms: CA_4  and  CB_5
REMARK    4  A    between atoms: CA_4  and  C_7
REMARK    5  A    between atoms: CB_5  and  O_6
REMARK    6  A    between atoms: C_7  and  O_8
REMARK    7  A    between atoms: C_11  and  C_12
REMARK    8  A    between atoms: C_12  and  C_13
REMARK    9  A    between atoms: C_13  and  C_14
REMARK                            x       y       z     vdW  Elec       q    Type
REMARK                         _______ _______ _______ _____ _____    ______ ____
ROOT
ATOM      1  CA  UNL     1       6.587   4.213  15.738  0.00  0.00    +0.000 C 
ATOM      2  C   UNL     1       5.329   4.967  16.159  0.00  0.00    +0.000 C 
ATOM      3  C   UNL     1       5.093   4.947  17.675  0.00  0.00    +0.000 C 
ATOM      4  C   UNL     1       6.383   5.351  18.407  0.00  0.00    +0.000 C 
ATOM      5  C   UNL     1       7.594   4.566  17.906  0.00  0.00    +0.000 C 
ATOM      6  N   UNL     1       7.781   4.721  16.458  0.00  0.00    +0.000 NA
ATOM      7  H   UNL     1       8.579   4.145  16.181  0.00  0.00    +0.000 HD
ENDROOT
BRANCH   1   9
ATOM      8  O   UNL     1       7.373   5.353  13.740  0.00  0.00    +0.000 OA
ATOM      9  C   UNL     1       6.748   4.410  14.219  0.00  0.00    +0.000 C 
ATOM     10  N   UNL     1       6.249   3.391  13.438  0.00  0.00    +0.000 N 
ATOM     11  H   UNL     1       5.921   2.571  13.945  0.00  0.00    +0.000 HD
BRANCH  10  12
ATOM     12  CA  UNL     1       6.402   3.376  11.975  0.00  0.00    +0.000 C 
BRANCH  12  13
ATOM     13  CB  UNL     1       6.927   2.023  11.449  0.00  0.00    +0.000 C 
BRANCH  13  14
ATOM     14  O   UNL     1       5.956   0.984  11.487  0.00  0.00    +0.000 OA
ATOM     15  H   UNL     1       5.499   1.013  12.348  0.00  0.00    +0.000 HD
ENDBRANCH  13  14
ENDBRANCH  12  13
BRANCH  12  16
ATOM     16  C   UNL     1       5.064   3.718  11.304  0.00  0.00    +0.000 C 
BRANCH  16  17
ATOM     17  O   UNL     1       3.996   2.975  11.885  0.00  0.00    +0.000 OA
ATOM     18  H   UNL     1       3.969   3.213  12.827  0.00  0.00    +0.000 HD
ENDBRANCH  16  17
ENDBRANCH  12  16
ENDBRANCH  10  12
ENDBRANCH   1   9
BRANCH   3  19
ATOM     19  C   UNL     1       3.935   5.885  18.076  0.00  0.00    +0.000 C 
BRANCH  19  20
ATOM     20  C   UNL     1       3.198   5.403  19.331  0.00  0.00    +0.000 C 
BRANCH  20  21
ATOM     21  C   UNL     1       1.727   4.998  19.104  0.00  0.00    +0.000 C 
ATOM     22  C   UNL     1       1.514   4.128  17.852  0.00  0.00    +0.000 C 
ATOM     23  C   UNL     1       2.114   2.728  17.986  0.00  0.00    +0.000 C 
ATOM     24  C   UNL     1       1.628   2.016  19.245  0.00  0.00    +0.000 C 
ATOM     25  C   UNL     1       1.817   2.860  20.501  0.00  0.00    +0.000 C 
ATOM     26  C   UNL     1       1.196   4.248  20.343  0.00  0.00    +0.000 C 
ENDBRANCH  20  21
ENDBRANCH  19  20
ENDBRANCH   3  19
TORSDOF 9
ENDMDL
MODEL 4
REMARK VINA RESULT:      -7.5      0.830      1.207
REMARK  Name = 
REMARK  9 active torsions:
REMARK  status: ('A' for Active; 'I' for Inactive)
REMARK    1  A    between atoms: C_2  and  CA_9
REMARK    2  A    between atoms: N_3  and  CA_4
REMARK    3  A    between atoms: CA_4  and  CB_5
REMARK    4  A    between atoms: CA_4  and  C_7
REMARK    5  A    between atoms: CB_5  and  O_6
REMARK    6  A    between atoms: C_7  and  O_8
REMARK    7  A    between atoms: C_11  and  C_12
REMARK    8  A    between atoms: C_12  and  C_13
REMARK    9  A    between atoms: C_13  and  C_14
REMARK                            x       y       z     vdW  Elec       q    Type
REMARK                         _______ _______ _______ _____ _____    ______ ____
ROOT
ATOM      1  CA  UNL     1       6.681   4.771  15.518  0.00  0.00    +0.000 C 
ATOM      2  C   UNL     1       5.215   4.824  15.937  0.00  0.00    +0.000 C 
ATOM      3  C   UNL     1       5.027   5.027  17.447  0.00  0.00    +0.000 C 
ATOM      4  C   UNL     1       5.895   6.202  17.925  0.00  0.00    +0.000 C 
ATOM      5  C   UNL     1       7.338   6.080  17.440  0.00  0.00    +0.000 C 
ATOM      6  N   UNL     1       7.412   5.977  15.977  0.00  0.00    +0.000 NA
ATOM      7  H   UNL     1       8.395   5.861  15.719  0.00  0.00    +0.000 HD
ENDROOT
BRANCH   1   9
ATOM      8  O   UNL     1       7.520   5.294  13.298  0.00  0.00    +0.000 OA
ATOM      9  C   UNL     1       6.711   4.671  13.981  0.00  0.00    +0.000 C 
ATOM     10  N   UNL     1       5.852   3.744  13.435  0.00  0.00    +0.000 N 
ATOM     11  H   UNL     1       5.364   3.151  14.105  0.00  0.00    +0.000 HD
BRANCH  10  12
ATOM     12  CA  UNL     1       5.820   3.456  11.993  0.00  0.00    +0.000 C 
BRANCH  12  13
ATOM     13  CB  UNL     1       6.809   2.343  11.589  0.00  0.00    +0.000 C 
BRANCH  13  14
ATOM     14  O   UNL     1       6.200   1.064  11.457  0.00  0.00    +0.000 OA
ATOM     15  H   UNL     1       6.690   0.424  12.008  0.00  0.00    +0.000 HD
ENDBRANCH  13  14
ENDBRANCH  12  13
BRANCH  12  16
ATOM     16  C   UNL     1       4.396   3.075  11.565  0.00  0.00    +0.000 C 
BRANCH  16  17
ATOM     17  O   UNL     1       3.873   4.017  10.633  0.00  0.00    +0.000 OA
ATOM     18  H   UNL     1       3.834   3.566   9.771  0.00  0.00    +0.000 HD
ENDBRANCH  16  17
ENDBRANCH  12  16
ENDBRANCH  10  12
ENDBRANCH   1   9
BRANCH   3  19
ATOM     19  C   UNL     1       3.545   5.280  17.799  0.00  0.00    +0.000 C 
BRANCH  19  20
ATOM     20  C   UNL     1       2.780   3.982  18.078  0.00  0.00    +0.000 C 
BRANCH  20  21
ATOM     21  C   UNL     1       1.434   4.166  18.809  0.00  0.00    +0.000 C 
ATOM     22  C   UNL     1       0.803   2.844  19.280  0.00  0.00    +0.000 C 
ATOM     23  C   UNL     1       1.584   2.176  20.413  0.00  0.00    +0.000 C 
ATOM     24  C   UNL     1       1.818   3.125  21.583  0.00  0.00    +0.000 C 
ATOM     25  C   UNL     1       2.434   4.450  21.145  0.00  0.00    +0.000 C 
ATOM     26  C   UNL     1       1.625   5.101  20.022  0.00  0.00    +0.000 C 
ENDBRANCH  20  21
ENDBRANCH  19  20
ENDBRANCH   3  19
TORSDOF 9
ENDMDL
MODEL 5
REMARK VINA RESULT:      -7.5      0.966      1.509
REMARK  Name = 
REMARK  9 active torsions:
REMARK  status: ('A' for Active; 'I' for Inactive)
REMARK    1  A    between atoms: C_2  and  CA_9
REMARK    2  A    between atoms: N_3  and  CA_4
REMARK    3  A    between atoms: CA_4  and  CB_5
REMARK    4  A    between atoms: CA_4  and  C_7
REMARK    5  A    between atoms: CB_5  and  O_6
REMARK    6  A    between atoms: C_7  and  O_8
REMARK    7  A    between atoms: C_11  and  C_12
REMARK    8  A    between atoms: C_12  and  C_13
REMARK    9  A    between atoms: C_13  and  C_14
REMARK                            x       y       z     vdW  Elec       q    Type
REMARK                         _______ _______ _______ _____ _____    ______ ____
ROOT
ATOM      1  CA  UNL     1       6.470   4.240  15.626  0.00  0.00    +0.000 C 
ATOM      2  C   UNL     1       5.318   5.132  16.079  0.00  0.00    +0.000 C 
ATOM      3  C   UNL     1       5.190   5.221  17.606  0.00  0.00    +0.000 C 
ATOM      4  C   UNL     1       6.559   5.542  18.225  0.00  0.00    +0.000 C 
ATOM      5  C   UNL     1       7.655   4.618  17.697  0.00  0.00    +0.000 C 
ATOM      6  N   UNL     1       7.752   4.673  16.233  0.00  0.00    +0.000 NA
ATOM      7  H   UNL     1       8.473   4.009  15.941  0.00  0.00    +0.000 HD
ENDROOT
BRANCH   1   9
ATOM      8  O   UNL     1       7.260   5.144  13.512  0.00  0.00    +0.000 OA
ATOM      9  C   UNL     1       6.539   4.333  14.090  0.00  0.00    +0.000 C 
ATOM     10  N   UNL     1       5.835   3.365  13.410  0.00  0.00    +0.000 N 
ATOM     11  H   UNL     1       5.428   2.631  13.988  0.00  0.00    +0.000 HD
BRANCH  10  12
ATOM     12  CA  UNL     1       5.869   3.254  11.943  0.00  0.00    +0.000 C 
BRANCH  12  13
ATOM     13  CB  UNL     1       6.943   2.261  11.450  0.00  0.00    +0.000 C 
BRANCH  13  14
ATOM     14  O   UNL     1       6.461   0.931  11.300  0.00  0.00    +0.000 OA
ATOM     15  H   UNL     1       5.635   0.953  10.780  0.00  0.00    +0.000 HD
ENDBRANCH  13  14
ENDBRANCH  12  13
BRANCH  12  16
ATOM     16  C   UNL     1       4.489   2.839  11.415  0.00  0.00    +0.000 C 
BRANCH  16  17
ATOM     17  O   UNL     1       3.895   3.889  10.657  0.00  0.00    +0.000 OA
ATOM     18  H   UNL     1       3.106   3.514  10.229  0.00  0.00    +0.000 HD
ENDBRANCH  16  17
ENDBRANCH  12  16
ENDBRANCH  10  12
ENDBRANCH   1   9
BRANCH   3  19
ATOM     19  C   UNL     1       4.153   6.287  18.021  0.00  0.00    +0.000 C 
BRANCH  19  20
ATOM     20  C   UNL     1       2.909   5.671  18.672  0.00  0.00    +0.000 C 
BRANCH  20  21
ATOM     21  C   UNL     1       3.188   4.470  19.598  0.00  0.00    +0.000 C 
ATOM     22  C   UNL     1       2.257   4.407  20.822  0.00  0.00    +0.000 C 
ATOM     23  C   UNL     1       0.809   4.077  20.458  0.00  0.00    +0.000 C 
ATOM     24  C   UNL     1       0.706   2.808  19.618  0.00  0.00    +0.000 C 
ATOM     25  C   UNL     1       1.626   2.838  18.402  0.00  0.00    +0.000 C 
ATOM     26  C   UNL     1       3.068   3.156  18.798  0.00  0.00    +0.000 C 
ENDBRANCH  20  21
ENDBRANCH  19  20
ENDBRANCH   3  19
TORSDOF 9
ENDMDL
MODEL 6
REMARK VINA RESULT:      -7.0      3.694      7.432
REMARK  Name = 
REMARK  9 active torsions:
REMARK  status: ('A' for Active; 'I' for Inactive)
REMARK    1  A    between atoms: C_2  and  CA_9
REMARK    2  A    between atoms: N_3  and  CA_4
REMARK    3  A    between atoms: CA_4  and  CB_5
REMARK    4  A    between atoms: CA_4  and  C_7
REMARK    5  A    between atoms: CB_5  and  O_6
REMARK    6  A    between atoms: C_7  and  O_8
REMARK    7  A    between atoms: C_11  and  C_12
REMARK    8  A    between atoms: C_12  and  C_13
REMARK    9  A    between atoms: C_13  and  C_14
REMARK                            x       y       z     vdW  Elec       q    Type
REMARK                         _______ _______ _______ _____ _____    ______ ____
ROOT
ATOM      1  CA  UNL     1       5.249   4.266  18.305  0.00  0.00    +0.000 C 
ATOM      2  C   UNL     1       4.735   4.106  16.878  0.00  0.00    +0.000 C 
ATOM      3  C   UNL     1       5.541   4.915  15.853  0.00  0.00    +0.000 C 
ATOM      4  C   UNL     1       7.043   4.653  16.049  0.00  0.00    +0.000 C 
ATOM      5  C   UNL     1       7.464   4.811  17.509  0.00  0.00    +0.000 C 
ATOM      6  N   UNL     1       6.691   3.931  18.395  0.00  0.00    +0.000 NA
ATOM      7  H   UNL     1       6.992   4.110  19.356  0.00  0.00    +0.000 HD
ENDROOT
BRANCH   1   9
ATOM      8  O   UNL     1       4.918   2.668  20.107  0.00  0.00    +0.000 OA
ATOM      9  C   UNL     1       4.418   3.322  19.195  0.00  0.00    +0.000 C 
ATOM     10  N   UNL     1       3.058   3.357  18.980  0.00  0.00    +0.000 N 
ATOM     11  H   UNL     1       2.735   4.072  18.331  0.00  0.00    +0.000 HD
BRANCH  10  12
ATOM     12  CA  UNL     1       2.113   2.588  19.804  0.00  0.00    +0.000 C 
BRANCH  12  13
ATOM     13  CB  UNL     1       1.822   3.267  21.160  0.00  0.00    +0.000 C 
BRANCH  13  14
ATOM     14  O   UNL     1       2.555   2.706  22.243  0.00  0.00    +0.000 OA
ATOM     15  H   UNL     1       3.063   3.417  22.679  0.00  0.00    +0.000 HD
ENDBRANCH  13  14
ENDBRANCH  12  13
BRANCH  12  16
ATOM     16  C   UNL     1       0.802   2.370  19.035  0.00  0.00    +0.000 C 
BRANCH  16  17
ATOM     17  O   UNL     1       0.750   3.191  17.872  0.00  0.00    +0.000 OA
ATOM     18  H   UNL     1      -0.192   3.332  17.671  0.00  0.00    +0.000 HD
ENDBRANCH  16  17
ENDBRANCH  12  16
ENDBRANCH  10  12
ENDBRANCH   1   9
BRANCH   3  19
ATOM     19  C   UNL     1       5.123   4.568  14.408  0.00  0.00    +0.000 C 
BRANCH  19  20
ATOM     20  C   UNL     1       6.242   3.868  13.627  0.00  0.00    +0.000 C 
BRANCH  20  21
ATOM     21  C   UNL     1       6.190   4.070  12.099  0.00  0.00    +0.000 C 
ATOM     22  C   UNL     1       7.473   3.625  11.375  0.00  0.00    +0.000 C 
ATOM     23  C   UNL     1       7.677   2.109  11.394  0.00  0.00    +0.000 C 
ATOM     24  C   UNL     1       6.456   1.361  10.868  0.00  0.00    +0.000 C 
ATOM     25  C   UNL     1       5.166   1.790  11.560  0.00  0.00    +0.000 C 
ATOM     26  C   UNL     1       4.983   3.308  11.514  0.00  0.00    +0.000 C 
ENDBRANCH  20  21
ENDBRANCH  19  20
ENDBRANCH   3  19
TORSDOF 9
ENDMDL
MODEL 7
REMARK VINA RESULT:      -7.0      1.587      2.774
REMARK  Name = 
REMARK  9 active torsions:
REMARK  status: ('A' for Active; 'I' for Inactive)
REMARK    1  A    between atoms: C_2  and  CA_9
REMARK    2  A    between atoms: N_3  and  CA_4
REMARK    3  A    between atoms: CA_4  and  CB_5
REMARK    4  A    between atoms: CA_4  and  C_7
REMARK    5  A    between atoms: CB_5  and  O_6
REMARK    6  A    between atoms: C_7  and  O_8
REMARK    7  A    between atoms: C_11  and  C_12
REMARK    8  A    between atoms: C_12  and  C_13
REMARK    9  A    between atoms: C_13  and  C_14
REMARK                            x       y       z     vdW  Elec       q    Type
REMARK                         _______ _______ _______ _____ _____    ______ ____
ROOT
ATOM      1  CA  UNL     1       6.109   5.899  16.895  0.00  0.00    +0.000 C 
ATOM      2  C   UNL     1       5.779   4.914  18.013  0.00  0.00    +0.000 C 
ATOM      3  C   UNL     1       4.860   5.509  19.088  0.00  0.00    +0.000 C 
ATOM      4  C   UNL     1       3.650   6.183  18.422  0.00  0.00    +0.000 C 
ATOM      5  C   UNL     1       4.070   7.131  17.300  0.00  0.00    +0.000 C 
ATOM      6  N   UNL     1       4.873   6.444  16.281  0.00  0.00    +0.000 NA
ATOM      7  H   UNL     1       5.153   7.136  15.582  0.00  0.00    +0.000 HD
ENDROOT
BRANCH   1   9
ATOM      8  O   UNL     1       7.916   4.451  16.155  0.00  0.00    +0.000 OA
ATOM      9  C   UNL     1       6.942   5.135  15.849  0.00  0.00    +0.000 C 
ATOM     10  N   UNL     1       6.449   5.172  14.564  0.00  0.00    +0.000 N 
ATOM     11  H   UNL     1       5.535   5.610  14.457  0.00  0.00    +0.000 HD
BRANCH  10  12
ATOM     12  CA  UNL     1       7.071   4.421  13.462  0.00  0.00    +0.000 C 
BRANCH  12  13
ATOM     13  CB  UNL     1       6.047   3.590  12.659  0.00  0.00    +0.000 C 
BRANCH  13  14
ATOM     14  O   UNL     1       6.617   2.461  12.010  0.00  0.00    +0.000 OA
ATOM     15  H   UNL     1       7.588   2.503  12.101  0.00  0.00    +0.000 HD
ENDBRANCH  13  14
ENDBRANCH  12  13
BRANCH  12  16
ATOM     16  C   UNL     1       7.817   5.382  12.526  0.00  0.00    +0.000 C 
BRANCH  16  17
ATOM     17  O   UNL     1       8.903   6.011  13.200  0.00  0.00    +0.000 OA
ATOM     18  H   UNL     1       8.846   5.743  14.134  0.00  0.00    +0.000 HD
ENDBRANCH  16  17
ENDBRANCH  12  16
ENDBRANCH  10  12
ENDBRANCH   1   9
BRANCH   3  19
ATOM     19  C   UNL     1       4.387   4.428  20.083  0.00  0.00    +0.000 C 
BRANCH  19  20
ATOM     20  C   UNL     1       4.256   3.047  19.430  0.00  0.00    +0.000 C 
BRANCH  20  21
ATOM     21  C   UNL     1       3.134   2.160  20.007  0.00  0.00    +0.000 C 
ATOM     22  C   UNL     1       2.517   2.713  21.303  0.00  0.00    +0.000 C 
ATOM     23  C   UNL     1       1.703   3.989  21.083  0.00  0.00    +0.000 C 
ATOM     24  C   UNL     1       0.645   3.812  19.998  0.00  0.00    +0.000 C 
ATOM     25  C   UNL     1       1.227   3.254  18.703  0.00  0.00    +0.000 C 
ATOM     26  C   UNL     1       2.024   1.973  18.952  0.00  0.00    +0.000 C 
ENDBRANCH  20  21
ENDBRANCH  19  20
ENDBRANCH   3  19
TORSDOF 9
ENDMDL
MODEL 8
REMARK VINA RESULT:      -7.0      3.928      7.597
REMARK  Name = 
REMARK  9 active torsions:
REMARK  status: ('A' for Active; 'I' for Inactive)
REMARK    1  A    between atoms: C_2  and  CA_9
REMARK    2  A    between atoms: N_3  and  CA_4
REMARK    3  A    between atoms: CA_4  and  CB_5
REMARK    4  A    between atoms: CA_4  and  C_7
REMARK    5  A    between atoms: CB_5  and  O_6
REMARK    6  A    between atoms: C_7  and  O_8
REMARK    7  A    between atoms: C_11  and  C_12
REMARK    8  A    between atoms: C_12  and  C_13
REMARK    9  A    between atoms: C_13  and  C_14
REMARK                            x       y       z     vdW  Elec       q    Type
REMARK                         _______ _______ _______ _____ _____    ______ ____
ROOT
ATOM      1  CA  UNL     1       4.957   4.229  17.876  0.00  0.00    +0.000 C 
ATOM      2  C   UNL     1       5.272   3.946  16.410  0.00  0.00    +0.000 C 
ATOM      3  C   UNL     1       6.396   4.830  15.853  0.00  0.00    +0.000 C 
ATOM      4  C   UNL     1       7.602   4.799  16.806  0.00  0.00    +0.000 C 
ATOM      5  C   UNL     1       7.192   5.067  18.254  0.00  0.00    +0.000 C 
ATOM      6  N   UNL     1       6.175   4.114  18.715  0.00  0.00    +0.000 NA
ATOM      7  H   UNL     1       5.917   4.368  19.672  0.00  0.00    +0.000 HD
ENDROOT
BRANCH   1   9
ATOM      8  O   UNL     1       3.732   2.135  17.737  0.00  0.00    +0.000 OA
ATOM      9  C   UNL     1       3.896   3.205  18.318  0.00  0.00    +0.000 C 
ATOM     10  N   UNL     1       3.229   3.514  19.483  0.00  0.00    +0.000 N 
ATOM     11  H   UNL     1       3.577   4.331  19.983  0.00  0.00    +0.000 HD
BRANCH  10  12
ATOM     12  CA  UNL     1       2.251   2.601  20.095  0.00  0.00    +0.000 C 
BRANCH  12  13
ATOM     13  CB  UNL     1       2.502   2.389  21.602  0.00  0.00    +0.000 C 
BRANCH  13  14
ATOM     14  O   UNL     1       1.329   2.523  22.397  0.00  0.00    +0.000 OA
ATOM     15  H   UNL     1       1.459   2.034  23.232  0.00  0.00    +0.000 HD
ENDBRANCH  13  14
ENDBRANCH  12  13
BRANCH  12  16
ATOM     16  C   UNL     1       0.827   3.129  19.868  0.00  0.00    +0.000 C 
BRANCH  16  17
ATOM     17  O   UNL     1       0.693   4.462  20.351  0.00  0.00    +0.000 OA
ATOM     18  H   UNL     1       1.171   5.036  19.728  0.00  0.00    +0.000 HD
ENDBRANCH  16  17
ENDBRANCH  12  16
ENDBRANCH  10  12
ENDBRANCH   1   9
BRANCH   3  19
ATOM     19  C   UNL     1       6.821   4.375  14.441  0.00  0.00    +0.000 C 
BRANCH  19  20
ATOM     20  C   UNL     1       5.683   3.682  13.681  0.00  0.00    +0.000 C 
BRANCH  20  21
ATOM     21  C   UNL     1       5.657   3.954  12.163  0.00  0.00    +0.000 C 
ATOM     22  C   UNL     1       7.053   3.979  11.517  0.00  0.00    +0.000 C 
ATOM     23  C   UNL     1       7.725   2.605  11.488  0.00  0.00    +0.000 C 
ATOM     24  C   UNL     1       6.835   1.548  10.842  0.00  0.00    +0.000 C 
ATOM     25  C   UNL     1       5.439   1.507  11.455  0.00  0.00    +0.000 C 
ATOM     26  C   UNL     1       4.788   2.890  11.460  0.00  0.00    +0.000 C 
ENDBRANCH  20  21
ENDBRANCH  19  20
ENDBRANCH   3  19
TORSDOF 9
ENDMDL
MODEL 9
REMARK VINA RESULT:      -7.0      0.963      1.632
REMARK  Name = 
REMARK  9 active torsions:
REMARK  status: ('A' for Active; 'I' for Inactive)
REMARK    1  A    between atoms: C_2  and  CA_9
REMARK    2  A    between atoms: N_3  and  CA_4
REMARK    3  A    between atoms: CA_4  and  CB_5
REMARK    4  A    between atoms: CA_4  and  C_7
REMARK    5  A    between atoms: CB_5  and  O_6
REMARK    6  A    between atoms: C_7  and  O_8
REMARK    7  A    between atoms: C_11  and  C_12
REMARK    8  A    between atoms: C_12  and  C_13
REMARK    9  A    between atoms: C_13  and  C_14
REMARK                            x       y       z     vdW  Elec       q    Type
REMARK                         _______ _______ _______ _____ _____    ______ ____
ROOT
ATOM      1  CA  UNL     1       6.874   4.701  15.589  0.00  0.00    +0.000 C 
ATOM      2  C   UNL     1       5.467   4.444  16.121  0.00  0.00    +0.000 C 
ATOM      3  C   UNL     1       5.352   4.639  17.639  0.00  0.00    +0.000 C 
ATOM      4  C   UNL     1       5.975   5.985  18.039  0.00  0.00    +0.000 C 
ATOM      5  C   UNL     1       7.370   6.168  17.443  0.00  0.00    +0.000 C 
ATOM      6  N   UNL     1       7.355   6.049  15.980  0.00  0.00    +0.000 NA
ATOM      7  H   UNL     1       8.318   6.142  15.648  0.00  0.00    +0.000 HD
ENDROOT
BRANCH   1   9
ATOM      8  O   UNL     1       7.468   5.293  13.307  0.00  0.00    +0.000 OA
ATOM      9  C   UNL     1       6.810   4.573  14.055  0.00  0.00    +0.000 C 
ATOM     10  N   UNL     1       6.062   3.518  13.584  0.00  0.00    +0.000 N 
ATOM     11  H   UNL     1       5.716   2.874  14.294  0.00  0.00    +0.000 HD
BRANCH  10  12
ATOM     12  CA  UNL     1       5.972   3.197  12.151  0.00  0.00    +0.000 C 
BRANCH  12  13
ATOM     13  CB  UNL     1       6.038   1.679  11.879  0.00  0.00    +0.000 C 
BRANCH  13  14
ATOM     14  O   UNL     1       6.644   1.352  10.634  0.00  0.00    +0.000 OA
ATOM     15  H   UNL     1       6.973   2.172  10.220  0.00  0.00    +0.000 HD
ENDBRANCH  13  14
ENDBRANCH  12  13
BRANCH  12  16
ATOM     16  C   UNL     1       4.680   3.781  11.562  0.00  0.00    +0.000 C 
BRANCH  16  17
ATOM     17  O   UNL     1       3.920   2.775  10.898  0.00  0.00    +0.000 OA
ATOM     18  H   UNL     1       4.559   2.172  10.479  0.00  0.00    +0.000 HD
ENDBRANCH  16  17
ENDBRANCH  12  16
ENDBRANCH  10  12
ENDBRANCH   1   9
BRANCH   3  19
ATOM     19  C   UNL     1       3.881   4.572  18.103  0.00  0.00    +0.000 C 
BRANCH  19  20
ATOM     20  C   UNL     1       3.165   3.313  17.601  0.00  0.00    +0.000 C 
BRANCH  20  21
ATOM     21  C   UNL     1       2.935   2.227  18.672  0.00  0.00    +0.000 C 
ATOM     22  C   UNL     1       3.442   2.623  20.070  0.00  0.00    +0.000 C 
ATOM     23  C   UNL     1       2.623   3.746  20.709  0.00  0.00    +0.000 C 
ATOM     24  C   UNL     1       1.132   3.423  20.732  0.00  0.00    +0.000 C 
ATOM     25  C   UNL     1       0.603   3.016  19.360  0.00  0.00    +0.000 C 
ATOM     26  C   UNL     1       1.432   1.885  18.752  0.00  0.00    +0.000 C 
ENDBRANCH  20  21
ENDBRANCH  19  20
ENDBRANCH   3  19
TORSDOF 9
ENDMDL
