MODEL 1
REMARK VINA RESULT:      -9.1      0.000      0.000
REMARK  Name = 
REMARK  3 active torsions:
REMARK  status: ('A' for Active; 'I' for Inactive)
REMARK    1  A    between atoms: C_2  and  C_26
REMARK    2  A    between atoms: N_3  and  C_4
REMARK    3  A    between atoms: C_12  and  C_13
REMARK                            x       y       z     vdW  Elec       q    Type
REMARK                         _______ _______ _______ _____ _____    ______ ____
ROOT
ATOM      1  C   UNL     1       0.042  10.856  18.648  0.00  0.00    +0.000 C 
ATOM      2  C   UNL     1      -1.327  10.654  18.031  0.00  0.00    +0.000 A 
ATOM      3  C   UNL     1      -1.634   9.897  16.906  0.00  0.00    +0.000 A 
ATOM      4  C   UNL     1      -2.963   9.833  16.493  0.00  0.00    +0.000 A 
ATOM      5  C   UNL     1      -3.947  10.547  17.184  0.00  0.00    +0.000 A 
ATOM      6  C   UNL     1      -3.620  11.326  18.301  0.00  0.00    +0.000 A 
ATOM      7  C   UNL     1      -2.311  11.364  18.757  0.00  0.00    +0.000 A 
ATOM      8  C   UNL     1      -1.680  12.036  19.897  0.00  0.00    +0.000 A 
ATOM      9  C   UNL     1      -2.167  12.837  20.939  0.00  0.00    +0.000 A 
ATOM     10  C   UNL     1      -1.223  13.355  21.859  0.00  0.00    +0.000 A 
ATOM     11  C   UNL     1       0.150  13.080  21.761  0.00  0.00    +0.000 A 
ATOM     12  C   UNL     1       0.629  12.266  20.745  0.00  0.00    +0.000 A 
ATOM     13  C   UNL     1      -0.284  11.750  19.834  0.00  0.00    +0.000 A 
ENDROOT
BRANCH   9  14
ATOM     14  C   UNL     1      -3.587  13.134  21.165  0.00  0.00    +0.000 A 
ATOM     15  N   UNL     1      -4.393  12.555  22.036  0.00  0.00    +0.000 NA
ATOM     16  C   UNL     1      -5.616  13.168  21.911  0.00  0.00    +0.000 A 
ATOM     17  C   UNL     1      -6.830  12.916  22.553  0.00  0.00    +0.000 A 
ATOM     18  N   UNL     1      -7.914  13.698  22.296  0.00  0.00    +0.000 NA
ATOM     19  C   UNL     1      -7.787  14.715  21.410  0.00  0.00    +0.000 A 
ATOM     20  C   UNL     1      -6.631  15.026  20.702  0.00  0.00    +0.000 A 
ATOM     21  C   UNL     1      -5.550  14.198  20.985  0.00  0.00    +0.000 A 
ATOM     22  N   UNL     1      -4.267  14.140  20.507  0.00  0.00    +0.000 N 
ATOM     23  H   UNL     1      -3.875  14.734  19.792  0.00  0.00    +0.000 HD
ENDBRANCH   9  14
BRANCH   1  26
ATOM     24  O   UNL     1       2.283   9.582  17.488  0.00  0.00    +0.000 OA
ATOM     25  C   UNL     1       1.689   9.039  18.416  0.00  0.00    +0.000 C 
ATOM     26  N   UNL     1       0.607   9.590  19.051  0.00  0.00    +0.000 N 
ATOM     27  H   UNL     1       0.295   9.211  19.933  0.00  0.00    +0.000 HD
BRANCH  25  28
ATOM     28  C   UNL     1       2.168   7.738  18.930  0.00  0.00    +0.000 A 
ATOM     29  C   UNL     1       1.634   7.252  20.131  0.00  0.00    +0.000 A 
ATOM     30  C   UNL     1       2.087   6.038  20.622  0.00  0.00    +0.000 A 
ATOM     31  N   UNL     1       3.024   5.258  20.044  0.00  0.00    +0.000 NA
ATOM     32  C   UNL     1       3.523   5.779  18.909  0.00  0.00    +0.000 A 
ATOM     33  N   UNL     1       4.504   5.184  18.165  0.00  0.00    +0.000 N 
ATOM     34  C   UNL     1       4.811   5.972  17.088  0.00  0.00    +0.000 A 
ATOM     35  C   UNL     1       4.010   7.093  17.146  0.00  0.00    +0.000 A 
ATOM     36  C   UNL     1       3.172   6.977  18.293  0.00  0.00    +0.000 A 
ATOM     37  H   UNL     1       4.932   4.303  18.408  0.00  0.00    +0.000 HD
ENDBRANCH  25  28
ENDBRANCH   1  26
TORSDOF 3
ENDMDL
MODEL 2
REMARK VINA RESULT:      -9.1      0.308      1.000
REMARK  Name = 
REMARK  3 active torsions:
REMARK  status: ('A' for Active; 'I' for Inactive)
REMARK    1  A    between atoms: C_2  and  C_26
REMARK    2  A    between atoms: N_3  and  C_4
REMARK    3  A    between atoms: C_12  and  C_13
REMARK                            x       y       z     vdW  Elec       q    Type
REMARK                         _______ _______ _______ _____ _____    ______ ____
ROOT
ATOM      1  C   UNL     1       0.024  10.911  18.721  0.00  0.00    +0.000 C 
ATOM      2  C   UNL     1      -1.350  10.705  18.118  0.00  0.00    +0.000 A 
ATOM      3  C   UNL     1      -1.667   9.947  16.995  0.00  0.00    +0.000 A 
ATOM      4  C   UNL     1      -2.999   9.881  16.596  0.00  0.00    +0.000 A 
ATOM      5  C   UNL     1      -3.977  10.593  17.296  0.00  0.00    +0.000 A 
ATOM      6  C   UNL     1      -3.641  11.373  18.409  0.00  0.00    +0.000 A 
ATOM      7  C   UNL     1      -2.328  11.414  18.852  0.00  0.00    +0.000 A 
ATOM      8  C   UNL     1      -1.688  12.088  19.985  0.00  0.00    +0.000 A 
ATOM      9  C   UNL     1      -2.166  12.889  21.032  0.00  0.00    +0.000 A 
ATOM     10  C   UNL     1      -1.213  13.410  21.942  0.00  0.00    +0.000 A 
ATOM     11  C   UNL     1       0.159  13.137  21.831  0.00  0.00    +0.000 A 
ATOM     12  C   UNL     1       0.629  12.323  20.811  0.00  0.00    +0.000 A 
ATOM     13  C   UNL     1      -0.291  11.805  19.909  0.00  0.00    +0.000 A 
ENDROOT
BRANCH   9  14
ATOM     14  C   UNL     1      -3.584  13.184  21.272  0.00  0.00    +0.000 A 
ATOM     15  N   UNL     1      -4.333  14.066  20.636  0.00  0.00    +0.000 NA
ATOM     16  C   UNL     1      -5.592  13.980  21.178  0.00  0.00    +0.000 A 
ATOM     17  C   UNL     1      -6.750  14.713  20.912  0.00  0.00    +0.000 A 
ATOM     18  N   UNL     1      -7.912  14.412  21.554  0.00  0.00    +0.000 NA
ATOM     19  C   UNL     1      -7.916  13.394  22.449  0.00  0.00    +0.000 A 
ATOM     20  C   UNL     1      -6.811  12.627  22.800  0.00  0.00    +0.000 A 
ATOM     21  C   UNL     1      -5.642  12.973  22.131  0.00  0.00    +0.000 A 
ATOM     22  N   UNL     1      -4.356  12.503  22.192  0.00  0.00    +0.000 N 
ATOM     23  H   UNL     1      -4.021  11.776  22.807  0.00  0.00    +0.000 HD
ENDBRANCH   9  14
BRANCH   1  26
ATOM     24  O   UNL     1       2.193   9.591  17.477  0.00  0.00    +0.000 OA
ATOM     25  C   UNL     1       1.640   9.071  18.443  0.00  0.00    +0.000 C 
ATOM     26  N   UNL     1       0.596   9.646  19.119  0.00  0.00    +0.000 N 
ATOM     27  H   UNL     1       0.324   9.286  20.023  0.00  0.00    +0.000 HD
BRANCH  25  28
ATOM     28  C   UNL     1       2.131   7.774  18.957  0.00  0.00    +0.000 A 
ATOM     29  C   UNL     1       1.605   7.287  20.161  0.00  0.00    +0.000 A 
ATOM     30  C   UNL     1       2.068   6.077  20.652  0.00  0.00    +0.000 A 
ATOM     31  N   UNL     1       3.009   5.303  20.072  0.00  0.00    +0.000 NA
ATOM     32  C   UNL     1       3.499   5.825  18.934  0.00  0.00    +0.000 A 
ATOM     33  N   UNL     1       4.482   5.236  18.186  0.00  0.00    +0.000 N 
ATOM     34  C   UNL     1       4.779   6.025  17.107  0.00  0.00    +0.000 A 
ATOM     35  C   UNL     1       3.969   7.140  17.166  0.00  0.00    +0.000 A 
ATOM     36  C   UNL     1       3.137   7.020  18.317  0.00  0.00    +0.000 A 
ATOM     37  H   UNL     1       4.917   4.359  18.430  0.00  0.00    +0.000 HD
ENDBRANCH  25  28
ENDBRANCH   1  26
TORSDOF 3
ENDMDL
MODEL 3
REMARK VINA RESULT:      -8.4      0.813      1.778
REMARK  Name = 
REMARK  3 active torsions:
REMARK  status: ('A' for Active; 'I' for Inactive)
REMARK    1  A    between atoms: C_2  and  C_26
REMARK    2  A    between atoms: N_3  and  C_4
REMARK    3  A    between atoms: C_12  and  C_13
REMARK                            x       y       z     vdW  Elec       q    Type
REMARK                         _______ _______ _______ _____ _____    ______ ____
ROOT
ATOM      1  C   UNL     1      -0.294  11.328  18.288  0.00  0.00    +0.000 C 
ATOM      2  C   UNL     1      -1.718  11.107  17.823  0.00  0.00    +0.000 A 
ATOM      3  C   UNL     1      -2.128  10.461  16.661  0.00  0.00    +0.000 A 
ATOM      4  C   UNL     1      -3.493  10.359  16.408  0.00  0.00    +0.000 A 
ATOM      5  C   UNL     1      -4.416  10.926  17.292  0.00  0.00    +0.000 A 
ATOM      6  C   UNL     1      -3.988  11.595  18.446  0.00  0.00    +0.000 A 
ATOM      7  C   UNL     1      -2.636  11.667  18.741  0.00  0.00    +0.000 A 
ATOM      8  C   UNL     1      -1.899  12.248  19.867  0.00  0.00    +0.000 A 
ATOM      9  C   UNL     1      -2.289  12.895  21.048  0.00  0.00    +0.000 A 
ATOM     10  C   UNL     1      -1.261  13.368  21.901  0.00  0.00    +0.000 A 
ATOM     11  C   UNL     1       0.100  13.195  21.606  0.00  0.00    +0.000 A 
ATOM     12  C   UNL     1       0.485  12.532  20.451  0.00  0.00    +0.000 A 
ATOM     13  C   UNL     1      -0.510  12.062  19.603  0.00  0.00    +0.000 A 
ENDROOT
BRANCH   9  14
ATOM     14  C   UNL     1      -3.681  13.073  21.478  0.00  0.00    +0.000 A 
ATOM     15  N   UNL     1      -4.306  12.421  22.441  0.00  0.00    +0.000 NA
ATOM     16  C   UNL     1      -5.579  12.933  22.503  0.00  0.00    +0.000 A 
ATOM     17  C   UNL     1      -6.667  12.577  23.304  0.00  0.00    +0.000 A 
ATOM     18  N   UNL     1      -7.835  13.269  23.218  0.00  0.00    +0.000 NA
ATOM     19  C   UNL     1      -7.916  14.302  22.345  0.00  0.00    +0.000 A 
ATOM     20  C   UNL     1      -6.901  14.714  21.489  0.00  0.00    +0.000 A 
ATOM     21  C   UNL     1      -5.729  13.974  21.599  0.00  0.00    +0.000 A 
ATOM     22  N   UNL     1      -4.525  14.026  20.944  0.00  0.00    +0.000 N 
ATOM     23  H   UNL     1      -4.288  14.657  20.194  0.00  0.00    +0.000 HD
ENDBRANCH   9  14
BRANCH   1  26
ATOM     24  O   UNL     1       2.398  10.764  17.635  0.00  0.00    +0.000 OA
ATOM     25  C   UNL     1       1.689   9.878  18.103  0.00  0.00    +0.000 C 
ATOM     26  N   UNL     1       0.382  10.065  18.467  0.00  0.00    +0.000 N 
ATOM     27  H   UNL     1      -0.084   9.375  19.039  0.00  0.00    +0.000 HD
BRANCH  25  28
ATOM     28  C   UNL     1       2.260   8.534  18.342  0.00  0.00    +0.000 A 
ATOM     29  C   UNL     1       3.100   7.979  17.368  0.00  0.00    +0.000 A 
ATOM     30  C   UNL     1       3.630   6.717  17.582  0.00  0.00    +0.000 A 
ATOM     31  N   UNL     1       3.404   5.944  18.666  0.00  0.00    +0.000 NA
ATOM     32  C   UNL     1       2.573   6.510  19.558  0.00  0.00    +0.000 A 
ATOM     33  N   UNL     1       2.173   5.906  20.718  0.00  0.00    +0.000 N 
ATOM     34  C   UNL     1       1.310   6.725  21.395  0.00  0.00    +0.000 A 
ATOM     35  C   UNL     1       1.155   7.877  20.652  0.00  0.00    +0.000 A 
ATOM     36  C   UNL     1       1.966   7.762  19.485  0.00  0.00    +0.000 A 
ATOM     37  H   UNL     1       2.473   4.983  20.997  0.00  0.00    +0.000 HD
ENDBRANCH  25  28
ENDBRANCH   1  26
TORSDOF 3
ENDMDL
MODEL 4
REMARK VINA RESULT:      -8.2      0.908      2.080
REMARK  Name = 
REMARK  3 active torsions:
REMARK  status: ('A' for Active; 'I' for Inactive)
REMARK    1  A    between atoms: C_2  and  C_26
REMARK    2  A    between atoms: N_3  and  C_4
REMARK    3  A    between atoms: C_12  and  C_13
REMARK                            x       y       z     vdW  Elec       q    Type
REMARK                         _______ _______ _______ _____ _____    ______ ____
ROOT
ATOM      1  C   UNL     1      -0.078  11.139  18.213  0.00  0.00    +0.000 C 
ATOM      2  C   UNL     1      -1.553  10.925  17.940  0.00  0.00    +0.000 A 
ATOM      3  C   UNL     1      -2.114  10.204  16.892  0.00  0.00    +0.000 A 
ATOM      4  C   UNL     1      -3.502  10.122  16.812  0.00  0.00    +0.000 A 
ATOM      5  C   UNL     1      -4.298  10.783  17.753  0.00  0.00    +0.000 A 
ATOM      6  C   UNL     1      -3.720  11.526  18.790  0.00  0.00    +0.000 A 
ATOM      7  C   UNL     1      -2.341  11.581  18.914  0.00  0.00    +0.000 A 
ATOM      8  C   UNL     1      -1.461  12.225  19.894  0.00  0.00    +0.000 A 
ATOM      9  C   UNL     1      -1.691  12.973  21.057  0.00  0.00    +0.000 A 
ATOM     10  C   UNL     1      -0.558  13.480  21.740  0.00  0.00    +0.000 A 
ATOM     11  C   UNL     1       0.753  13.244  21.299  0.00  0.00    +0.000 A 
ATOM     12  C   UNL     1       0.982  12.483  20.163  0.00  0.00    +0.000 A 
ATOM     13  C   UNL     1      -0.118  11.979  19.480  0.00  0.00    +0.000 A 
ENDROOT
BRANCH   9  14
ATOM     14  C   UNL     1      -3.017  13.224  21.635  0.00  0.00    +0.000 A 
ATOM     15  N   UNL     1      -3.963  14.005  21.148  0.00  0.00    +0.000 NA
ATOM     16  C   UNL     1      -5.031  13.915  22.007  0.00  0.00    +0.000 A 
ATOM     17  C   UNL     1      -6.268  14.565  21.995  0.00  0.00    +0.000 A 
ATOM     18  N   UNL     1      -7.201  14.275  22.940  0.00  0.00    +0.000 NA
ATOM     19  C   UNL     1      -6.906  13.348  23.885  0.00  0.00    +0.000 A 
ATOM     20  C   UNL     1      -5.697  12.670  23.996  0.00  0.00    +0.000 A 
ATOM     21  C   UNL     1      -4.766  13.003  23.018  0.00  0.00    +0.000 A 
ATOM     22  N   UNL     1      -3.478  12.600  22.778  0.00  0.00    +0.000 N 
ATOM     23  H   UNL     1      -2.947  11.953  23.340  0.00  0.00    +0.000 HD
ENDBRANCH   9  14
BRANCH   1  26
ATOM     24  O   UNL     1       2.584  10.522  17.489  0.00  0.00    +0.000 OA
ATOM     25  C   UNL     1       1.881   9.659  18.010  0.00  0.00    +0.000 C 
ATOM     26  N   UNL     1       0.589   9.874  18.410  0.00  0.00    +0.000 N 
ATOM     27  H   UNL     1       0.134   9.209  19.019  0.00  0.00    +0.000 HD
BRANCH  25  28
ATOM     28  C   UNL     1       2.444   8.317  18.273  0.00  0.00    +0.000 A 
ATOM     29  C   UNL     1       3.297   7.748  17.318  0.00  0.00    +0.000 A 
ATOM     30  C   UNL     1       3.820   6.487  17.555  0.00  0.00    +0.000 A 
ATOM     31  N   UNL     1       3.576   5.729  18.645  0.00  0.00    +0.000 NA
ATOM     32  C   UNL     1       2.734   6.308  19.518  0.00  0.00    +0.000 A 
ATOM     33  N   UNL     1       2.317   5.719  20.680  0.00  0.00    +0.000 N 
ATOM     34  C   UNL     1       1.446   6.549  21.334  0.00  0.00    +0.000 A 
ATOM     35  C   UNL     1       1.305   7.692  20.575  0.00  0.00    +0.000 A 
ATOM     36  C   UNL     1       2.132   7.560  19.421  0.00  0.00    +0.000 A 
ATOM     37  H   UNL     1       2.610   4.799  20.975  0.00  0.00    +0.000 HD
ENDBRANCH  25  28
ENDBRANCH   1  26
TORSDOF 3
ENDMDL
MODEL 5
REMARK VINA RESULT:      -7.7      4.636     11.613
REMARK  Name = 
REMARK  3 active torsions:
REMARK  status: ('A' for Active; 'I' for Inactive)
REMARK    1  A    between atoms: C_2  and  C_26
REMARK    2  A    between atoms: N_3  and  C_4
REMARK    3  A    between atoms: C_12  and  C_13
REMARK                            x       y       z     vdW  Elec       q    Type
REMARK                         _______ _______ _______ _____ _____    ______ ____
ROOT
ATOM      1  C   UNL     1       3.100   5.774  17.714  0.00  0.00    +0.000 C 
ATOM      2  C   UNL     1       4.577   5.682  18.037  0.00  0.00    +0.000 A 
ATOM      3  C   UNL     1       5.550   6.644  17.786  0.00  0.00    +0.000 A 
ATOM      4  C   UNL     1       6.863   6.371  18.160  0.00  0.00    +0.000 A 
ATOM      5  C   UNL     1       7.185   5.141  18.743  0.00  0.00    +0.000 A 
ATOM      6  C   UNL     1       6.199   4.172  18.968  0.00  0.00    +0.000 A 
ATOM      7  C   UNL     1       4.879   4.443  18.646  0.00  0.00    +0.000 A 
ATOM      8  C   UNL     1       3.645   3.666  18.798  0.00  0.00    +0.000 A 
ATOM      9  C   UNL     1       3.353   2.409  19.346  0.00  0.00    +0.000 A 
ATOM     10  C   UNL     1       2.011   1.962  19.273  0.00  0.00    +0.000 A 
ATOM     11  C   UNL     1       0.992   2.734  18.695  0.00  0.00    +0.000 A 
ATOM     12  C   UNL     1       1.275   3.989  18.176  0.00  0.00    +0.000 A 
ATOM     13  C   UNL     1       2.587   4.442  18.238  0.00  0.00    +0.000 A 
ENDROOT
BRANCH   9  14
ATOM     14  C   UNL     1       4.332   1.551  20.026  0.00  0.00    +0.000 A 
ATOM     15  N   UNL     1       4.854   1.735  21.224  0.00  0.00    +0.000 NA
ATOM     16  C   UNL     1       5.698   0.676  21.454  0.00  0.00    +0.000 A 
ATOM     17  C   UNL     1       6.535   0.396  22.537  0.00  0.00    +0.000 A 
ATOM     18  N   UNL     1       7.256  -0.757  22.563  0.00  0.00    +0.000 NA
ATOM     19  C   UNL     1       7.144  -1.619  21.523  0.00  0.00    +0.000 A 
ATOM     20  C   UNL     1       6.361  -1.417  20.392  0.00  0.00    +0.000 A 
ATOM     21  C   UNL     1       5.649  -0.223  20.398  0.00  0.00    +0.000 A 
ATOM     22  N   UNL     1       4.800   0.365  19.496  0.00  0.00    +0.000 N 
ATOM     23  H   UNL     1       4.552  -0.005  18.591  0.00  0.00    +0.000 HD
ENDBRANCH   9  14
BRANCH   1  26
ATOM     24  O   UNL     1       2.919   8.417  16.727  0.00  0.00    +0.000 OA
ATOM     25  C   UNL     1       2.477   8.155  17.842  0.00  0.00    +0.000 C 
ATOM     26  N   UNL     1       2.503   6.900  18.393  0.00  0.00    +0.000 N 
ATOM     27  H   UNL     1       1.941   6.697  19.207  0.00  0.00    +0.000 HD
BRANCH  25  28
ATOM     28  C   UNL     1       1.834   9.218  18.643  0.00  0.00    +0.000 A 
ATOM     29  C   UNL     1       1.791  10.518  18.122  0.00  0.00    +0.000 A 
ATOM     30  C   UNL     1       1.198  11.521  18.872  0.00  0.00    +0.000 A 
ATOM     31  N   UNL     1       0.647  11.365  20.094  0.00  0.00    +0.000 NA
ATOM     32  C   UNL     1       0.736  10.107  20.561  0.00  0.00    +0.000 A 
ATOM     33  N   UNL     1       0.275   9.715  21.788  0.00  0.00    +0.000 N 
ATOM     34  C   UNL     1       0.536   8.384  21.977  0.00  0.00    +0.000 A 
ATOM     35  C   UNL     1       1.176   7.917  20.849  0.00  0.00    +0.000 A 
ATOM     36  C   UNL     1       1.297   9.000  19.929  0.00  0.00    +0.000 A 
ATOM     37  H   UNL     1      -0.169  10.341  22.442  0.00  0.00    +0.000 HD
ENDBRANCH  25  28
ENDBRANCH   1  26
TORSDOF 3
ENDMDL
MODEL 6
REMARK VINA RESULT:      -7.3      3.027      8.977
REMARK  Name = 
REMARK  3 active torsions:
REMARK  status: ('A' for Active; 'I' for Inactive)
REMARK    1  A    between atoms: C_2  and  C_26
REMARK    2  A    between atoms: N_3  and  C_4
REMARK    3  A    between atoms: C_12  and  C_13
REMARK                            x       y       z     vdW  Elec       q    Type
REMARK                         _______ _______ _______ _____ _____    ______ ____
ROOT
ATOM      1  C   UNL     1      -2.019  11.818  20.841  0.00  0.00    +0.000 C 
ATOM      2  C   UNL     1      -1.860  11.338  19.414  0.00  0.00    +0.000 A 
ATOM      3  C   UNL     1      -2.512  11.830  18.287  0.00  0.00    +0.000 A 
ATOM      4  C   UNL     1      -2.227  11.252  17.053  0.00  0.00    +0.000 A 
ATOM      5  C   UNL     1      -1.331  10.182  16.969  0.00  0.00    +0.000 A 
ATOM      6  C   UNL     1      -0.701   9.680  18.115  0.00  0.00    +0.000 A 
ATOM      7  C   UNL     1      -0.934  10.272  19.346  0.00  0.00    +0.000 A 
ATOM      8  C   UNL     1      -0.403  10.007  20.686  0.00  0.00    +0.000 A 
ATOM      9  C   UNL     1       0.541   9.102  21.193  0.00  0.00    +0.000 A 
ATOM     10  C   UNL     1       0.770   9.114  22.591  0.00  0.00    +0.000 A 
ATOM     11  C   UNL     1       0.103   9.997  23.454  0.00  0.00    +0.000 A 
ATOM     12  C   UNL     1      -0.811  10.909  22.950  0.00  0.00    +0.000 A 
ATOM     13  C   UNL     1      -1.049  10.911  21.582  0.00  0.00    +0.000 A 
ENDROOT
BRANCH   9  14
ATOM     14  C   UNL     1       1.336   8.182  20.370  0.00  0.00    +0.000 A 
ATOM     15  N   UNL     1       1.961   8.462  19.242  0.00  0.00    +0.000 NA
ATOM     16  C   UNL     1       2.589   7.307  18.841  0.00  0.00    +0.000 A 
ATOM     17  C   UNL     1       3.345   7.030  17.700  0.00  0.00    +0.000 A 
ATOM     18  N   UNL     1       3.916   5.805  17.540  0.00  0.00    +0.000 NA
ATOM     19  C   UNL     1       3.734   4.871  18.504  0.00  0.00    +0.000 A 
ATOM     20  C   UNL     1       2.978   5.042  19.658  0.00  0.00    +0.000 A 
ATOM     21  C   UNL     1       2.402   6.303  19.780  0.00  0.00    +0.000 A 
ATOM     22  N   UNL     1       1.585   6.871  20.722  0.00  0.00    +0.000 N 
ATOM     23  H   UNL     1       1.222   6.411  21.544  0.00  0.00    +0.000 HD
ENDBRANCH   9  14
BRANCH   1  26
ATOM     24  O   UNL     1      -3.809  14.006  20.861  0.00  0.00    +0.000 OA
ATOM     25  C   UNL     1      -2.600  14.211  20.932  0.00  0.00    +0.000 C 
ATOM     26  N   UNL     1      -1.662  13.213  20.949  0.00  0.00    +0.000 N 
ATOM     27  H   UNL     1      -0.712  13.420  21.223  0.00  0.00    +0.000 HD
BRANCH  25  28
ATOM     28  C   UNL     1      -2.099  15.597  21.052  0.00  0.00    +0.000 A 
ATOM     29  C   UNL     1      -2.599  16.405  22.082  0.00  0.00    +0.000 A 
ATOM     30  C   UNL     1      -2.139  17.707  22.193  0.00  0.00    +0.000 A 
ATOM     31  N   UNL     1      -1.236  18.293  21.379  0.00  0.00    +0.000 NA
ATOM     32  C   UNL     1      -0.806  17.486  20.393  0.00  0.00    +0.000 A 
ATOM     33  N   UNL     1       0.087  17.868  19.430  0.00  0.00    +0.000 N 
ATOM     34  C   UNL     1       0.301  16.832  18.560  0.00  0.00    +0.000 A 
ATOM     35  C   UNL     1      -0.470  15.768  18.976  0.00  0.00    +0.000 A 
ATOM     36  C   UNL     1      -1.171  16.163  20.153  0.00  0.00    +0.000 A 
ATOM     37  H   UNL     1       0.495  18.789  19.383  0.00  0.00    +0.000 HD
ENDBRANCH  25  28
ENDBRANCH   1  26
TORSDOF 3
ENDMDL
MODEL 7
REMARK VINA RESULT:      -7.2      4.015      5.231
REMARK  Name = 
REMARK  3 active torsions:
REMARK  status: ('A' for Active; 'I' for Inactive)
REMARK    1  A    between atoms: C_2  and  C_26
REMARK    2  A    between atoms: N_3  and  C_4
REMARK    3  A    between atoms: C_12  and  C_13
REMARK                            x       y       z     vdW  Elec       q    Type
REMARK                         _______ _______ _______ _____ _____    ______ ____
ROOT
ATOM      1  C   UNL     1       0.992   9.112  19.358  0.00  0.00    +0.000 C 
ATOM      2  C   UNL     1       0.382   9.388  20.716  0.00  0.00    +0.000 A 
ATOM      3  C   UNL     1      -0.272   8.478  21.540  0.00  0.00    +0.000 A 
ATOM      4  C   UNL     1      -0.767   8.927  22.762  0.00  0.00    +0.000 A 
ATOM      5  C   UNL     1      -0.631  10.272  23.121  0.00  0.00    +0.000 A 
ATOM      6  C   UNL     1       0.008  11.183  22.271  0.00  0.00    +0.000 A 
ATOM      7  C   UNL     1       0.550  10.745  21.073  0.00  0.00    +0.000 A 
ATOM      8  C   UNL     1       1.298  11.433  20.016  0.00  0.00    +0.000 A 
ATOM      9  C   UNL     1       1.759  12.747  19.855  0.00  0.00    +0.000 A 
ATOM     10  C   UNL     1       2.428  13.059  18.646  0.00  0.00    +0.000 A 
ATOM     11  C   UNL     1       2.647  12.105  17.640  0.00  0.00    +0.000 A 
ATOM     12  C   UNL     1       2.214  10.799  17.810  0.00  0.00    +0.000 A 
ATOM     13  C   UNL     1       1.554  10.476  18.990  0.00  0.00    +0.000 A 
ENDROOT
BRANCH   9  14
ATOM     14  C   UNL     1       1.636  13.802  20.869  0.00  0.00    +0.000 A 
ATOM     15  N   UNL     1       2.617  14.405  21.513  0.00  0.00    +0.000 NA
ATOM     16  C   UNL     1       2.035  15.332  22.343  0.00  0.00    +0.000 A 
ATOM     17  C   UNL     1       2.602  16.206  23.274  0.00  0.00    +0.000 A 
ATOM     18  N   UNL     1       1.815  17.080  23.958  0.00  0.00    +0.000 NA
ATOM     19  C   UNL     1       0.481  17.082  23.716  0.00  0.00    +0.000 A 
ATOM     20  C   UNL     1      -0.178  16.235  22.832  0.00  0.00    +0.000 A 
ATOM     21  C   UNL     1       0.659  15.350  22.161  0.00  0.00    +0.000 A 
ATOM     22  N   UNL     1       0.428  14.356  21.246  0.00  0.00    +0.000 N 
ATOM     23  H   UNL     1      -0.475  14.071  20.898  0.00  0.00    +0.000 HD
ENDBRANCH   9  14
BRANCH   1  26
ATOM     24  O   UNL     1       1.712   7.251  17.354  0.00  0.00    +0.000 OA
ATOM     25  C   UNL     1       2.287   7.228  18.439  0.00  0.00    +0.000 C 
ATOM     26  N   UNL     1       2.019   8.102  19.459  0.00  0.00    +0.000 N 
ATOM     27  H   UNL     1       2.659   8.178  20.238  0.00  0.00    +0.000 HD
BRANCH  25  28
ATOM     28  C   UNL     1       3.366   6.243  18.674  0.00  0.00    +0.000 A 
ATOM     29  C   UNL     1       4.640   6.505  18.153  0.00  0.00    +0.000 A 
ATOM     30  C   UNL     1       5.651   5.582  18.362  0.00  0.00    +0.000 A 
ATOM     31  N   UNL     1       5.525   4.417  19.032  0.00  0.00    +0.000 NA
ATOM     32  C   UNL     1       4.279   4.200  19.490  0.00  0.00    +0.000 A 
ATOM     33  N   UNL     1       3.903   3.076  20.172  0.00  0.00    +0.000 N 
ATOM     34  C   UNL     1       2.569   3.143  20.477  0.00  0.00    +0.000 A 
ATOM     35  C   UNL     1       2.085   4.335  19.981  0.00  0.00    +0.000 A 
ATOM     36  C   UNL     1       3.166   5.028  19.362  0.00  0.00    +0.000 A 
ATOM     37  H   UNL     1       4.533   2.317  20.386  0.00  0.00    +0.000 HD
ENDBRANCH  25  28
ENDBRANCH   1  26
TORSDOF 3
ENDMDL
MODEL 8
REMARK VINA RESULT:      -7.2      1.390      2.274
REMARK  Name = 
REMARK  3 active torsions:
REMARK  status: ('A' for Active; 'I' for Inactive)
REMARK    1  A    between atoms: C_2  and  C_26
REMARK    2  A    between atoms: N_3  and  C_4
REMARK    3  A    between atoms: C_12  and  C_13
REMARK                            x       y       z     vdW  Elec       q    Type
REMARK                         _______ _______ _______ _____ _____    ______ ____
ROOT
ATOM      1  C   UNL     1       0.525  11.031  17.753  0.00  0.00    +0.000 C 
ATOM      2  C   UNL     1      -0.935  10.627  17.728  0.00  0.00    +0.000 A 
ATOM      3  C   UNL     1      -1.578   9.876  16.750  0.00  0.00    +0.000 A 
ATOM      4  C   UNL     1      -2.935   9.607  16.907  0.00  0.00    +0.000 A 
ATOM      5  C   UNL     1      -3.628  10.117  18.010  0.00  0.00    +0.000 A 
ATOM      6  C   UNL     1      -2.973  10.893  18.975  0.00  0.00    +0.000 A 
ATOM      7  C   UNL     1      -1.612  11.131  18.861  0.00  0.00    +0.000 A 
ATOM      8  C   UNL     1      -0.661  11.853  19.711  0.00  0.00    +0.000 A 
ATOM      9  C   UNL     1      -0.772  12.518  20.941  0.00  0.00    +0.000 A 
ATOM     10  C   UNL     1       0.391  13.149  21.447  0.00  0.00    +0.000 A 
ATOM     11  C   UNL     1       1.621  13.112  20.772  0.00  0.00    +0.000 A 
ATOM     12  C   UNL     1       1.737  12.432  19.569  0.00  0.00    +0.000 A 
ATOM     13  C   UNL     1       0.606  11.808  19.057  0.00  0.00    +0.000 A 
ENDROOT
BRANCH   9  14
ATOM     14  C   UNL     1      -1.993  12.563  21.754  0.00  0.00    +0.000 A 
ATOM     15  N   UNL     1      -2.169  12.044  22.955  0.00  0.00    +0.000 NA
ATOM     16  C   UNL     1      -3.454  12.350  23.334  0.00  0.00    +0.000 A 
ATOM     17  C   UNL     1      -4.171  12.008  24.482  0.00  0.00    +0.000 A 
ATOM     18  N   UNL     1      -5.437  12.474  24.661  0.00  0.00    +0.000 NA
ATOM     19  C   UNL     1      -5.979  13.269  23.706  0.00  0.00    +0.000 A 
ATOM     20  C   UNL     1      -5.356  13.641  22.520  0.00  0.00    +0.000 A 
ATOM     21  C   UNL     1      -4.069  13.136  22.370  0.00  0.00    +0.000 A 
ATOM     22  N   UNL     1      -3.137  13.234  21.370  0.00  0.00    +0.000 N 
ATOM     23  H   UNL     1      -3.260  13.718  20.494  0.00  0.00    +0.000 HD
ENDBRANCH   9  14
BRANCH   1  26
ATOM     24  O   UNL     1       0.788   9.157  19.854  0.00  0.00    +0.000 OA
ATOM     25  C   UNL     1       1.450   9.017  18.829  0.00  0.00    +0.000 C 
ATOM     26  N   UNL     1       1.373   9.862  17.754  0.00  0.00    +0.000 N 
ATOM     27  H   UNL     1       1.770   9.586  16.867  0.00  0.00    +0.000 HD
BRANCH  25  28
ATOM     28  C   UNL     1       2.357   7.856  18.698  0.00  0.00    +0.000 A 
ATOM     29  C   UNL     1       3.297   7.853  17.658  0.00  0.00    +0.000 A 
ATOM     30  C   UNL     1       4.144   6.764  17.525  0.00  0.00    +0.000 A 
ATOM     31  N   UNL     1       4.147   5.671  18.317  0.00  0.00    +0.000 NA
ATOM     32  C   UNL     1       3.211   5.711  19.282  0.00  0.00    +0.000 A 
ATOM     33  N   UNL     1       3.005   4.705  20.185  0.00  0.00    +0.000 N 
ATOM     34  C   UNL     1       1.968   5.034  21.017  0.00  0.00    +0.000 A 
ATOM     35  C   UNL     1       1.504   6.276  20.638  0.00  0.00    +0.000 A 
ATOM     36  C   UNL     1       2.296   6.728  19.542  0.00  0.00    +0.000 A 
ATOM     37  H   UNL     1       3.541   3.850  20.199  0.00  0.00    +0.000 HD
ENDBRANCH  25  28
ENDBRANCH   1  26
TORSDOF 3
ENDMDL
MODEL 9
REMARK VINA RESULT:      -7.1      3.011      9.295
REMARK  Name = 
REMARK  3 active torsions:
REMARK  status: ('A' for Active; 'I' for Inactive)
REMARK    1  A    between atoms: C_2  and  C_26
REMARK    2  A    between atoms: N_3  and  C_4
REMARK    3  A    between atoms: C_12  and  C_13
REMARK                            x       y       z     vdW  Elec       q    Type
REMARK                         _______ _______ _______ _____ _____    ______ ____
ROOT
ATOM      1  C   UNL     1      -2.039  11.631  21.026  0.00  0.00    +0.000 C 
ATOM      2  C   UNL     1      -1.881  11.266  19.564  0.00  0.00    +0.000 A 
ATOM      3  C   UNL     1      -2.578  11.804  18.487  0.00  0.00    +0.000 A 
ATOM      4  C   UNL     1      -2.287  11.333  17.209  0.00  0.00    +0.000 A 
ATOM      5  C   UNL     1      -1.340  10.320  17.034  0.00  0.00    +0.000 A 
ATOM      6  C   UNL     1      -0.664   9.769  18.130  0.00  0.00    +0.000 A 
ATOM      7  C   UNL     1      -0.904  10.257  19.404  0.00  0.00    +0.000 A 
ATOM      8  C   UNL     1      -0.336   9.923  20.714  0.00  0.00    +0.000 A 
ATOM      9  C   UNL     1       0.661   9.034  21.139  0.00  0.00    +0.000 A 
ATOM     10  C   UNL     1       0.914   8.955  22.530  0.00  0.00    +0.000 A 
ATOM     11  C   UNL     1       0.219   9.736  23.466  0.00  0.00    +0.000 A 
ATOM     12  C   UNL     1      -0.749  10.635  23.044  0.00  0.00    +0.000 A 
ATOM     13  C   UNL     1      -1.011  10.724  21.683  0.00  0.00    +0.000 A 
ENDROOT
BRANCH   9  14
ATOM     14  C   UNL     1       1.486   8.219  20.239  0.00  0.00    +0.000 A 
ATOM     15  N   UNL     1       2.034   8.598  19.100  0.00  0.00    +0.000 NA
ATOM     16  C   UNL     1       2.732   7.517  18.617  0.00  0.00    +0.000 A 
ATOM     17  C   UNL     1       3.453   7.353  17.433  0.00  0.00    +0.000 A 
ATOM     18  N   UNL     1       4.110   6.187  17.188  0.00  0.00    +0.000 NA
ATOM     19  C   UNL     1       4.047   5.198  18.114  0.00  0.00    +0.000 A 
ATOM     20  C   UNL     1       3.334   5.256  19.306  0.00  0.00    +0.000 A 
ATOM     21  C   UNL     1       2.668   6.459  19.513  0.00  0.00    +0.000 A 
ATOM     22  N   UNL     1       1.854   6.917  20.516  0.00  0.00    +0.000 N 
ATOM     23  H   UNL     1       1.567   6.393  21.329  0.00  0.00    +0.000 HD
ENDBRANCH   9  14
BRANCH   1  26
ATOM     24  O   UNL     1      -3.479  13.408  22.688  0.00  0.00    +0.000 OA
ATOM     25  C   UNL     1      -2.518  13.823  22.045  0.00  0.00    +0.000 C 
ATOM     26  N   UNL     1      -1.751  13.031  21.231  0.00  0.00    +0.000 N 
ATOM     27  H   UNL     1      -0.857  13.366  20.901  0.00  0.00    +0.000 HD
BRANCH  25  28
ATOM     28  C   UNL     1      -2.111  15.240  22.168  0.00  0.00    +0.000 A 
ATOM     29  C   UNL     1      -2.241  16.075  21.051  0.00  0.00    +0.000 A 
ATOM     30  C   UNL     1      -1.853  17.400  21.158  0.00  0.00    +0.000 A 
ATOM     31  N   UNL     1      -1.341  17.982  22.263  0.00  0.00    +0.000 NA
ATOM     32  C   UNL     1      -1.212  17.134  23.298  0.00  0.00    +0.000 A 
ATOM     33  N   UNL     1      -0.690  17.486  24.512  0.00  0.00    +0.000 N 
ATOM     34  C   UNL     1      -0.670  16.398  25.343  0.00  0.00    +0.000 A 
ATOM     35  C   UNL     1      -1.191  15.328  24.645  0.00  0.00    +0.000 A 
ATOM     36  C   UNL     1      -1.556  15.785  23.345  0.00  0.00    +0.000 A 
ATOM     37  H   UNL     1      -0.358  18.415  24.727  0.00  0.00    +0.000 HD
ENDBRANCH  25  28
ENDBRANCH   1  26
TORSDOF 3
ENDMDL
