MODEL 1
REMARK VINA RESULT:      -7.6      0.000      0.000
REMARK  Name = 
REMARK  6 active torsions:
REMARK  status: ('A' for Active; 'I' for Inactive)
REMARK    1  A    between atoms: C_1  and  C_2
REMARK    2  A    between atoms: C_6  and  C_7
REMARK    3  A    between atoms: C_8  and  N_9
REMARK    4  A    between atoms: N_9  and  S_10
REMARK    5  A    between atoms: S_10  and  C_13
REMARK    6  A    between atoms: N_17  and  C_18
REMARK                            x       y       z     vdW  Elec       q    Type
REMARK                         _______ _______ _______ _____ _____    ______ ____
ROOT
ATOM      1  N   UNL     1       4.578   3.433  17.824  0.00  0.00    +0.000 NA
ATOM      2  H   UNL     1       4.654   3.975  18.689  0.00  0.00    +0.000 HD
ENDROOT
BRANCH   1  10
ATOM      3  C   UNL     1       5.886   4.692  14.406  0.00  0.00    +0.000 C 
ATOM      4  C   UNL     1       5.937   4.045  15.793  0.00  0.00    +0.000 C 
ATOM      5  C   UNL     1       7.173   4.488  16.585  0.00  0.00    +0.000 C 
ATOM      6  C   UNL     1       7.104   5.943  17.029  0.00  0.00    +0.000 C 
ATOM      7  C   UNL     1       5.814   6.249  17.789  0.00  0.00    +0.000 C 
ATOM      8  C   UNL     1       4.561   5.797  17.021  0.00  0.00    +0.000 C 
ATOM      9  C   UNL     1       3.294   6.153  17.803  0.00  0.00    +0.000 C 
ATOM     10  C   UNL     1       4.643   4.301  16.603  0.00  0.00    +0.000 C 
ENDBRANCH   1  10
BRANCH   1  11
ATOM     11  S   UNL     1       3.264   2.398  18.032  0.00  0.00    +0.000 S 
ATOM     12  O   UNL     1       2.237   2.870  17.129  0.00  0.00    +0.000 OA
ATOM     13  O   UNL     1       3.731   1.033  18.000  0.00  0.00    +0.000 OA
BRANCH  11  14
ATOM     14  C   UNL     1       2.593   2.643  19.643  0.00  0.00    +0.000 A 
ATOM     15  C   UNL     1       1.343   3.066  20.074  0.00  0.00    +0.000 A 
ATOM     16  C   UNL     1       1.396   3.046  21.474  0.00  0.00    +0.000 A 
ATOM     17  N   UNL     1       2.580   2.635  21.924  0.00  0.00    +0.000 NA
ATOM     18  N   UNL     1       3.296   2.412  20.800  0.00  0.00    +0.000 N 
ATOM     19  C   UNL     1       4.646   1.921  20.941  0.00  0.00    +0.000 C 
ENDBRANCH  11  14
ENDBRANCH   1  11
TORSDOF 3
ENDMDL
MODEL 2
REMARK VINA RESULT:      -7.1      1.057      1.117
REMARK  Name = 
REMARK  6 active torsions:
REMARK  status: ('A' for Active; 'I' for Inactive)
REMARK    1  A    between atoms: C_1  and  C_2
REMARK    2  A    between atoms: C_6  and  C_7
REMARK    3  A    between atoms: C_8  and  N_9
REMARK    4  A    between atoms: N_9  and  S_10
REMARK    5  A    between atoms: S_10  and  C_13
REMARK    6  A    between atoms: N_17  and  C_18
REMARK                            x       y       z     vdW  Elec       q    Type
REMARK                         _______ _______ _______ _____ _____    ______ ____
ROOT
ATOM      1  N   UNL     1       3.999   3.512  17.595  0.00  0.00    +0.000 NA
ATOM      2  H   UNL     1       4.517   3.271  18.444  0.00  0.00    +0.000 HD
ENDROOT
BRANCH   1  10
ATOM      3  C   UNL     1       5.361   6.253  15.228  0.00  0.00    +0.000 C 
ATOM      4  C   UNL     1       5.272   4.886  15.912  0.00  0.00    +0.000 C 
ATOM      5  C   UNL     1       6.653   4.365  16.328  0.00  0.00    +0.000 C 
ATOM      6  C   UNL     1       7.259   5.146  17.487  0.00  0.00    +0.000 C 
ATOM      7  C   UNL     1       6.309   5.227  18.681  0.00  0.00    +0.000 C 
ATOM      8  C   UNL     1       4.912   5.731  18.284  0.00  0.00    +0.000 C 
ATOM      9  C   UNL     1       4.006   5.828  19.514  0.00  0.00    +0.000 C 
ATOM     10  C   UNL     1       4.303   4.900  17.118  0.00  0.00    +0.000 C 
ENDBRANCH   1  10
BRANCH   1  11
ATOM     11  S   UNL     1       2.397   3.070  17.883  0.00  0.00    +0.000 S 
ATOM     12  O   UNL     1       1.591   4.192  17.453  0.00  0.00    +0.000 OA
ATOM     13  O   UNL     1       2.177   1.739  17.372  0.00  0.00    +0.000 OA
BRANCH  11  14
ATOM     14  C   UNL     1       2.136   2.971  19.623  0.00  0.00    +0.000 A 
ATOM     15  C   UNL     1       1.026   3.238  20.413  0.00  0.00    +0.000 A 
ATOM     16  C   UNL     1       1.417   2.956  21.728  0.00  0.00    +0.000 A 
ATOM     17  N   UNL     1       2.677   2.531  21.795  0.00  0.00    +0.000 NA
ATOM     18  N   UNL     1       3.100   2.562  20.512  0.00  0.00    +0.000 N 
ATOM     19  C   UNL     1       4.446   2.126  20.230  0.00  0.00    +0.000 C 
ENDBRANCH  11  14
ENDBRANCH   1  11
TORSDOF 3
ENDMDL
MODEL 3
REMARK VINA RESULT:      -7.1      2.689      5.951
REMARK  Name = 
REMARK  6 active torsions:
REMARK  status: ('A' for Active; 'I' for Inactive)
REMARK    1  A    between atoms: C_1  and  C_2
REMARK    2  A    between atoms: C_6  and  C_7
REMARK    3  A    between atoms: C_8  and  N_9
REMARK    4  A    between atoms: N_9  and  S_10
REMARK    5  A    between atoms: S_10  and  C_13
REMARK    6  A    between atoms: N_17  and  C_18
REMARK                            x       y       z     vdW  Elec       q    Type
REMARK                         _______ _______ _______ _____ _____    ______ ____
ROOT
ATOM      1  N   UNL     1       4.329   4.093  19.206  0.00  0.00    +0.000 NA
ATOM      2  H   UNL     1       4.499   3.334  18.541  0.00  0.00    +0.000 HD
ENDROOT
BRANCH   1  10
ATOM      3  C   UNL     1       1.061   5.598  20.631  0.00  0.00    +0.000 C 
ATOM      4  C   UNL     1       2.406   4.864  20.637  0.00  0.00    +0.000 C 
ATOM      5  C   UNL     1       2.361   3.596  21.498  0.00  0.00    +0.000 C 
ATOM      6  C   UNL     1       1.514   2.490  20.884  0.00  0.00    +0.000 C 
ATOM      7  C   UNL     1       1.937   2.177  19.449  0.00  0.00    +0.000 C 
ATOM      8  C   UNL     1       2.007   3.436  18.570  0.00  0.00    +0.000 C 
ATOM      9  C   UNL     1       2.401   3.071  17.137  0.00  0.00    +0.000 C 
ATOM     10  C   UNL     1       2.899   4.541  19.207  0.00  0.00    +0.000 C 
ENDBRANCH   1  10
BRANCH   1  11
ATOM     11  S   UNL     1       5.549   5.228  18.943  0.00  0.00    +0.000 S 
ATOM     12  O   UNL     1       4.896   6.519  18.927  0.00  0.00    +0.000 OA
ATOM     13  O   UNL     1       6.652   4.948  19.831  0.00  0.00    +0.000 OA
BRANCH  11  14
ATOM     14  C   UNL     1       6.177   5.022  17.309  0.00  0.00    +0.000 A 
ATOM     15  C   UNL     1       5.959   4.047  16.345  0.00  0.00    +0.000 A 
ATOM     16  C   UNL     1       6.721   4.431  15.235  0.00  0.00    +0.000 A 
ATOM     17  N   UNL     1       7.380   5.569  15.449  0.00  0.00    +0.000 NA
ATOM     18  N   UNL     1       7.050   5.902  16.717  0.00  0.00    +0.000 N 
ATOM     19  C   UNL     1       7.588   7.127  17.259  0.00  0.00    +0.000 C 
ENDBRANCH  11  14
ENDBRANCH   1  11
TORSDOF 3
ENDMDL
MODEL 4
REMARK VINA RESULT:      -7.0      1.286      1.704
REMARK  Name = 
REMARK  6 active torsions:
REMARK  status: ('A' for Active; 'I' for Inactive)
REMARK    1  A    between atoms: C_1  and  C_2
REMARK    2  A    between atoms: C_6  and  C_7
REMARK    3  A    between atoms: C_8  and  N_9
REMARK    4  A    between atoms: N_9  and  S_10
REMARK    5  A    between atoms: S_10  and  C_13
REMARK    6  A    between atoms: N_17  and  C_18
REMARK                            x       y       z     vdW  Elec       q    Type
REMARK                         _______ _______ _______ _____ _____    ______ ____
ROOT
ATOM      1  N   UNL     1       5.014   3.865  18.631  0.00  0.00    +0.000 NA
ATOM      2  H   UNL     1       4.748   4.561  19.334  0.00  0.00    +0.000 HD
ENDROOT
BRANCH   1  10
ATOM      3  C   UNL     1       5.656   4.170  14.828  0.00  0.00    +0.000 C 
ATOM      4  C   UNL     1       5.978   3.930  16.306  0.00  0.00    +0.000 C 
ATOM      5  C   UNL     1       7.290   4.606  16.722  0.00  0.00    +0.000 C 
ATOM      6  C   UNL     1       7.187   6.125  16.767  0.00  0.00    +0.000 C 
ATOM      7  C   UNL     1       6.018   6.594  17.632  0.00  0.00    +0.000 C 
ATOM      8  C   UNL     1       4.694   5.915  17.245  0.00  0.00    +0.000 C 
ATOM      9  C   UNL     1       3.547   6.439  18.113  0.00  0.00    +0.000 C 
ATOM     10  C   UNL     1       4.817   4.364  17.232  0.00  0.00    +0.000 C 
ENDBRANCH   1  10
BRANCH   1  11
ATOM     11  S   UNL     1       4.282   2.421  19.103  0.00  0.00    +0.000 S 
ATOM     12  O   UNL     1       3.779   1.814  17.890  0.00  0.00    +0.000 OA
ATOM     13  O   UNL     1       5.169   1.712  19.993  0.00  0.00    +0.000 OA
BRANCH  11  14
ATOM     14  C   UNL     1       2.842   2.793  20.049  0.00  0.00    +0.000 A 
ATOM     15  C   UNL     1       2.569   2.691  21.406  0.00  0.00    +0.000 A 
ATOM     16  C   UNL     1       1.257   3.153  21.568  0.00  0.00    +0.000 A 
ATOM     17  N   UNL     1       0.715   3.535  20.413  0.00  0.00    +0.000 NA
ATOM     18  N   UNL     1       1.685   3.294  19.502  0.00  0.00    +0.000 N 
ATOM     19  C   UNL     1       1.422   3.631  18.125  0.00  0.00    +0.000 C 
ENDBRANCH  11  14
ENDBRANCH   1  11
TORSDOF 3
ENDMDL
MODEL 5
REMARK VINA RESULT:      -7.0      2.676      5.779
REMARK  Name = 
REMARK  6 active torsions:
REMARK  status: ('A' for Active; 'I' for Inactive)
REMARK    1  A    between atoms: C_1  and  C_2
REMARK    2  A    between atoms: C_6  and  C_7
REMARK    3  A    between atoms: C_8  and  N_9
REMARK    4  A    between atoms: N_9  and  S_10
REMARK    5  A    between atoms: S_10  and  C_13
REMARK    6  A    between atoms: N_17  and  C_18
REMARK                            x       y       z     vdW  Elec       q    Type
REMARK                         _______ _______ _______ _____ _____    ______ ____
ROOT
ATOM      1  N   UNL     1       4.606   3.886  19.283  0.00  0.00    +0.000 NA
ATOM      2  H   UNL     1       5.228   3.074  19.316  0.00  0.00    +0.000 HD
ENDROOT
BRANCH   1  10
ATOM      3  C   UNL     1       1.243   4.692  17.547  0.00  0.00    +0.000 C 
ATOM      4  C   UNL     1       2.333   4.745  18.621  0.00  0.00    +0.000 C 
ATOM      5  C   UNL     1       1.745   4.677  20.036  0.00  0.00    +0.000 C 
ATOM      6  C   UNL     1       1.173   3.307  20.377  0.00  0.00    +0.000 C 
ATOM      7  C   UNL     1       2.188   2.190  20.139  0.00  0.00    +0.000 C 
ATOM      8  C   UNL     1       2.805   2.248  18.732  0.00  0.00    +0.000 C 
ATOM      9  C   UNL     1       3.787   1.093  18.526  0.00  0.00    +0.000 C 
ATOM     10  C   UNL     1       3.405   3.649  18.417  0.00  0.00    +0.000 C 
ENDBRANCH   1  10
BRANCH   1  11
ATOM     11  S   UNL     1       5.591   5.220  18.980  0.00  0.00    +0.000 S 
ATOM     12  O   UNL     1       4.707   6.364  18.919  0.00  0.00    +0.000 OA
ATOM     13  O   UNL     1       6.721   5.184  19.877  0.00  0.00    +0.000 OA
BRANCH  11  14
ATOM     14  C   UNL     1       6.258   5.081  17.355  0.00  0.00    +0.000 A 
ATOM     15  C   UNL     1       6.112   4.113  16.370  0.00  0.00    +0.000 A 
ATOM     16  C   UNL     1       6.870   4.560  15.281  0.00  0.00    +0.000 A 
ATOM     17  N   UNL     1       7.458   5.729  15.527  0.00  0.00    +0.000 NA
ATOM     18  N   UNL     1       7.089   6.020  16.794  0.00  0.00    +0.000 N 
ATOM     19  C   UNL     1       7.546   7.262  17.367  0.00  0.00    +0.000 C 
ENDBRANCH  11  14
ENDBRANCH   1  11
TORSDOF 3
ENDMDL
MODEL 6
REMARK VINA RESULT:      -6.9      0.881      1.425
REMARK  Name = 
REMARK  6 active torsions:
REMARK  status: ('A' for Active; 'I' for Inactive)
REMARK    1  A    between atoms: C_1  and  C_2
REMARK    2  A    between atoms: C_6  and  C_7
REMARK    3  A    between atoms: C_8  and  N_9
REMARK    4  A    between atoms: N_9  and  S_10
REMARK    5  A    between atoms: S_10  and  C_13
REMARK    6  A    between atoms: N_17  and  C_18
REMARK                            x       y       z     vdW  Elec       q    Type
REMARK                         _______ _______ _______ _____ _____    ______ ____
ROOT
ATOM      1  N   UNL     1       4.756   3.365  17.841  0.00  0.00    +0.000 NA
ATOM      2  H   UNL     1       4.843   3.897  18.711  0.00  0.00    +0.000 HD
ENDROOT
BRANCH   1  10
ATOM      3  C   UNL     1       6.012   4.706  14.436  0.00  0.00    +0.000 C 
ATOM      4  C   UNL     1       6.088   4.047  15.816  0.00  0.00    +0.000 C 
ATOM      5  C   UNL     1       7.308   4.528  16.612  0.00  0.00    +0.000 C 
ATOM      6  C   UNL     1       7.185   5.975  17.070  0.00  0.00    +0.000 C 
ATOM      7  C   UNL     1       5.886   6.225  17.834  0.00  0.00    +0.000 C 
ATOM      8  C   UNL     1       4.650   5.734  17.063  0.00  0.00    +0.000 C 
ATOM      9  C   UNL     1       3.371   6.034  17.848  0.00  0.00    +0.000 C 
ATOM     10  C   UNL     1       4.787   4.246  16.629  0.00  0.00    +0.000 C 
ENDBRANCH   1  10
BRANCH   1  11
ATOM     11  S   UNL     1       3.457   2.312  18.063  0.00  0.00    +0.000 S 
ATOM     12  O   UNL     1       2.449   2.716  17.107  0.00  0.00    +0.000 OA
ATOM     13  O   UNL     1       3.953   0.958  18.115  0.00  0.00    +0.000 OA
BRANCH  11  14
ATOM     14  C   UNL     1       2.732   2.624  19.639  0.00  0.00    +0.000 A 
ATOM     15  C   UNL     1       3.290   2.892  20.882  0.00  0.00    +0.000 A 
ATOM     16  C   UNL     1       2.209   3.073  21.754  0.00  0.00    +0.000 A 
ATOM     17  N   UNL     1       1.037   2.942  21.133  0.00  0.00    +0.000 NA
ATOM     18  N   UNL     1       1.376   2.654  19.856  0.00  0.00    +0.000 N 
ATOM     19  C   UNL     1       0.315   2.476  18.896  0.00  0.00    +0.000 C 
ENDBRANCH  11  14
ENDBRANCH   1  11
TORSDOF 3
ENDMDL
MODEL 7
REMARK VINA RESULT:      -6.9      2.492      5.889
REMARK  Name = 
REMARK  6 active torsions:
REMARK  status: ('A' for Active; 'I' for Inactive)
REMARK    1  A    between atoms: C_1  and  C_2
REMARK    2  A    between atoms: C_6  and  C_7
REMARK    3  A    between atoms: C_8  and  N_9
REMARK    4  A    between atoms: N_9  and  S_10
REMARK    5  A    between atoms: S_10  and  C_13
REMARK    6  A    between atoms: N_17  and  C_18
REMARK                            x       y       z     vdW  Elec       q    Type
REMARK                         _______ _______ _______ _____ _____    ______ ____
ROOT
ATOM      1  N   UNL     1       4.125   3.952  18.616  0.00  0.00    +0.000 NA
ATOM      2  H   UNL     1       3.765   3.912  17.659  0.00  0.00    +0.000 HD
ENDROOT
BRANCH   1  10
ATOM      3  C   UNL     1       1.858   3.150  21.647  0.00  0.00    +0.000 C 
ATOM      4  C   UNL     1       2.742   2.879  20.427  0.00  0.00    +0.000 C 
ATOM      5  C   UNL     1       2.146   1.797  19.519  0.00  0.00    +0.000 C 
ATOM      6  C   UNL     1       0.897   2.260  18.781  0.00  0.00    +0.000 C 
ATOM      7  C   UNL     1       1.134   3.562  18.018  0.00  0.00    +0.000 C 
ATOM      8  C   UNL     1       1.749   4.658  18.904  0.00  0.00    +0.000 C 
ATOM      9  C   UNL     1       1.937   5.952  18.107  0.00  0.00    +0.000 C 
ATOM     10  C   UNL     1       3.038   4.169  19.625  0.00  0.00    +0.000 C 
ENDBRANCH   1  10
BRANCH   1  11
ATOM     11  S   UNL     1       5.439   5.008  18.579  0.00  0.00    +0.000 S 
ATOM     12  O   UNL     1       4.883   6.340  18.671  0.00  0.00    +0.000 OA
ATOM     13  O   UNL     1       6.444   4.542  19.504  0.00  0.00    +0.000 OA
BRANCH  11  14
ATOM     14  C   UNL     1       6.182   4.941  16.982  0.00  0.00    +0.000 A 
ATOM     15  C   UNL     1       6.045   4.044  15.931  0.00  0.00    +0.000 A 
ATOM     16  C   UNL     1       6.876   4.523  14.910  0.00  0.00    +0.000 A 
ATOM     17  N   UNL     1       7.500   5.647  15.259  0.00  0.00    +0.000 NA
ATOM     18  N   UNL     1       7.079   5.875  16.524  0.00  0.00    +0.000 N 
ATOM     19  C   UNL     1       7.558   7.057  17.197  0.00  0.00    +0.000 C 
ENDBRANCH  11  14
ENDBRANCH   1  11
TORSDOF 3
ENDMDL
MODEL 8
REMARK VINA RESULT:      -6.8      2.630      5.692
REMARK  Name = 
REMARK  6 active torsions:
REMARK  status: ('A' for Active; 'I' for Inactive)
REMARK    1  A    between atoms: C_1  and  C_2
REMARK    2  A    between atoms: C_6  and  C_7
REMARK    3  A    between atoms: C_8  and  N_9
REMARK    4  A    between atoms: N_9  and  S_10
REMARK    5  A    between atoms: S_10  and  C_13
REMARK    6  A    between atoms: N_17  and  C_18
REMARK                            x       y       z     vdW  Elec       q    Type
REMARK                         _______ _______ _______ _____ _____    ______ ____
ROOT
ATOM      1  N   UNL     1       3.288   4.858  18.323  0.00  0.00    +0.000 NA
ATOM      2  H   UNL     1       2.496   5.422  18.642  0.00  0.00    +0.000 HD
ENDROOT
BRANCH   1  10
ATOM      3  C   UNL     1       3.840   1.081  18.956  0.00  0.00    +0.000 C 
ATOM      4  C   UNL     1       3.389   2.344  18.217  0.00  0.00    +0.000 C 
ATOM      5  C   UNL     1       1.993   2.178  17.603  0.00  0.00    +0.000 C 
ATOM      6  C   UNL     1       0.886   2.132  18.647  0.00  0.00    +0.000 C 
ATOM      7  C   UNL     1       0.942   3.330  19.594  0.00  0.00    +0.000 C 
ATOM      8  C   UNL     1       2.337   3.527  20.208  0.00  0.00    +0.000 C 
ATOM      9  C   UNL     1       2.337   4.715  21.173  0.00  0.00    +0.000 C 
ATOM     10  C   UNL     1       3.447   3.598  19.121  0.00  0.00    +0.000 C 
ENDBRANCH   1  10
BRANCH   1  11
ATOM     11  S   UNL     1       4.593   5.917  18.185  0.00  0.00    +0.000 S 
ATOM     12  O   UNL     1       4.037   7.180  17.749  0.00  0.00    +0.000 OA
ATOM     13  O   UNL     1       5.407   5.819  19.373  0.00  0.00    +0.000 OA
BRANCH  11  14
ATOM     14  C   UNL     1       5.617   5.392  16.851  0.00  0.00    +0.000 A 
ATOM     15  C   UNL     1       5.448   4.416  15.878  0.00  0.00    +0.000 A 
ATOM     16  C   UNL     1       6.594   4.475  15.075  0.00  0.00    +0.000 A 
ATOM     17  N   UNL     1       7.443   5.418  15.483  0.00  0.00    +0.000 NA
ATOM     18  N   UNL     1       6.840   5.951  16.569  0.00  0.00    +0.000 N 
ATOM     19  C   UNL     1       7.500   7.040  17.246  0.00  0.00    +0.000 C 
ENDBRANCH  11  14
ENDBRANCH   1  11
TORSDOF 3
ENDMDL
MODEL 9
REMARK VINA RESULT:      -6.8      1.164      1.891
REMARK  Name = 
REMARK  6 active torsions:
REMARK  status: ('A' for Active; 'I' for Inactive)
REMARK    1  A    between atoms: C_1  and  C_2
REMARK    2  A    between atoms: C_6  and  C_7
REMARK    3  A    between atoms: C_8  and  N_9
REMARK    4  A    between atoms: N_9  and  S_10
REMARK    5  A    between atoms: S_10  and  C_13
REMARK    6  A    between atoms: N_17  and  C_18
REMARK                            x       y       z     vdW  Elec       q    Type
REMARK                         _______ _______ _______ _____ _____    ______ ____
ROOT
ATOM      1  N   UNL     1       4.610   4.215  18.229  0.00  0.00    +0.000 NA
ATOM      2  H   UNL     1       4.919   4.107  19.199  0.00  0.00    +0.000 HD
ENDROOT
BRANCH   1  10
ATOM      3  C   UNL     1       5.103   6.891  15.479  0.00  0.00    +0.000 C 
ATOM      4  C   UNL     1       4.853   5.505  16.081  0.00  0.00    +0.000 C 
ATOM      5  C   UNL     1       5.653   4.416  15.357  0.00  0.00    +0.000 C 
ATOM      6  C   UNL     1       7.150   4.500  15.626  0.00  0.00    +0.000 C 
ATOM      7  C   UNL     1       7.462   4.523  17.122  0.00  0.00    +0.000 C 
ATOM      8  C   UNL     1       6.657   5.597  17.871  0.00  0.00    +0.000 C 
ATOM      9  C   UNL     1       7.026   5.607  19.357  0.00  0.00    +0.000 C 
ATOM     10  C   UNL     1       5.129   5.474  17.603  0.00  0.00    +0.000 C 
ENDBRANCH   1  10
BRANCH   1  11
ATOM     11  S   UNL     1       2.950   3.917  18.231  0.00  0.00    +0.000 S 
ATOM     12  O   UNL     1       2.315   5.201  18.025  0.00  0.00    +0.000 OA
ATOM     13  O   UNL     1       2.674   2.789  17.374  0.00  0.00    +0.000 OA
BRANCH  11  14
ATOM     14  C   UNL     1       2.459   3.427  19.850  0.00  0.00    +0.000 A 
ATOM     15  C   UNL     1       1.308   3.675  20.587  0.00  0.00    +0.000 A 
ATOM     16  C   UNL     1       1.484   3.005  21.805  0.00  0.00    +0.000 A 
ATOM     17  N   UNL     1       2.650   2.364  21.860  0.00  0.00    +0.000 NA
ATOM     18  N   UNL     1       3.233   2.646  20.673  0.00  0.00    +0.000 N 
ATOM     19  C   UNL     1       4.525   2.068  20.397  0.00  0.00    +0.000 C 
ENDBRANCH  11  14
ENDBRANCH   1  11
TORSDOF 3
ENDMDL
