MODEL 1
REMARK VINA RESULT:      -7.0      0.000      0.000
REMARK  Name = 
REMARK  5 active torsions:
REMARK  status: ('A' for Active; 'I' for Inactive)
REMARK    1  A    between atoms: C_1  and  O_2
REMARK    2  A    between atoms: O_2  and  C_3
REMARK    3  A    between atoms: C_9  and  C_10
REMARK    4  A    between atoms: N_12  and  C_13
REMARK    5  A    between atoms: C_19  and  O_20
REMARK                            x       y       z     vdW  Elec       q    Type
REMARK                         _______ _______ _______ _____ _____    ______ ____
ROOT
ATOM      1  C   UNL     1       2.603   6.805  19.002  0.00  0.00    +0.000 C 
ATOM      2  O   UNL     1       2.249   6.334  20.082  0.00  0.00    +0.000 OA
ATOM      3  N   UNL     1       2.288   8.077  18.566  0.00  0.00    +0.000 N 
ATOM      4  H   UNL     1       2.530   8.337  17.611  0.00  0.00    +0.000 HD
ENDROOT
BRANCH   1  11
ATOM      5  C   UNL     1       3.084   4.566  17.786  0.00  0.00    +0.000 A 
ATOM      6  C   UNL     1       3.920   3.866  16.897  0.00  0.00    +0.000 A 
ATOM      7  C   UNL     1       5.034   4.482  16.320  0.00  0.00    +0.000 A 
ATOM      8 CL   UNL     1       6.038   3.599  15.237  0.00  0.00    +0.000 Cl
ATOM      9  C   UNL     1       5.340   5.801  16.615  0.00  0.00    +0.000 A 
ATOM     10  C   UNL     1       4.522   6.505  17.495  0.00  0.00    +0.000 A 
ATOM     11  C   UNL     1       3.390   5.906  18.094  0.00  0.00    +0.000 A 
BRANCH   5  13
ATOM     12  C   UNL     1       2.121   2.722  18.967  0.00  0.00    +0.000 C 
ATOM     13  O   UNL     1       1.976   4.009  18.372  0.00  0.00    +0.000 OA
ENDBRANCH   5  13
ENDBRANCH   1  11
BRANCH   3  14
ATOM     14  C   UNL     1       1.560   9.056  19.292  0.00  0.00    +0.000 A 
ATOM     15  C   UNL     1       1.046   8.833  20.572  0.00  0.00    +0.000 A 
ATOM     16  C   UNL     1       0.318   9.824  21.228  0.00  0.00    +0.000 A 
ATOM     17 BR   UNL     1      -0.366   9.489  22.960  0.00  0.00    +0.000 Br
ATOM     18  C   UNL     1       0.091  11.057  20.623  0.00  0.00    +0.000 A 
ATOM     19  C   UNL     1       0.612  11.304  19.351  0.00  0.00    +0.000 A 
ATOM     20  C   UNL     1       1.348  10.310  18.699  0.00  0.00    +0.000 A 
BRANCH  20  21
ATOM     21  O   UNL     1       1.860  10.546  17.448  0.00  0.00    +0.000 OA
ATOM     22  H   UNL     1       1.136  10.470  16.804  0.00  0.00    +0.000 HD
ENDBRANCH  20  21
ENDBRANCH   3  14
TORSDOF 4
ENDMDL
MODEL 2
REMARK VINA RESULT:      -7.0      3.245      4.761
REMARK  Name = 
REMARK  5 active torsions:
REMARK  status: ('A' for Active; 'I' for Inactive)
REMARK    1  A    between atoms: C_1  and  O_2
REMARK    2  A    between atoms: O_2  and  C_3
REMARK    3  A    between atoms: C_9  and  C_10
REMARK    4  A    between atoms: N_12  and  C_13
REMARK    5  A    between atoms: C_19  and  O_20
REMARK                            x       y       z     vdW  Elec       q    Type
REMARK                         _______ _______ _______ _____ _____    ______ ____
ROOT
ATOM      1  C   UNL     1       5.119   4.665  17.399  0.00  0.00    +0.000 C 
ATOM      2  O   UNL     1       5.769   4.214  18.341  0.00  0.00    +0.000 OA
ATOM      3  N   UNL     1       3.821   5.125  17.498  0.00  0.00    +0.000 N 
ATOM      4  H   UNL     1       3.327   5.374  16.641  0.00  0.00    +0.000 HD
ENDROOT
BRANCH   1  11
ATOM      5  C   UNL     1       7.032   5.236  15.746  0.00  0.00    +0.000 A 
ATOM      6  C   UNL     1       7.523   5.131  14.431  0.00  0.00    +0.000 A 
ATOM      7  C   UNL     1       6.791   4.469  13.441  0.00  0.00    +0.000 A 
ATOM      8 CL   UNL     1       7.415   4.358  11.842  0.00  0.00    +0.000 Cl
ATOM      9  C   UNL     1       5.562   3.901  13.736  0.00  0.00    +0.000 A 
ATOM     10  C   UNL     1       5.065   3.999  15.033  0.00  0.00    +0.000 A 
ATOM     11  C   UNL     1       5.783   4.664  16.053  0.00  0.00    +0.000 A 
BRANCH   5  13
ATOM     12  C   UNL     1       7.358   7.217  17.047  0.00  0.00    +0.000 C 
ATOM     13  O   UNL     1       7.715   5.868  16.753  0.00  0.00    +0.000 OA
ENDBRANCH   5  13
ENDBRANCH   1  11
BRANCH   3  14
ATOM     14  C   UNL     1       3.047   5.202  18.686  0.00  0.00    +0.000 A 
ATOM     15  C   UNL     1       2.701   4.082  19.447  0.00  0.00    +0.000 A 
ATOM     16  C   UNL     1       1.918   4.216  20.592  0.00  0.00    +0.000 A 
ATOM     17 BR   UNL     1       1.466   2.679  21.599  0.00  0.00    +0.000 Br
ATOM     18  C   UNL     1       1.466   5.467  21.002  0.00  0.00    +0.000 A 
ATOM     19  C   UNL     1       1.816   6.600  20.263  0.00  0.00    +0.000 A 
ATOM     20  C   UNL     1       2.609   6.462  19.119  0.00  0.00    +0.000 A 
BRANCH  20  21
ATOM     21  O   UNL     1       2.953   7.572  18.388  0.00  0.00    +0.000 OA
ATOM     22  H   UNL     1       2.606   7.461  17.487  0.00  0.00    +0.000 HD
ENDBRANCH  20  21
ENDBRANCH   3  14
TORSDOF 4
ENDMDL
MODEL 3
REMARK VINA RESULT:      -7.0      3.903      7.197
REMARK  Name = 
REMARK  5 active torsions:
REMARK  status: ('A' for Active; 'I' for Inactive)
REMARK    1  A    between atoms: C_1  and  O_2
REMARK    2  A    between atoms: O_2  and  C_3
REMARK    3  A    between atoms: C_9  and  C_10
REMARK    4  A    between atoms: N_12  and  C_13
REMARK    5  A    between atoms: C_19  and  O_20
REMARK                            x       y       z     vdW  Elec       q    Type
REMARK                         _______ _______ _______ _____ _____    ______ ____
ROOT
ATOM      1  C   UNL     1       2.099   8.033  18.898  0.00  0.00    +0.000 C 
ATOM      2  O   UNL     1       2.475   8.632  17.892  0.00  0.00    +0.000 OA
ATOM      3  N   UNL     1       2.371   6.704  19.159  0.00  0.00    +0.000 N 
ATOM      4  H   UNL     1       1.922   6.265  19.962  0.00  0.00    +0.000 HD
ENDROOT
BRANCH   1  11
ATOM      5  C   UNL     1       0.290   9.773  19.544  0.00  0.00    +0.000 A 
ATOM      6  C   UNL     1      -0.434  10.389  20.581  0.00  0.00    +0.000 A 
ATOM      7  C   UNL     1      -0.210  10.045  21.917  0.00  0.00    +0.000 A 
ATOM      8 CL   UNL     1      -1.110  10.816  23.165  0.00  0.00    +0.000 Cl
ATOM      9  C   UNL     1       0.733   9.085  22.248  0.00  0.00    +0.000 A 
ATOM     10  C   UNL     1       1.457   8.469  21.231  0.00  0.00    +0.000 A 
ATOM     11  C   UNL     1       1.254   8.800  19.872  0.00  0.00    +0.000 A 
BRANCH   5  13
ATOM     12  C   UNL     1      -1.239  10.148  17.743  0.00  0.00    +0.000 C 
ATOM     13  O   UNL     1       0.103  10.071  18.218  0.00  0.00    +0.000 OA
ENDBRANCH   5  13
ENDBRANCH   1  11
BRANCH   3  14
ATOM     14  C   UNL     1       3.154   5.834  18.355  0.00  0.00    +0.000 A 
ATOM     15  C   UNL     1       4.457   6.134  17.950  0.00  0.00    +0.000 A 
ATOM     16  C   UNL     1       5.170   5.252  17.140  0.00  0.00    +0.000 A 
ATOM     17 BR   UNL     1       6.933   5.690  16.607  0.00  0.00    +0.000 Br
ATOM     18  C   UNL     1       4.599   4.054  16.720  0.00  0.00    +0.000 A 
ATOM     19  C   UNL     1       3.304   3.729  17.129  0.00  0.00    +0.000 A 
ATOM     20  C   UNL     1       2.595   4.613  17.948  0.00  0.00    +0.000 A 
BRANCH  20  21
ATOM     21  O   UNL     1       1.320   4.300  18.351  0.00  0.00    +0.000 OA
ATOM     22  H   UNL     1       0.704   4.589  17.658  0.00  0.00    +0.000 HD
ENDBRANCH  20  21
ENDBRANCH   3  14
TORSDOF 4
ENDMDL
MODEL 4
REMARK VINA RESULT:      -6.9      4.188      7.005
REMARK  Name = 
REMARK  5 active torsions:
REMARK  status: ('A' for Active; 'I' for Inactive)
REMARK    1  A    between atoms: C_1  and  O_2
REMARK    2  A    between atoms: O_2  and  C_3
REMARK    3  A    between atoms: C_9  and  C_10
REMARK    4  A    between atoms: N_12  and  C_13
REMARK    5  A    between atoms: C_19  and  O_20
REMARK                            x       y       z     vdW  Elec       q    Type
REMARK                         _______ _______ _______ _____ _____    ______ ____
ROOT
ATOM      1  C   UNL     1       3.207   6.456  17.963  0.00  0.00    +0.000 C 
ATOM      2  O   UNL     1       2.644   5.408  17.650  0.00  0.00    +0.000 OA
ATOM      3  N   UNL     1       4.547   6.715  17.747  0.00  0.00    +0.000 N 
ATOM      4  H   UNL     1       4.947   7.565  18.142  0.00  0.00    +0.000 HD
ENDROOT
BRANCH   1  11
ATOM      5  C   UNL     1       1.958   7.443  20.008  0.00  0.00    +0.000 A 
ATOM      6  C   UNL     1       1.196   8.510  20.520  0.00  0.00    +0.000 A 
ATOM      7  C   UNL     1       0.861   9.604  19.718  0.00  0.00    +0.000 A 
ATOM      8 CL   UNL     1      -0.073  10.893  20.371  0.00  0.00    +0.000 Cl
ATOM      9  C   UNL     1       1.274   9.660  18.396  0.00  0.00    +0.000 A 
ATOM     10  C   UNL     1       2.026   8.610  17.877  0.00  0.00    +0.000 A 
ATOM     11  C   UNL     1       2.378   7.491  18.665  0.00  0.00    +0.000 A 
BRANCH   5  13
ATOM     12  C   UNL     1       1.440   5.229  20.752  0.00  0.00    +0.000 C 
ATOM     13  O   UNL     1       2.319   6.352  20.756  0.00  0.00    +0.000 OA
ENDBRANCH   5  13
ENDBRANCH   1  11
BRANCH   3  14
ATOM     14  C   UNL     1       5.472   5.856  17.097  0.00  0.00    +0.000 A 
ATOM     15  C   UNL     1       5.309   5.410  15.782  0.00  0.00    +0.000 A 
ATOM     16  C   UNL     1       6.239   4.549  15.204  0.00  0.00    +0.000 A 
ATOM     17 BR   UNL     1       5.987   3.963  13.422  0.00  0.00    +0.000 Br
ATOM     18  C   UNL     1       7.350   4.116  15.922  0.00  0.00    +0.000 A 
ATOM     19  C   UNL     1       7.539   4.564  17.231  0.00  0.00    +0.000 A 
ATOM     20  C   UNL     1       6.607   5.435  17.806  0.00  0.00    +0.000 A 
BRANCH  20  21
ATOM     21  O   UNL     1       6.787   5.877  19.093  0.00  0.00    +0.000 OA
ATOM     22  H   UNL     1       7.741   5.924  19.268  0.00  0.00    +0.000 HD
ENDBRANCH  20  21
ENDBRANCH   3  14
TORSDOF 4
ENDMDL
MODEL 5
REMARK VINA RESULT:      -6.9      1.661      2.307
REMARK  Name = 
REMARK  5 active torsions:
REMARK  status: ('A' for Active; 'I' for Inactive)
REMARK    1  A    between atoms: C_1  and  O_2
REMARK    2  A    between atoms: O_2  and  C_3
REMARK    3  A    between atoms: C_9  and  C_10
REMARK    4  A    between atoms: N_12  and  C_13
REMARK    5  A    between atoms: C_19  and  O_20
REMARK                            x       y       z     vdW  Elec       q    Type
REMARK                         _______ _______ _______ _____ _____    ______ ____
ROOT
ATOM      1  C   UNL     1       2.379   8.139  18.180  0.00  0.00    +0.000 C 
ATOM      2  O   UNL     1       2.229   9.067  17.387  0.00  0.00    +0.000 OA
ATOM      3  N   UNL     1       1.836   8.105  19.450  0.00  0.00    +0.000 N 
ATOM      4  H   UNL     1       2.108   7.347  20.074  0.00  0.00    +0.000 HD
ENDROOT
BRANCH   1  11
ATOM      5  C   UNL     1       3.037   5.637  18.025  0.00  0.00    +0.000 A 
ATOM      6  C   UNL     1       3.943   4.687  17.516  0.00  0.00    +0.000 A 
ATOM      7  C   UNL     1       5.032   5.079  16.734  0.00  0.00    +0.000 A 
ATOM      8 CL   UNL     1       6.123   3.896  16.127  0.00  0.00    +0.000 Cl
ATOM      9  C   UNL     1       5.245   6.418  16.443  0.00  0.00    +0.000 A 
ATOM     10  C   UNL     1       4.358   7.367  16.943  0.00  0.00    +0.000 A 
ATOM     11  C   UNL     1       3.248   6.999  17.738  0.00  0.00    +0.000 A 
BRANCH   5  13
ATOM     12  C   UNL     1       1.473   3.961  18.709  0.00  0.00    +0.000 C 
ATOM     13  O   UNL     1       1.950   5.302  18.791  0.00  0.00    +0.000 OA
ENDBRANCH   5  13
ENDBRANCH   1  11
BRANCH   3  14
ATOM     14  C   UNL     1       0.990   9.089  20.027  0.00  0.00    +0.000 A 
ATOM     15  C   UNL     1       0.122   9.886  19.277  0.00  0.00    +0.000 A 
ATOM     16  C   UNL     1      -0.668  10.853  19.896  0.00  0.00    +0.000 A 
ATOM     17 BR   UNL     1      -1.833  11.917  18.850  0.00  0.00    +0.000 Br
ATOM     18  C   UNL     1      -0.610  11.043  21.273  0.00  0.00    +0.000 A 
ATOM     19  C   UNL     1       0.239  10.244  22.042  0.00  0.00    +0.000 A 
ATOM     20  C   UNL     1       1.025   9.269  21.418  0.00  0.00    +0.000 A 
BRANCH  20  21
ATOM     21  O   UNL     1       1.863   8.483  22.168  0.00  0.00    +0.000 OA
ATOM     22  H   UNL     1       1.329   8.016  22.832  0.00  0.00    +0.000 HD
ENDBRANCH  20  21
ENDBRANCH   3  14
TORSDOF 4
ENDMDL
MODEL 6
REMARK VINA RESULT:      -6.9      3.291      4.886
REMARK  Name = 
REMARK  5 active torsions:
REMARK  status: ('A' for Active; 'I' for Inactive)
REMARK    1  A    between atoms: C_1  and  O_2
REMARK    2  A    between atoms: O_2  and  C_3
REMARK    3  A    between atoms: C_9  and  C_10
REMARK    4  A    between atoms: N_12  and  C_13
REMARK    5  A    between atoms: C_19  and  O_20
REMARK                            x       y       z     vdW  Elec       q    Type
REMARK                         _______ _______ _______ _____ _____    ______ ____
ROOT
ATOM      1  C   UNL     1       4.990   4.591  17.313  0.00  0.00    +0.000 C 
ATOM      2  O   UNL     1       5.572   4.039  18.245  0.00  0.00    +0.000 OA
ATOM      3  N   UNL     1       3.728   5.145  17.402  0.00  0.00    +0.000 N 
ATOM      4  H   UNL     1       3.283   5.479  16.548  0.00  0.00    +0.000 HD
ENDROOT
BRANCH   1  11
ATOM      5  C   UNL     1       6.953   5.190  15.730  0.00  0.00    +0.000 A 
ATOM      6  C   UNL     1       7.484   5.107  14.429  0.00  0.00    +0.000 A 
ATOM      7  C   UNL     1       6.784   4.461  13.406  0.00  0.00    +0.000 A 
ATOM      8 CL   UNL     1       7.458   4.377  11.826  0.00  0.00    +0.000 Cl
ATOM      9  C   UNL     1       5.547   3.887  13.654  0.00  0.00    +0.000 A 
ATOM     10  C   UNL     1       5.010   3.963  14.936  0.00  0.00    +0.000 A 
ATOM     11  C   UNL     1       5.695   4.612  15.988  0.00  0.00    +0.000 A 
BRANCH   5  13
ATOM     12  C   UNL     1       7.233   7.148  17.075  0.00  0.00    +0.000 C 
ATOM     13  O   UNL     1       7.603   5.806  16.768  0.00  0.00    +0.000 OA
ENDBRANCH   5  13
ENDBRANCH   1  11
BRANCH   3  14
ATOM     14  C   UNL     1       2.924   5.216  18.570  0.00  0.00    +0.000 A 
ATOM     15  C   UNL     1       2.605   6.419  19.206  0.00  0.00    +0.000 A 
ATOM     16  C   UNL     1       1.831   6.426  20.365  0.00  0.00    +0.000 A 
ATOM     17 BR   UNL     1       1.419   8.072  21.203  0.00  0.00    +0.000 Br
ATOM     18  C   UNL     1       1.357   5.236  20.910  0.00  0.00    +0.000 A 
ATOM     19  C   UNL     1       1.650   4.026  20.278  0.00  0.00    +0.000 A 
ATOM     20  C   UNL     1       2.422   4.023  19.111  0.00  0.00    +0.000 A 
BRANCH  20  21
ATOM     21  O   UNL     1       2.715   2.836  18.488  0.00  0.00    +0.000 OA
ATOM     22  H   UNL     1       1.888   2.341  18.373  0.00  0.00    +0.000 HD
ENDBRANCH  20  21
ENDBRANCH   3  14
TORSDOF 4
ENDMDL
MODEL 7
REMARK VINA RESULT:      -6.9      4.868      7.608
REMARK  Name = 
REMARK  5 active torsions:
REMARK  status: ('A' for Active; 'I' for Inactive)
REMARK    1  A    between atoms: C_1  and  O_2
REMARK    2  A    between atoms: O_2  and  C_3
REMARK    3  A    between atoms: C_9  and  C_10
REMARK    4  A    between atoms: N_12  and  C_13
REMARK    5  A    between atoms: C_19  and  O_20
REMARK                            x       y       z     vdW  Elec       q    Type
REMARK                         _______ _______ _______ _____ _____    ______ ____
ROOT
ATOM      1  C   UNL     1       4.687   6.269  16.294  0.00  0.00    +0.000 C 
ATOM      2  O   UNL     1       4.991   7.291  15.681  0.00  0.00    +0.000 OA
ATOM      3  N   UNL     1       4.993   4.989  15.873  0.00  0.00    +0.000 N 
ATOM      4  H   UNL     1       4.601   4.202  16.388  0.00  0.00    +0.000 HD
ENDROOT
BRANCH   1  11
ATOM      5  C   UNL     1       3.906   5.579  18.667  0.00  0.00    +0.000 A 
ATOM      6  C   UNL     1       3.111   5.898  19.784  0.00  0.00    +0.000 A 
ATOM      7  C   UNL     1       2.320   7.049  19.798  0.00  0.00    +0.000 A 
ATOM      8 CL   UNL     1       1.356   7.411  21.177  0.00  0.00    +0.000 Cl
ATOM      9  C   UNL     1       2.302   7.905  18.708  0.00  0.00    +0.000 A 
ATOM     10  C   UNL     1       3.083   7.601  17.597  0.00  0.00    +0.000 A 
ATOM     11  C   UNL     1       3.891   6.442  17.554  0.00  0.00    +0.000 A 
BRANCH   5  13
ATOM     12  C   UNL     1       4.349   3.354  19.426  0.00  0.00    +0.000 C 
ATOM     13  O   UNL     1       4.705   4.466  18.608  0.00  0.00    +0.000 OA
ENDBRANCH   5  13
ENDBRANCH   1  11
BRANCH   3  14
ATOM     14  C   UNL     1       5.738   4.643  14.715  0.00  0.00    +0.000 A 
ATOM     15  C   UNL     1       5.240   3.816  13.705  0.00  0.00    +0.000 A 
ATOM     16  C   UNL     1       6.027   3.491  12.601  0.00  0.00    +0.000 A 
ATOM     17 BR   UNL     1       5.322   2.368  11.250  0.00  0.00    +0.000 Br
ATOM     18  C   UNL     1       7.323   3.984  12.482  0.00  0.00    +0.000 A 
ATOM     19  C   UNL     1       7.831   4.826  13.473  0.00  0.00    +0.000 A 
ATOM     20  C   UNL     1       7.037   5.156  14.576  0.00  0.00    +0.000 A 
BRANCH  20  21
ATOM     21  O   UNL     1       7.533   5.980  15.555  0.00  0.00    +0.000 OA
ATOM     22  H   UNL     1       8.493   6.058  15.428  0.00  0.00    +0.000 HD
ENDBRANCH  20  21
ENDBRANCH   3  14
TORSDOF 4
ENDMDL
MODEL 8
REMARK VINA RESULT:      -6.9      3.875      7.088
REMARK  Name = 
REMARK  5 active torsions:
REMARK  status: ('A' for Active; 'I' for Inactive)
REMARK    1  A    between atoms: C_1  and  O_2
REMARK    2  A    between atoms: O_2  and  C_3
REMARK    3  A    between atoms: C_9  and  C_10
REMARK    4  A    between atoms: N_12  and  C_13
REMARK    5  A    between atoms: C_19  and  O_20
REMARK                            x       y       z     vdW  Elec       q    Type
REMARK                         _______ _______ _______ _____ _____    ______ ____
ROOT
ATOM      1  C   UNL     1       2.045   6.959  20.043  0.00  0.00    +0.000 C 
ATOM      2  O   UNL     1       1.918   5.956  20.744  0.00  0.00    +0.000 OA
ATOM      3  N   UNL     1       2.803   7.011  18.890  0.00  0.00    +0.000 N 
ATOM      4  H   UNL     1       2.939   7.915  18.439  0.00  0.00    +0.000 HD
ENDROOT
BRANCH   1  11
ATOM      5  C   UNL     1       1.006   9.310  19.710  0.00  0.00    +0.000 A 
ATOM      6  C   UNL     1       0.348  10.402  20.307  0.00  0.00    +0.000 A 
ATOM      7  C   UNL     1       0.044  10.400  21.671  0.00  0.00    +0.000 A 
ATOM      8 CL   UNL     1      -0.760  11.750  22.372  0.00  0.00    +0.000 Cl
ATOM      9  C   UNL     1       0.386   9.318  22.467  0.00  0.00    +0.000 A 
ATOM     10  C   UNL     1       1.038   8.233  21.889  0.00  0.00    +0.000 A 
ATOM     11  C   UNL     1       1.360   8.208  20.513  0.00  0.00    +0.000 A 
BRANCH   5  13
ATOM     12  C   UNL     1       2.061  10.349  17.832  0.00  0.00    +0.000 C 
ATOM     13  O   UNL     1       1.319   9.260  18.376  0.00  0.00    +0.000 OA
ENDBRANCH   5  13
ENDBRANCH   1  11
BRANCH   3  14
ATOM     14  C   UNL     1       3.510   5.930  18.301  0.00  0.00    +0.000 A 
ATOM     15  C   UNL     1       4.905   5.860  18.259  0.00  0.00    +0.000 A 
ATOM     16  C   UNL     1       5.544   4.784  17.646  0.00  0.00    +0.000 A 
ATOM     17 BR   UNL     1       7.435   4.722  17.605  0.00  0.00    +0.000 Br
ATOM     18  C   UNL     1       4.807   3.757  17.065  0.00  0.00    +0.000 A 
ATOM     19  C   UNL     1       3.412   3.800  17.112  0.00  0.00    +0.000 A 
ATOM     20  C   UNL     1       2.774   4.878  17.735  0.00  0.00    +0.000 A 
BRANCH  20  21
ATOM     21  O   UNL     1       1.403   4.927  17.782  0.00  0.00    +0.000 OA
ATOM     22  H   UNL     1       1.141   5.276  18.650  0.00  0.00    +0.000 HD
ENDBRANCH  20  21
ENDBRANCH   3  14
TORSDOF 4
ENDMDL
MODEL 9
REMARK VINA RESULT:      -6.9      3.839      6.993
REMARK  Name = 
REMARK  5 active torsions:
REMARK  status: ('A' for Active; 'I' for Inactive)
REMARK    1  A    between atoms: C_1  and  O_2
REMARK    2  A    between atoms: O_2  and  C_3
REMARK    3  A    between atoms: C_9  and  C_10
REMARK    4  A    between atoms: N_12  and  C_13
REMARK    5  A    between atoms: C_19  and  O_20
REMARK                            x       y       z     vdW  Elec       q    Type
REMARK                         _______ _______ _______ _____ _____    ______ ____
ROOT
ATOM      1  C   UNL     1       2.079   8.249  18.213  0.00  0.00    +0.000 C 
ATOM      2  O   UNL     1       2.670   8.656  17.214  0.00  0.00    +0.000 OA
ATOM      3  N   UNL     1       2.281   7.008  18.785  0.00  0.00    +0.000 N 
ATOM      4  H   UNL     1       1.663   6.717  19.542  0.00  0.00    +0.000 HD
ENDROOT
BRANCH   1  11
ATOM      5  C   UNL     1       0.806   9.358  20.179  0.00  0.00    +0.000 A 
ATOM      6  C   UNL     1      -0.199  10.263  20.570  0.00  0.00    +0.000 A 
ATOM      7  C   UNL     1      -0.954  10.955  19.619  0.00  0.00    +0.000 A 
ATOM      8 CL   UNL     1      -2.177  12.053  20.128  0.00  0.00    +0.000 Cl
ATOM      9  C   UNL     1      -0.726  10.764  18.265  0.00  0.00    +0.000 A 
ATOM     10  C   UNL     1       0.264   9.871  17.865  0.00  0.00    +0.000 A 
ATOM     11  C   UNL     1       1.041   9.156  18.806  0.00  0.00    +0.000 A 
BRANCH   5  13
ATOM     12  C   UNL     1       1.487   9.027  22.448  0.00  0.00    +0.000 C 
ATOM     13  O   UNL     1       1.577   8.661  21.073  0.00  0.00    +0.000 OA
ENDBRANCH   5  13
ENDBRANCH   1  11
BRANCH   3  14
ATOM     14  C   UNL     1       3.220   6.032  18.361  0.00  0.00    +0.000 A 
ATOM     15  C   UNL     1       4.601   6.185  18.506  0.00  0.00    +0.000 A 
ATOM     16  C   UNL     1       5.477   5.202  18.048  0.00  0.00    +0.000 A 
ATOM     17 BR   UNL     1       7.342   5.442  18.259  0.00  0.00    +0.000 Br
ATOM     18  C   UNL     1       4.994   4.047  17.440  0.00  0.00    +0.000 A 
ATOM     19  C   UNL     1       3.616   3.869  17.302  0.00  0.00    +0.000 A 
ATOM     20  C   UNL     1       2.739   4.854  17.769  0.00  0.00    +0.000 A 
BRANCH  20  21
ATOM     21  O   UNL     1       1.384   4.684  17.634  0.00  0.00    +0.000 OA
ATOM     22  H   UNL     1       1.001   5.526  17.335  0.00  0.00    +0.000 HD
ENDBRANCH  20  21
ENDBRANCH   3  14
TORSDOF 4
ENDMDL
