MODEL 1
REMARK VINA RESULT:      -7.9      0.000      0.000
REMARK  Name = 
REMARK  6 active torsions:
REMARK  status: ('A' for Active; 'I' for Inactive)
REMARK    1  A    between atoms: C_1  and  C_2
REMARK    2  A    between atoms: C_5  and  C_6
REMARK    3  A    between atoms: C_7  and  C_8
REMARK    4  A    between atoms: N_12  and  S_13
REMARK    5  A    between atoms: S_13  and  C_16
REMARK    6  A    between atoms: C_19  and  C_20
REMARK                            x       y       z     vdW  Elec       q    Type
REMARK                         _______ _______ _______ _____ _____    ______ ____
ROOT
ATOM      1  S   UNL     1      -6.676  13.529  23.690  0.00  0.00    +0.000 S 
ATOM      2  O   UNL     1      -7.917  12.963  24.179  0.00  0.00    +0.000 OA
ATOM      3  O   UNL     1      -6.394  14.933  23.881  0.00  0.00    +0.000 OA
ENDROOT
BRANCH   1   8
ATOM      4  C   UNL     1      -2.328  12.853  22.758  0.00  0.00    +0.000 A 
ATOM      5  C   UNL     1      -1.947  13.862  23.627  0.00  0.00    +0.000 A 
ATOM      6  S   UNL     1      -3.199  14.149  24.773  0.00  0.00    +0.000 S 
ATOM      7  C   UNL     1      -4.173  13.020  23.952  0.00  0.00    +0.000 A 
ATOM      8  N   UNL     1      -5.448  12.604  24.384  0.00  0.00    +0.000 N 
ATOM      9  N   UNL     1      -3.633  12.423  22.922  0.00  0.00    +0.000 NA
ATOM     10  H   UNL     1      -5.589  12.616  25.390  0.00  0.00    +0.000 HD
BRANCH   4  17
ATOM     11  C   UNL     1      -0.303  13.120  18.211  0.00  0.00    +0.000 C 
ATOM     12  C   UNL     1      -0.454  12.389  19.511  0.00  0.00    +0.000 A 
ATOM     13  C   UNL     1       0.229  11.197  19.750  0.00  0.00    +0.000 A 
ATOM     14  C   UNL     1       0.078  10.532  20.966  0.00  0.00    +0.000 A 
ATOM     15  C   UNL     1      -0.757  11.045  21.975  0.00  0.00    +0.000 A 
ATOM     16  C   UNL     1      -0.847  10.274  23.268  0.00  0.00    +0.000 C 
ATOM     17  C   UNL     1      -1.452  12.257  21.748  0.00  0.00    +0.000 A 
ATOM     18  C   UNL     1      -1.288  12.908  20.510  0.00  0.00    +0.000 A 
ENDBRANCH   4  17
ENDBRANCH   1   8
BRANCH   1  19
ATOM     19  C   UNL     1      -6.556  13.147  21.964  0.00  0.00    +0.000 A 
ATOM     20  C   UNL     1      -6.028  14.089  21.075  0.00  0.00    +0.000 A 
ATOM     21  C   UNL     1      -5.881  13.745  19.728  0.00  0.00    +0.000 A 
ATOM     22  C   UNL     1      -6.246  12.469  19.272  0.00  0.00    +0.000 A 
ATOM     23  C   UNL     1      -6.732  11.524  20.186  0.00  0.00    +0.000 A 
ATOM     24  C   UNL     1      -6.911  11.868  21.526  0.00  0.00    +0.000 A 
BRANCH  22  25
ATOM     25  C   UNL     1      -5.957  12.122  17.855  0.00  0.00    +0.000 C 
ATOM     26  O   UNL     1      -6.894  12.221  17.062  0.00  0.00    +0.000 OA
ATOM     27  N   UNL     1      -4.676  11.741  17.454  0.00  0.00    +0.000 N 
ATOM     28  C   UNL     1      -4.373  11.741  16.024  0.00  0.00    +0.000 C 
ATOM     29  C   UNL     1      -3.869  10.379  15.564  0.00  0.00    +0.000 C 
ATOM     30  C   UNL     1      -2.689   9.916  16.415  0.00  0.00    +0.000 C 
ATOM     31  C   UNL     1      -3.055   9.929  17.893  0.00  0.00    +0.000 C 
ATOM     32  C   UNL     1      -3.589  11.292  18.328  0.00  0.00    +0.000 C 
ENDBRANCH  22  25
ENDBRANCH   1  19
TORSDOF 4
ENDMDL
MODEL 2
REMARK VINA RESULT:      -7.9      0.520      1.621
REMARK  Name = 
REMARK  6 active torsions:
REMARK  status: ('A' for Active; 'I' for Inactive)
REMARK    1  A    between atoms: C_1  and  C_2
REMARK    2  A    between atoms: C_5  and  C_6
REMARK    3  A    between atoms: C_7  and  C_8
REMARK    4  A    between atoms: N_12  and  S_13
REMARK    5  A    between atoms: S_13  and  C_16
REMARK    6  A    between atoms: C_19  and  C_20
REMARK                            x       y       z     vdW  Elec       q    Type
REMARK                         _______ _______ _______ _____ _____    ______ ____
ROOT
ATOM      1  S   UNL     1      -6.651  13.474  23.720  0.00  0.00    +0.000 S 
ATOM      2  O   UNL     1      -7.917  12.936  24.175  0.00  0.00    +0.000 OA
ATOM      3  O   UNL     1      -6.356  14.879  23.892  0.00  0.00    +0.000 OA
ENDROOT
BRANCH   1   8
ATOM      4  C   UNL     1      -2.271  12.756  22.994  0.00  0.00    +0.000 A 
ATOM      5  C   UNL     1      -1.922  13.773  23.867  0.00  0.00    +0.000 A 
ATOM      6  S   UNL     1      -3.222  14.083  24.952  0.00  0.00    +0.000 S 
ATOM      7  C   UNL     1      -4.167  12.950  24.101  0.00  0.00    +0.000 A 
ATOM      8  N   UNL     1      -5.462  12.550  24.480  0.00  0.00    +0.000 N 
ATOM      9  N   UNL     1      -3.585  12.338  23.104  0.00  0.00    +0.000 NA
ATOM     10  H   UNL     1      -5.649  12.574  25.478  0.00  0.00    +0.000 HD
BRANCH   4  17
ATOM     11  C   UNL     1       0.664   8.911  21.789  0.00  0.00    +0.000 C 
ATOM     12  C   UNL     1       0.088  10.250  21.436  0.00  0.00    +0.000 A 
ATOM     13  C   UNL     1       0.402  10.873  20.229  0.00  0.00    +0.000 A 
ATOM     14  C   UNL     1      -0.145  12.117  19.918  0.00  0.00    +0.000 A 
ATOM     15  C   UNL     1      -1.023  12.766  20.804  0.00  0.00    +0.000 A 
ATOM     16  C   UNL     1      -1.587  14.099  20.380  0.00  0.00    +0.000 C 
ATOM     17  C   UNL     1      -1.355  12.142  22.031  0.00  0.00    +0.000 A 
ATOM     18  C   UNL     1      -0.786  10.889  22.326  0.00  0.00    +0.000 A 
ENDBRANCH   4  17
ENDBRANCH   1   8
BRANCH   1  19
ATOM     19  C   UNL     1      -6.473  13.052  22.009  0.00  0.00    +0.000 A 
ATOM     20  C   UNL     1      -5.843  13.941  21.132  0.00  0.00    +0.000 A 
ATOM     21  C   UNL     1      -5.653  13.563  19.800  0.00  0.00    +0.000 A 
ATOM     22  C   UNL     1      -6.076  12.304  19.347  0.00  0.00    +0.000 A 
ATOM     23  C   UNL     1      -6.666  11.410  20.251  0.00  0.00    +0.000 A 
ATOM     24  C   UNL     1      -6.887  11.790  21.575  0.00  0.00    +0.000 A 
BRANCH  22  25
ATOM     25  C   UNL     1      -5.742  11.912  17.952  0.00  0.00    +0.000 C 
ATOM     26  O   UNL     1      -6.676  11.887  17.148  0.00  0.00    +0.000 OA
ATOM     27  N   UNL     1      -4.429  11.625  17.580  0.00  0.00    +0.000 N 
ATOM     28  C   UNL     1      -4.111  11.579  16.154  0.00  0.00    +0.000 C 
ATOM     29  C   UNL     1      -3.484  10.245  15.768  0.00  0.00    +0.000 C 
ATOM     30  C   UNL     1      -2.278   9.931  16.650  0.00  0.00    +0.000 C 
ATOM     31  C   UNL     1      -2.660   9.987  18.123  0.00  0.00    +0.000 C 
ATOM     32  C   UNL     1      -3.316  11.319  18.483  0.00  0.00    +0.000 C 
ENDBRANCH  22  25
ENDBRANCH   1  19
TORSDOF 4
ENDMDL
MODEL 3
REMARK VINA RESULT:      -7.7      6.136      8.729
REMARK  Name = 
REMARK  6 active torsions:
REMARK  status: ('A' for Active; 'I' for Inactive)
REMARK    1  A    between atoms: C_1  and  C_2
REMARK    2  A    between atoms: C_5  and  C_6
REMARK    3  A    between atoms: C_7  and  C_8
REMARK    4  A    between atoms: N_12  and  S_13
REMARK    5  A    between atoms: S_13  and  C_16
REMARK    6  A    between atoms: C_19  and  C_20
REMARK                            x       y       z     vdW  Elec       q    Type
REMARK                         _______ _______ _______ _____ _____    ______ ____
ROOT
ATOM      1  S   UNL     1       0.797   9.211  21.460  0.00  0.00    +0.000 S 
ATOM      2  O   UNL     1       1.680   9.456  22.582  0.00  0.00    +0.000 OA
ATOM      3  O   UNL     1      -0.554   8.749  21.686  0.00  0.00    +0.000 OA
ENDROOT
BRANCH   1   8
ATOM      4  C   UNL     1      -2.470  11.923  19.977  0.00  0.00    +0.000 A 
ATOM      5  C   UNL     1      -2.381  12.712  21.111  0.00  0.00    +0.000 A 
ATOM      6  S   UNL     1      -0.841  12.499  21.851  0.00  0.00    +0.000 S 
ATOM      7  C   UNL     1      -0.481  11.302  20.695  0.00  0.00    +0.000 A 
ATOM      8  N   UNL     1       0.763  10.652  20.583  0.00  0.00    +0.000 N 
ATOM      9  N   UNL     1      -1.393  11.076  19.787  0.00  0.00    +0.000 NA
ATOM     10  H   UNL     1       1.567  11.203  20.870  0.00  0.00    +0.000 HD
BRANCH   4  17
ATOM     11  C   UNL     1      -7.248  13.034  19.089  0.00  0.00    +0.000 C 
ATOM     12  C   UNL     1      -5.935  12.510  18.589  0.00  0.00    +0.000 A 
ATOM     13  C   UNL     1      -5.782  12.093  17.268  0.00  0.00    +0.000 A 
ATOM     14  C   UNL     1      -4.552  11.610  16.822  0.00  0.00    +0.000 A 
ATOM     15  C   UNL     1      -3.445  11.537  17.685  0.00  0.00    +0.000 A 
ATOM     16  C   UNL     1      -2.146  11.023  17.116  0.00  0.00    +0.000 C 
ATOM     17  C   UNL     1      -3.585  11.962  19.028  0.00  0.00    +0.000 A 
ATOM     18  C   UNL     1      -4.837  12.440  19.458  0.00  0.00    +0.000 A 
ENDBRANCH   4  17
ENDBRANCH   1   8
BRANCH   1  19
ATOM     19  C   UNL     1       1.617   8.082  20.368  0.00  0.00    +0.000 A 
ATOM     20  C   UNL     1       1.872   6.771  20.781  0.00  0.00    +0.000 A 
ATOM     21  C   UNL     1       2.461   5.876  19.883  0.00  0.00    +0.000 A 
ATOM     22  C   UNL     1       2.782   6.282  18.578  0.00  0.00    +0.000 A 
ATOM     23  C   UNL     1       2.479   7.588  18.168  0.00  0.00    +0.000 A 
ATOM     24  C   UNL     1       1.919   8.495  19.067  0.00  0.00    +0.000 A 
BRANCH  22  25
ATOM     25  C   UNL     1       3.296   5.256  17.632  0.00  0.00    +0.000 C 
ATOM     26  O   UNL     1       2.555   4.300  17.399  0.00  0.00    +0.000 OA
ATOM     27  N   UNL     1       4.542   5.401  17.021  0.00  0.00    +0.000 N 
ATOM     28  C   UNL     1       4.846   4.556  15.868  0.00  0.00    +0.000 C 
ATOM     29  C   UNL     1       6.128   3.762  16.084  0.00  0.00    +0.000 C 
ATOM     30  C   UNL     1       7.287   4.683  16.461  0.00  0.00    +0.000 C 
ATOM     31  C   UNL     1       6.923   5.537  17.668  0.00  0.00    +0.000 C 
ATOM     32  C   UNL     1       5.619   6.300  17.445  0.00  0.00    +0.000 C 
ENDBRANCH  22  25
ENDBRANCH   1  19
TORSDOF 4
ENDMDL
MODEL 4
REMARK VINA RESULT:      -7.7      6.187      8.678
REMARK  Name = 
REMARK  6 active torsions:
REMARK  status: ('A' for Active; 'I' for Inactive)
REMARK    1  A    between atoms: C_1  and  C_2
REMARK    2  A    between atoms: C_5  and  C_6
REMARK    3  A    between atoms: C_7  and  C_8
REMARK    4  A    between atoms: N_12  and  S_13
REMARK    5  A    between atoms: S_13  and  C_16
REMARK    6  A    between atoms: C_19  and  C_20
REMARK                            x       y       z     vdW  Elec       q    Type
REMARK                         _______ _______ _______ _____ _____    ______ ____
ROOT
ATOM      1  S   UNL     1       1.034   9.107  21.593  0.00  0.00    +0.000 S 
ATOM      2  O   UNL     1       2.069   9.258  22.595  0.00  0.00    +0.000 OA
ATOM      3  O   UNL     1      -0.317   8.780  21.988  0.00  0.00    +0.000 OA
ENDROOT
BRANCH   1   8
ATOM      4  C   UNL     1      -2.157  11.634  19.679  0.00  0.00    +0.000 A 
ATOM      5  C   UNL     1      -2.268  12.419  20.814  0.00  0.00    +0.000 A 
ATOM      6  S   UNL     1      -0.833  12.291  21.755  0.00  0.00    +0.000 S 
ATOM      7  C   UNL     1      -0.250  11.125  20.659  0.00  0.00    +0.000 A 
ATOM      8  N   UNL     1       1.034  10.550  20.718  0.00  0.00    +0.000 N 
ATOM      9  N   UNL     1      -1.017  10.852  19.637  0.00  0.00    +0.000 NA
ATOM     10  H   UNL     1       1.758  11.144  21.110  0.00  0.00    +0.000 HD
BRANCH   4  17
ATOM     11  C   UNL     1      -3.191  10.517  14.932  0.00  0.00    +0.000 C 
ATOM     12  C   UNL     1      -3.644  11.062  16.252  0.00  0.00    +0.000 A 
ATOM     13  C   UNL     1      -4.950  11.515  16.435  0.00  0.00    +0.000 A 
ATOM     14  C   UNL     1      -5.353  12.017  17.672  0.00  0.00    +0.000 A 
ATOM     15  C   UNL     1      -4.461  12.074  18.758  0.00  0.00    +0.000 A 
ATOM     16  C   UNL     1      -4.985  12.611  20.066  0.00  0.00    +0.000 C 
ATOM     17  C   UNL     1      -3.134  11.614  18.588  0.00  0.00    +0.000 A 
ATOM     18  C   UNL     1      -2.747  11.116  17.329  0.00  0.00    +0.000 A 
ENDBRANCH   4  17
ENDBRANCH   1   8
BRANCH   1  19
ATOM     19  C   UNL     1       1.596   7.909  20.415  0.00  0.00    +0.000 A 
ATOM     20  C   UNL     1       1.937   8.309  19.120  0.00  0.00    +0.000 A 
ATOM     21  C   UNL     1       2.441   7.361  18.225  0.00  0.00    +0.000 A 
ATOM     22  C   UNL     1       2.614   6.026  18.622  0.00  0.00    +0.000 A 
ATOM     23  C   UNL     1       2.308   5.653  19.938  0.00  0.00    +0.000 A 
ATOM     24  C   UNL     1       1.777   6.586  20.828  0.00  0.00    +0.000 A 
BRANCH  22  25
ATOM     25  C   UNL     1       3.263   5.089  17.666  0.00  0.00    +0.000 C 
ATOM     26  O   UNL     1       2.644   4.057  17.400  0.00  0.00    +0.000 OA
ATOM     27  N   UNL     1       4.492   5.394  17.080  0.00  0.00    +0.000 N 
ATOM     28  C   UNL     1       4.913   4.617  15.916  0.00  0.00    +0.000 C 
ATOM     29  C   UNL     1       6.277   3.977  16.140  0.00  0.00    +0.000 C 
ATOM     30  C   UNL     1       7.311   5.021  16.556  0.00  0.00    +0.000 C 
ATOM     31  C   UNL     1       6.829   5.799  17.773  0.00  0.00    +0.000 C 
ATOM     32  C   UNL     1       5.447   6.406  17.541  0.00  0.00    +0.000 C 
ENDBRANCH  22  25
ENDBRANCH   1  19
TORSDOF 4
ENDMDL
MODEL 5
REMARK VINA RESULT:      -7.6      5.761      8.376
REMARK  Name = 
REMARK  6 active torsions:
REMARK  status: ('A' for Active; 'I' for Inactive)
REMARK    1  A    between atoms: C_1  and  C_2
REMARK    2  A    between atoms: C_5  and  C_6
REMARK    3  A    between atoms: C_7  and  C_8
REMARK    4  A    between atoms: N_12  and  S_13
REMARK    5  A    between atoms: S_13  and  C_16
REMARK    6  A    between atoms: C_19  and  C_20
REMARK                            x       y       z     vdW  Elec       q    Type
REMARK                         _______ _______ _______ _____ _____    ______ ____
ROOT
ATOM      1  S   UNL     1       0.588  11.022  19.342  0.00  0.00    +0.000 S 
ATOM      2  O   UNL     1      -0.845  10.811  19.378  0.00  0.00    +0.000 OA
ATOM      3  O   UNL     1       1.159  11.969  18.411  0.00  0.00    +0.000 OA
ENDROOT
BRANCH   1   8
ATOM      4  C   UNL     1      -1.645  12.546  22.937  0.00  0.00    +0.000 A 
ATOM      5  C   UNL     1      -1.822  11.260  23.418  0.00  0.00    +0.000 A 
ATOM      6  S   UNL     1      -0.644  10.211  22.729  0.00  0.00    +0.000 S 
ATOM      7  C   UNL     1      -0.092  11.505  21.771  0.00  0.00    +0.000 A 
ATOM      8  N   UNL     1       1.026  11.442  20.916  0.00  0.00    +0.000 N 
ATOM      9  N   UNL     1      -0.685  12.656  21.947  0.00  0.00    +0.000 NA
ATOM     10  H   UNL     1       1.760  10.804  21.209  0.00  0.00    +0.000 HD
BRANCH   4  17
ATOM     11  C   UNL     1      -1.711  16.639  25.783  0.00  0.00    +0.000 C 
ATOM     12  C   UNL     1      -2.413  15.734  24.816  0.00  0.00    +0.000 A 
ATOM     13  C   UNL     1      -3.708  16.010  24.380  0.00  0.00    +0.000 A 
ATOM     14  C   UNL     1      -4.343  15.157  23.479  0.00  0.00    +0.000 A 
ATOM     15  C   UNL     1      -3.697  14.008  22.987  0.00  0.00    +0.000 A 
ATOM     16  C   UNL     1      -4.447  13.151  21.999  0.00  0.00    +0.000 C 
ATOM     17  C   UNL     1      -2.380  13.718  23.417  0.00  0.00    +0.000 A 
ATOM     18  C   UNL     1      -1.760  14.591  24.332  0.00  0.00    +0.000 A 
ENDBRANCH   4  17
ENDBRANCH   1   8
BRANCH   1  19
ATOM     19  C   UNL     1       1.357   9.444  19.105  0.00  0.00    +0.000 A 
ATOM     20  C   UNL     1       1.937   9.127  17.873  0.00  0.00    +0.000 A 
ATOM     21  C   UNL     1       2.597   7.904  17.725  0.00  0.00    +0.000 A 
ATOM     22  C   UNL     1       2.689   7.008  18.802  0.00  0.00    +0.000 A 
ATOM     23  C   UNL     1       2.140   7.362  20.042  0.00  0.00    +0.000 A 
ATOM     24  C   UNL     1       1.454   8.567  20.189  0.00  0.00    +0.000 A 
BRANCH  22  25
ATOM     25  C   UNL     1       3.503   5.777  18.621  0.00  0.00    +0.000 C 
ATOM     26  O   UNL     1       4.624   5.924  18.133  0.00  0.00    +0.000 OA
ATOM     27  N   UNL     1       3.021   4.530  19.021  0.00  0.00    +0.000 N 
ATOM     28  C   UNL     1       3.973   3.426  19.131  0.00  0.00    +0.000 C 
ATOM     29  C   UNL     1       3.544   2.236  18.282  0.00  0.00    +0.000 C 
ATOM     30  C   UNL     1       2.114   1.815  18.612  0.00  0.00    +0.000 C 
ATOM     31  C   UNL     1       1.161   2.996  18.478  0.00  0.00    +0.000 C 
ATOM     32  C   UNL     1       1.626   4.189  19.311  0.00  0.00    +0.000 C 
ENDBRANCH  22  25
ENDBRANCH   1  19
TORSDOF 4
ENDMDL
MODEL 6
REMARK VINA RESULT:      -7.6      8.399     10.841
REMARK  Name = 
REMARK  6 active torsions:
REMARK  status: ('A' for Active; 'I' for Inactive)
REMARK    1  A    between atoms: C_1  and  C_2
REMARK    2  A    between atoms: C_5  and  C_6
REMARK    3  A    between atoms: C_7  and  C_8
REMARK    4  A    between atoms: N_12  and  S_13
REMARK    5  A    between atoms: S_13  and  C_16
REMARK    6  A    between atoms: C_19  and  C_20
REMARK                            x       y       z     vdW  Elec       q    Type
REMARK                         _______ _______ _______ _____ _____    ______ ____
ROOT
ATOM      1  S   UNL     1       2.701   5.916  19.831  0.00  0.00    +0.000 S 
ATOM      2  O   UNL     1       2.017   5.276  20.936  0.00  0.00    +0.000 OA
ATOM      3  O   UNL     1       4.144   6.005  19.824  0.00  0.00    +0.000 OA
ENDROOT
BRANCH   1   8
ATOM      4  C   UNL     1       4.769   3.843  16.416  0.00  0.00    +0.000 A 
ATOM      5  C   UNL     1       4.682   2.619  17.059  0.00  0.00    +0.000 A 
ATOM      6  S   UNL     1       3.426   2.664  18.234  0.00  0.00    +0.000 S 
ATOM      7  C   UNL     1       3.195   4.315  17.885  0.00  0.00    +0.000 A 
ATOM      8  N   UNL     1       2.177   5.111  18.444  0.00  0.00    +0.000 N 
ATOM      9  N   UNL     1       3.948   4.822  16.946  0.00  0.00    +0.000 NA
ATOM     10  H   UNL     1       1.322   4.618  18.682  0.00  0.00    +0.000 HD
BRANCH   4  17
ATOM     11  C   UNL     1       5.774   3.079  11.594  0.00  0.00    +0.000 C 
ATOM     12  C   UNL     1       6.127   3.740  12.892  0.00  0.00    +0.000 A 
ATOM     13  C   UNL     1       7.225   4.594  12.991  0.00  0.00    +0.000 A 
ATOM     14  C   UNL     1       7.536   5.201  14.206  0.00  0.00    +0.000 A 
ATOM     15  C   UNL     1       6.753   4.974  15.353  0.00  0.00    +0.000 A 
ATOM     16  C   UNL     1       7.146   5.688  16.621  0.00  0.00    +0.000 C 
ATOM     17  C   UNL     1       5.632   4.114  15.265  0.00  0.00    +0.000 A 
ATOM     18  C   UNL     1       5.341   3.507  14.029  0.00  0.00    +0.000 A 
ENDBRANCH   4  17
ENDBRANCH   1   8
BRANCH   1  19
ATOM     19  C   UNL     1       2.022   7.542  19.648  0.00  0.00    +0.000 A 
ATOM     20  C   UNL     1       2.090   8.192  18.412  0.00  0.00    +0.000 A 
ATOM     21  C   UNL     1       1.492   9.448  18.269  0.00  0.00    +0.000 A 
ATOM     22  C   UNL     1       0.820  10.044  19.347  0.00  0.00    +0.000 A 
ATOM     23  C   UNL     1       0.724   9.358  20.565  0.00  0.00    +0.000 A 
ATOM     24  C   UNL     1       1.344   8.119  20.725  0.00  0.00    +0.000 A 
BRANCH  22  25
ATOM     25  C   UNL     1       0.103  11.324  19.103  0.00  0.00    +0.000 C 
ATOM     26  O   UNL     1      -0.979  11.247  18.517  0.00  0.00    +0.000 OA
ATOM     27  N   UNL     1       0.622  12.538  19.554  0.00  0.00    +0.000 N 
ATOM     28  C   UNL     1      -0.265  13.699  19.586  0.00  0.00    +0.000 C 
ATOM     29  C   UNL     1       0.310  14.861  18.787  0.00  0.00    +0.000 C 
ATOM     30  C   UNL     1       1.728  15.192  19.245  0.00  0.00    +0.000 C 
ATOM     31  C   UNL     1       2.614  13.954  19.188  0.00  0.00    +0.000 C 
ATOM     32  C   UNL     1       2.005  12.791  19.968  0.00  0.00    +0.000 C 
ENDBRANCH  22  25
ENDBRANCH   1  19
TORSDOF 4
ENDMDL
MODEL 7
REMARK VINA RESULT:      -7.5      5.477      8.174
REMARK  Name = 
REMARK  6 active torsions:
REMARK  status: ('A' for Active; 'I' for Inactive)
REMARK    1  A    between atoms: C_1  and  C_2
REMARK    2  A    between atoms: C_5  and  C_6
REMARK    3  A    between atoms: C_7  and  C_8
REMARK    4  A    between atoms: N_12  and  S_13
REMARK    5  A    between atoms: S_13  and  C_16
REMARK    6  A    between atoms: C_19  and  C_20
REMARK                            x       y       z     vdW  Elec       q    Type
REMARK                         _______ _______ _______ _____ _____    ______ ____
ROOT
ATOM      1  S   UNL     1       0.547  11.115  20.778  0.00  0.00    +0.000 S 
ATOM      2  O   UNL     1       1.650  12.008  21.067  0.00  0.00    +0.000 OA
ATOM      3  O   UNL     1      -0.344  10.695  21.836  0.00  0.00    +0.000 OA
ENDROOT
BRANCH   1   8
ATOM      4  C   UNL     1      -3.556  12.940  20.528  0.00  0.00    +0.000 A 
ATOM      5  C   UNL     1      -3.056  14.197  20.824  0.00  0.00    +0.000 A 
ATOM      6  S   UNL     1      -1.374  14.255  20.463  0.00  0.00    +0.000 S 
ATOM      7  C   UNL     1      -1.427  12.598  20.074  0.00  0.00    +0.000 A 
ATOM      8  N   UNL     1      -0.341  11.867  19.556  0.00  0.00    +0.000 N 
ATOM      9  N   UNL     1      -2.595  12.018  20.155  0.00  0.00    +0.000 NA
ATOM     10  H   UNL     1       0.312  12.402  18.990  0.00  0.00    +0.000 HD
BRANCH   4  17
ATOM     11  C   UNL     1      -7.689  12.369  23.256  0.00  0.00    +0.000 C 
ATOM     12  C   UNL     1      -7.010  12.302  21.922  0.00  0.00    +0.000 A 
ATOM     13  C   UNL     1      -7.710  11.929  20.775  0.00  0.00    +0.000 A 
ATOM     14  C   UNL     1      -7.061  11.874  19.542  0.00  0.00    +0.000 A 
ATOM     15  C   UNL     1      -5.697  12.196  19.425  0.00  0.00    +0.000 A 
ATOM     16  C   UNL     1      -5.078  12.132  18.051  0.00  0.00    +0.000 C 
ATOM     17  C   UNL     1      -4.975  12.581  20.580  0.00  0.00    +0.000 A 
ATOM     18  C   UNL     1      -5.650  12.624  21.815  0.00  0.00    +0.000 A 
ENDBRANCH   4  17
ENDBRANCH   1   8
BRANCH   1  19
ATOM     19  C   UNL     1       1.213   9.679  19.981  0.00  0.00    +0.000 A 
ATOM     20  C   UNL     1       1.537   9.721  18.622  0.00  0.00    +0.000 A 
ATOM     21  C   UNL     1       2.121   8.600  18.026  0.00  0.00    +0.000 A 
ATOM     22  C   UNL     1       2.393   7.450  18.783  0.00  0.00    +0.000 A 
ATOM     23  C   UNL     1       2.102   7.442  20.154  0.00  0.00    +0.000 A 
ATOM     24  C   UNL     1       1.490   8.545  20.749  0.00  0.00    +0.000 A 
BRANCH  22  25
ATOM     25  C   UNL     1       3.122   6.334  18.124  0.00  0.00    +0.000 C 
ATOM     26  O   UNL     1       3.931   6.645  17.247  0.00  0.00    +0.000 OA
ATOM     27  N   UNL     1       2.918   5.010  18.514  0.00  0.00    +0.000 N 
ATOM     28  C   UNL     1       3.887   4.005  18.079  0.00  0.00    +0.000 C 
ATOM     29  C   UNL     1       3.208   2.868  17.326  0.00  0.00    +0.000 C 
ATOM     30  C   UNL     1       2.069   2.270  18.148  0.00  0.00    +0.000 C 
ATOM     31  C   UNL     1       1.085   3.353  18.572  0.00  0.00    +0.000 C 
ATOM     32  C   UNL     1       1.789   4.499  19.296  0.00  0.00    +0.000 C 
ENDBRANCH  22  25
ENDBRANCH   1  19
TORSDOF 4
ENDMDL
MODEL 8
REMARK VINA RESULT:      -7.5      5.681      8.514
REMARK  Name = 
REMARK  6 active torsions:
REMARK  status: ('A' for Active; 'I' for Inactive)
REMARK    1  A    between atoms: C_1  and  C_2
REMARK    2  A    between atoms: C_5  and  C_6
REMARK    3  A    between atoms: C_7  and  C_8
REMARK    4  A    between atoms: N_12  and  S_13
REMARK    5  A    between atoms: S_13  and  C_16
REMARK    6  A    between atoms: C_19  and  C_20
REMARK                            x       y       z     vdW  Elec       q    Type
REMARK                         _______ _______ _______ _____ _____    ______ ____
ROOT
ATOM      1  S   UNL     1       0.471  10.621  20.716  0.00  0.00    +0.000 S 
ATOM      2  O   UNL     1       1.463  11.607  21.092  0.00  0.00    +0.000 OA
ATOM      3  O   UNL     1      -0.417  10.068  21.713  0.00  0.00    +0.000 OA
ENDROOT
BRANCH   1   8
ATOM      4  C   UNL     1      -3.414  12.884  20.566  0.00  0.00    +0.000 A 
ATOM      5  C   UNL     1      -2.753  14.097  20.669  0.00  0.00    +0.000 A 
ATOM      6  S   UNL     1      -1.115  13.914  20.175  0.00  0.00    +0.000 S 
ATOM      7  C   UNL     1      -1.384  12.243  19.993  0.00  0.00    +0.000 A 
ATOM      8  N   UNL     1      -0.436  11.334  19.485  0.00  0.00    +0.000 N 
ATOM      9  N   UNL     1      -2.597  11.818  20.234  0.00  0.00    +0.000 NA
ATOM     10  H   UNL     1       0.217  11.721  18.810  0.00  0.00    +0.000 HD
BRANCH   4  17
ATOM     11  C   UNL     1      -7.279  12.862  23.713  0.00  0.00    +0.000 C 
ATOM     12  C   UNL     1      -6.756  12.696  22.318  0.00  0.00    +0.000 A 
ATOM     13  C   UNL     1      -7.611  12.400  21.258  0.00  0.00    +0.000 A 
ATOM     14  C   UNL     1      -7.105  12.251  19.967  0.00  0.00    +0.000 A 
ATOM     15  C   UNL     1      -5.732  12.399  19.704  0.00  0.00    +0.000 A 
ATOM     16  C   UNL     1      -5.272  12.244  18.277  0.00  0.00    +0.000 C 
ATOM     17  C   UNL     1      -4.852  12.705  20.771  0.00  0.00    +0.000 A 
ATOM     18  C   UNL     1      -5.385  12.845  22.066  0.00  0.00    +0.000 A 
ENDBRANCH   4  17
ENDBRANCH   1   8
BRANCH   1  19
ATOM     19  C   UNL     1       1.314   9.297  19.895  0.00  0.00    +0.000 A 
ATOM     20  C   UNL     1       1.635   8.131  20.597  0.00  0.00    +0.000 A 
ATOM     21  C   UNL     1       2.241   7.072  19.917  0.00  0.00    +0.000 A 
ATOM     22  C   UNL     1       2.515   7.168  18.543  0.00  0.00    +0.000 A 
ATOM     23  C   UNL     1       2.146   8.327  17.847  0.00  0.00    +0.000 A 
ATOM     24  C   UNL     1       1.568   9.401  18.525  0.00  0.00    +0.000 A 
BRANCH  22  25
ATOM     25  C   UNL     1       3.052   5.967  17.850  0.00  0.00    +0.000 C 
ATOM     26  O   UNL     1       2.324   4.973  17.827  0.00  0.00    +0.000 OA
ATOM     27  N   UNL     1       4.302   5.992  17.231  0.00  0.00    +0.000 N 
ATOM     28  C   UNL     1       4.628   4.919  16.294  0.00  0.00    +0.000 C 
ATOM     29  C   UNL     1       5.918   4.210  16.688  0.00  0.00    +0.000 C 
ATOM     30  C   UNL     1       7.061   5.208  16.862  0.00  0.00    +0.000 C 
ATOM     31  C   UNL     1       6.674   6.301  17.850  0.00  0.00    +0.000 C 
ATOM     32  C   UNL     1       5.363   6.978  17.454  0.00  0.00    +0.000 C 
ENDBRANCH  22  25
ENDBRANCH   1  19
TORSDOF 4
ENDMDL
MODEL 9
REMARK VINA RESULT:      -7.4      5.640      8.372
REMARK  Name = 
REMARK  6 active torsions:
REMARK  status: ('A' for Active; 'I' for Inactive)
REMARK    1  A    between atoms: C_1  and  C_2
REMARK    2  A    between atoms: C_5  and  C_6
REMARK    3  A    between atoms: C_7  and  C_8
REMARK    4  A    between atoms: N_12  and  S_13
REMARK    5  A    between atoms: S_13  and  C_16
REMARK    6  A    between atoms: C_19  and  C_20
REMARK                            x       y       z     vdW  Elec       q    Type
REMARK                         _______ _______ _______ _____ _____    ______ ____
ROOT
ATOM      1  S   UNL     1       0.421  10.567  20.741  0.00  0.00    +0.000 S 
ATOM      2  O   UNL     1       1.416  11.504  21.219  0.00  0.00    +0.000 OA
ATOM      3  O   UNL     1      -0.590  10.059  21.641  0.00  0.00    +0.000 OA
ENDROOT
BRANCH   1   8
ATOM      4  C   UNL     1      -3.526  12.626  20.098  0.00  0.00    +0.000 A 
ATOM      5  C   UNL     1      -2.970  13.861  20.386  0.00  0.00    +0.000 A 
ATOM      6  S   UNL     1      -1.265  13.802  20.159  0.00  0.00    +0.000 S 
ATOM      7  C   UNL     1      -1.394  12.137  19.828  0.00  0.00    +0.000 A 
ATOM      8  N   UNL     1      -0.320  11.320  19.425  0.00  0.00    +0.000 N 
ATOM      9  N   UNL     1      -2.599  11.633  19.837  0.00  0.00    +0.000 NA
ATOM     10  H   UNL     1       0.407  11.790  18.894  0.00  0.00    +0.000 HD
BRANCH   4  17
ATOM     11  C   UNL     1      -7.861  12.293  22.535  0.00  0.00    +0.000 C 
ATOM     12  C   UNL     1      -7.098  12.194  21.248  0.00  0.00    +0.000 A 
ATOM     13  C   UNL     1      -7.741  11.876  20.053  0.00  0.00    +0.000 A 
ATOM     14  C   UNL     1      -7.015  11.791  18.866  0.00  0.00    +0.000 A 
ATOM     15  C   UNL     1      -5.628  12.028  18.844  0.00  0.00    +0.000 A 
ATOM     16  C   UNL     1      -4.923  11.937  17.514  0.00  0.00    +0.000 C 
ATOM     17  C   UNL     1      -4.964  12.357  20.050  0.00  0.00    +0.000 A 
ATOM     18  C   UNL     1      -5.717  12.431  21.238  0.00  0.00    +0.000 A 
ENDBRANCH   4  17
ENDBRANCH   1   8
BRANCH   1  19
ATOM     19  C   UNL     1       1.278   9.201  20.007  0.00  0.00    +0.000 A 
ATOM     20  C   UNL     1       1.562   8.063  20.768  0.00  0.00    +0.000 A 
ATOM     21  C   UNL     1       2.180   6.970  20.155  0.00  0.00    +0.000 A 
ATOM     22  C   UNL     1       2.502   7.006  18.789  0.00  0.00    +0.000 A 
ATOM     23  C   UNL     1       2.170   8.137  18.032  0.00  0.00    +0.000 A 
ATOM     24  C   UNL     1       1.580   9.244  18.643  0.00  0.00    +0.000 A 
BRANCH  22  25
ATOM     25  C   UNL     1       3.050   5.771  18.167  0.00  0.00    +0.000 C 
ATOM     26  O   UNL     1       3.791   5.926  17.194  0.00  0.00    +0.000 OA
ATOM     27  N   UNL     1       2.760   4.511  18.690  0.00  0.00    +0.000 N 
ATOM     28  C   UNL     1       3.579   3.380  18.258  0.00  0.00    +0.000 C 
ATOM     29  C   UNL     1       2.721   2.264  17.675  0.00  0.00    +0.000 C 
ATOM     30  C   UNL     1       1.619   1.854  18.649  0.00  0.00    +0.000 C 
ATOM     31  C   UNL     1       0.792   3.064  19.065  0.00  0.00    +0.000 C 
ATOM     32  C   UNL     1       1.673   4.184  19.617  0.00  0.00    +0.000 C 
ENDBRANCH  22  25
ENDBRANCH   1  19
TORSDOF 4
ENDMDL
