MODEL 1
REMARK VINA RESULT:      -7.6      0.000      0.000
REMARK  Name = 
REMARK  4 active torsions:
REMARK  status: ('A' for Active; 'I' for Inactive)
REMARK    1  A    between atoms: C_1  and  N_2
REMARK    2  A    between atoms: N_5  and  C_6
REMARK    3  A    between atoms: N_15  and  C_16
REMARK    4  A    between atoms: C_16  and  C_17
REMARK                            x       y       z     vdW  Elec       q    Type
REMARK                         _______ _______ _______ _____ _____    ______ ____
ROOT
ATOM      1  C   UNL     1       2.827   6.492  18.217  0.00  0.00    +0.000 A 
ATOM      2  N   UNL     1       2.105   5.328  18.258  0.00  0.00    +0.000 NA
ATOM      3  C   UNL     1       2.615   4.182  17.807  0.00  0.00    +0.000 A 
ATOM      4  N   UNL     1       1.768   3.092  17.858  0.00  0.00    +0.000 N 
ATOM      5  N   UNL     1       3.819   4.006  17.253  0.00  0.00    +0.000 NA
ATOM      6  C   UNL     1       4.521   5.151  17.208  0.00  0.00    +0.000 A 
ATOM      7  C   UNL     1       4.126   6.401  17.667  0.00  0.00    +0.000 A 
ATOM      8  N   UNL     1       5.146   7.320  17.472  0.00  0.00    +0.000 NA
ATOM      9  C   UNL     1       6.118   6.643  16.899  0.00  0.00    +0.000 A 
ATOM     10  N   UNL     1       5.766   5.340  16.674  0.00  0.00    +0.000 N 
ATOM     11  H   UNL     1       0.815   3.433  17.842  0.00  0.00    +0.000 HD
ATOM     12  H   UNL     1       2.034   2.427  17.142  0.00  0.00    +0.000 HD
ENDROOT
BRANCH   1  17
ATOM     13  C   UNL     1      -0.576  10.585  19.916  0.00  0.00    +0.000 C 
ATOM     14  N   UNL     1       0.695   9.921  19.639  0.00  0.00    +0.000 NA
ATOM     15  C   UNL     1       0.839   9.646  18.189  0.00  0.00    +0.000 C 
ATOM     16  C   UNL     1       2.138   8.866  17.838  0.00  0.00    +0.000 C 
ATOM     17  N   UNL     1       2.181   7.642  18.637  0.00  0.00    +0.000 N 
ATOM     18  C   UNL     1       2.067   7.859  20.084  0.00  0.00    +0.000 C 
ATOM     19  C   UNL     1       0.776   8.646  20.388  0.00  0.00    +0.000 C 
ENDBRANCH   1  17
BRANCH  10  20
ATOM     20  C   UNL     1       6.620   4.330  16.080  0.00  0.00    +0.000 C 
BRANCH  20  21
ATOM     21  C   UNL     1       6.650   4.369  14.570  0.00  0.00    +0.000 A 
ATOM     22  C   UNL     1       7.596   5.157  13.895  0.00  0.00    +0.000 A 
ATOM     23  C   UNL     1       7.740   5.066  12.506  0.00  0.00    +0.000 A 
ATOM     24  C   UNL     1       6.938   4.191  11.776  0.00  0.00    +0.000 A 
ATOM     25  C   UNL     1       5.966   3.437  12.427  0.00  0.00    +0.000 A 
ATOM     26  C   UNL     1       5.816   3.531  13.813  0.00  0.00    +0.000 A 
ENDBRANCH  20  21
ENDBRANCH  10  20
TORSDOF 3
ENDMDL
MODEL 2
REMARK VINA RESULT:      -7.4      1.061      1.451
REMARK  Name = 
REMARK  4 active torsions:
REMARK  status: ('A' for Active; 'I' for Inactive)
REMARK    1  A    between atoms: C_1  and  N_2
REMARK    2  A    between atoms: N_5  and  C_6
REMARK    3  A    between atoms: N_15  and  C_16
REMARK    4  A    between atoms: C_16  and  C_17
REMARK                            x       y       z     vdW  Elec       q    Type
REMARK                         _______ _______ _______ _____ _____    ______ ____
ROOT
ATOM      1  C   UNL     1       3.095   6.306  19.010  0.00  0.00    +0.000 A 
ATOM      2  N   UNL     1       2.936   5.185  19.783  0.00  0.00    +0.000 NA
ATOM      3  C   UNL     1       3.613   4.065  19.526  0.00  0.00    +0.000 A 
ATOM      4  N   UNL     1       3.325   2.993  20.347  0.00  0.00    +0.000 N 
ATOM      5  N   UNL     1       4.472   3.865  18.522  0.00  0.00    +0.000 NA
ATOM      6  C   UNL     1       4.621   4.963  17.762  0.00  0.00    +0.000 A 
ATOM      7  C   UNL     1       4.005   6.196  17.934  0.00  0.00    +0.000 A 
ATOM      8  N   UNL     1       4.446   7.083  16.963  0.00  0.00    +0.000 NA
ATOM      9  C   UNL     1       5.288   6.396  16.222  0.00  0.00    +0.000 A 
ATOM     10  N   UNL     1       5.387   5.096  16.637  0.00  0.00    +0.000 N 
ATOM     11  H   UNL     1       2.390   3.121  20.715  0.00  0.00    +0.000 HD
ATOM     12  H   UNL     1       3.513   2.131  19.850  0.00  0.00    +0.000 HD
ENDROOT
BRANCH   1  17
ATOM     13  C   UNL     1       0.664  11.198  20.183  0.00  0.00    +0.000 C 
ATOM     14  N   UNL     1       0.737   9.787  19.813  0.00  0.00    +0.000 NA
ATOM     15  C   UNL     1       1.334   8.986  20.909  0.00  0.00    +0.000 C 
ATOM     16  C   UNL     1       1.513   7.485  20.546  0.00  0.00    +0.000 C 
ATOM     17  N   UNL     1       2.290   7.391  19.311  0.00  0.00    +0.000 N 
ATOM     18  C   UNL     1       1.729   8.146  18.184  0.00  0.00    +0.000 C 
ATOM     19  C   UNL     1       1.555   9.624  18.589  0.00  0.00    +0.000 C 
ENDBRANCH   1  17
BRANCH  10  20
ATOM     20  C   UNL     1       6.247   4.089  16.046  0.00  0.00    +0.000 C 
BRANCH  20  21
ATOM     21  C   UNL     1       6.470   4.273  14.563  0.00  0.00    +0.000 A 
ATOM     22  C   UNL     1       7.503   5.101  14.095  0.00  0.00    +0.000 A 
ATOM     23  C   UNL     1       7.823   5.141  12.733  0.00  0.00    +0.000 A 
ATOM     24  C   UNL     1       7.112   4.359  11.825  0.00  0.00    +0.000 A 
ATOM     25  C   UNL     1       6.057   3.568  12.270  0.00  0.00    +0.000 A 
ATOM     26  C   UNL     1       5.732   3.531  13.628  0.00  0.00    +0.000 A 
ENDBRANCH  20  21
ENDBRANCH  10  20
TORSDOF 3
ENDMDL
MODEL 3
REMARK VINA RESULT:      -7.2      1.668      7.697
REMARK  Name = 
REMARK  4 active torsions:
REMARK  status: ('A' for Active; 'I' for Inactive)
REMARK    1  A    between atoms: C_1  and  N_2
REMARK    2  A    between atoms: N_5  and  C_6
REMARK    3  A    between atoms: N_15  and  C_16
REMARK    4  A    between atoms: C_16  and  C_17
REMARK                            x       y       z     vdW  Elec       q    Type
REMARK                         _______ _______ _______ _____ _____    ______ ____
ROOT
ATOM      1  C   UNL     1       3.544   5.681  18.537  0.00  0.00    +0.000 A 
ATOM      2  N   UNL     1       3.218   4.797  19.532  0.00  0.00    +0.000 NA
ATOM      3  C   UNL     1       2.352   5.124  20.492  0.00  0.00    +0.000 A 
ATOM      4  N   UNL     1       2.149   4.163  21.463  0.00  0.00    +0.000 N 
ATOM      5  N   UNL     1       1.731   6.298  20.641  0.00  0.00    +0.000 NA
ATOM      6  C   UNL     1       2.058   7.165  19.667  0.00  0.00    +0.000 A 
ATOM      7  C   UNL     1       2.915   6.946  18.597  0.00  0.00    +0.000 A 
ATOM      8  N   UNL     1       2.963   8.074  17.792  0.00  0.00    +0.000 NA
ATOM      9  C   UNL     1       2.169   8.947  18.371  0.00  0.00    +0.000 A 
ATOM     10  N   UNL     1       1.639   8.460  19.535  0.00  0.00    +0.000 N 
ATOM     11  H   UNL     1       2.970   3.573  21.500  0.00  0.00    +0.000 HD
ATOM     12  H   UNL     1       1.864   4.613  22.325  0.00  0.00    +0.000 HD
ENDROOT
BRANCH   1  17
ATOM     13  C   UNL     1       7.190   4.828  14.390  0.00  0.00    +0.000 C 
ATOM     14  N   UNL     1       6.576   4.636  15.701  0.00  0.00    +0.000 NA
ATOM     15  C   UNL     1       5.185   4.143  15.564  0.00  0.00    +0.000 C 
ATOM     16  C   UNL     1       4.448   3.996  16.925  0.00  0.00    +0.000 C 
ATOM     17  N   UNL     1       4.510   5.274  17.633  0.00  0.00    +0.000 N 
ATOM     18  C   UNL     1       5.868   5.798  17.819  0.00  0.00    +0.000 C 
ATOM     19  C   UNL     1       6.568   5.915  16.450  0.00  0.00    +0.000 C 
ENDBRANCH   1  17
BRANCH  10  20
ATOM     20  C   UNL     1       0.710   9.166  20.396  0.00  0.00    +0.000 C 
BRANCH  20  21
ATOM     21  C   UNL     1       0.058  10.360  19.738  0.00  0.00    +0.000 A 
ATOM     22  C   UNL     1       0.597  11.647  19.901  0.00  0.00    +0.000 A 
ATOM     23  C   UNL     1       0.103  12.725  19.160  0.00  0.00    +0.000 A 
ATOM     24  C   UNL     1      -0.937  12.532  18.252  0.00  0.00    +0.000 A 
ATOM     25  C   UNL     1      -1.510  11.272  18.114  0.00  0.00    +0.000 A 
ATOM     26  C   UNL     1      -1.022  10.194  18.856  0.00  0.00    +0.000 A 
ENDBRANCH  20  21
ENDBRANCH  10  20
TORSDOF 3
ENDMDL
MODEL 4
REMARK VINA RESULT:      -7.1      1.705      7.758
REMARK  Name = 
REMARK  4 active torsions:
REMARK  status: ('A' for Active; 'I' for Inactive)
REMARK    1  A    between atoms: C_1  and  N_2
REMARK    2  A    between atoms: N_5  and  C_6
REMARK    3  A    between atoms: N_15  and  C_16
REMARK    4  A    between atoms: C_16  and  C_17
REMARK                            x       y       z     vdW  Elec       q    Type
REMARK                         _______ _______ _______ _____ _____    ______ ____
ROOT
ATOM      1  C   UNL     1       3.581   5.981  18.319  0.00  0.00    +0.000 A 
ATOM      2  N   UNL     1       3.279   5.198  19.403  0.00  0.00    +0.000 NA
ATOM      3  C   UNL     1       2.419   5.610  20.336  0.00  0.00    +0.000 A 
ATOM      4  N   UNL     1       2.240   4.750  21.401  0.00  0.00    +0.000 N 
ATOM      5  N   UNL     1       1.784   6.785  20.373  0.00  0.00    +0.000 NA
ATOM      6  C   UNL     1       2.087   7.553  19.312  0.00  0.00    +0.000 A 
ATOM      7  C   UNL     1       2.936   7.237  18.260  0.00  0.00    +0.000 A 
ATOM      8  N   UNL     1       2.959   8.279  17.344  0.00  0.00    +0.000 NA
ATOM      9  C   UNL     1       2.160   9.196  17.842  0.00  0.00    +0.000 A 
ATOM     10  N   UNL     1       1.650   8.823  19.055  0.00  0.00    +0.000 N 
ATOM     11  H   UNL     1       3.070   4.176  21.487  0.00  0.00    +0.000 HD
ATOM     12  H   UNL     1       1.958   5.281  22.217  0.00  0.00    +0.000 HD
ENDROOT
BRANCH   1  17
ATOM     13  C   UNL     1       7.267   4.817  14.285  0.00  0.00    +0.000 C 
ATOM     14  N   UNL     1       6.612   4.693  15.584  0.00  0.00    +0.000 NA
ATOM     15  C   UNL     1       5.198   4.278  15.424  0.00  0.00    +0.000 C 
ATOM     16  C   UNL     1       4.422   4.208  16.769  0.00  0.00    +0.000 C 
ATOM     17  N   UNL     1       4.542   5.497  17.449  0.00  0.00    +0.000 N 
ATOM     18  C   UNL     1       5.925   5.945  17.657  0.00  0.00    +0.000 C 
ATOM     19  C   UNL     1       6.662   5.988  16.303  0.00  0.00    +0.000 C 
ENDBRANCH   1  17
BRANCH  10  20
ATOM     20  C   UNL     1       0.721   9.600  19.852  0.00  0.00    +0.000 C 
BRANCH  20  21
ATOM     21  C   UNL     1      -0.339  10.304  19.037  0.00  0.00    +0.000 A 
ATOM     22  C   UNL     1      -0.870   9.702  17.885  0.00  0.00    +0.000 A 
ATOM     23  C   UNL     1      -1.967  10.268  17.226  0.00  0.00    +0.000 A 
ATOM     24  C   UNL     1      -2.542  11.443  17.706  0.00  0.00    +0.000 A 
ATOM     25  C   UNL     1      -1.997  12.074  18.821  0.00  0.00    +0.000 A 
ATOM     26  C   UNL     1      -0.899  11.514  19.477  0.00  0.00    +0.000 A 
ENDBRANCH  20  21
ENDBRANCH  10  20
TORSDOF 3
ENDMDL
MODEL 5
REMARK VINA RESULT:      -7.1      0.588      1.114
REMARK  Name = 
REMARK  4 active torsions:
REMARK  status: ('A' for Active; 'I' for Inactive)
REMARK    1  A    between atoms: C_1  and  N_2
REMARK    2  A    between atoms: N_5  and  C_6
REMARK    3  A    between atoms: N_15  and  C_16
REMARK    4  A    between atoms: C_16  and  C_17
REMARK                            x       y       z     vdW  Elec       q    Type
REMARK                         _______ _______ _______ _____ _____    ______ ____
ROOT
ATOM      1  C   UNL     1       2.637   6.357  18.371  0.00  0.00    +0.000 A 
ATOM      2  N   UNL     1       1.926   5.251  18.757  0.00  0.00    +0.000 NA
ATOM      3  C   UNL     1       2.307   4.024  18.401  0.00  0.00    +0.000 A 
ATOM      4  N   UNL     1       1.476   3.000  18.812  0.00  0.00    +0.000 N 
ATOM      5  N   UNL     1       3.356   3.704  17.637  0.00  0.00    +0.000 NA
ATOM      6  C   UNL     1       4.048   4.790  17.255  0.00  0.00    +0.000 A 
ATOM      7  C   UNL     1       3.782   6.115  17.577  0.00  0.00    +0.000 A 
ATOM      8  N   UNL     1       4.747   6.939  17.018  0.00  0.00    +0.000 NA
ATOM      9  C   UNL     1       5.558   6.133  16.368  0.00  0.00    +0.000 A 
ATOM     10  N   UNL     1       5.146   4.831  16.441  0.00  0.00    +0.000 N 
ATOM     11  H   UNL     1       0.548   3.381  18.946  0.00  0.00    +0.000 HD
ATOM     12  H   UNL     1       1.568   2.218  18.174  0.00  0.00    +0.000 HD
ENDROOT
BRANCH   1  17
ATOM     13  C   UNL     1      -0.316  10.877  19.808  0.00  0.00    +0.000 C 
ATOM     14  N   UNL     1       0.877  10.063  19.593  0.00  0.00    +0.000 NA
ATOM     15  C   UNL     1       1.022   9.710  18.160  0.00  0.00    +0.000 C 
ATOM     16  C   UNL     1       2.231   8.774  17.878  0.00  0.00    +0.000 C 
ATOM     17  N   UNL     1       2.117   7.589  18.726  0.00  0.00    +0.000 N 
ATOM     18  C   UNL     1       1.996   7.880  20.160  0.00  0.00    +0.000 C 
ATOM     19  C   UNL     1       0.796   8.820  20.396  0.00  0.00    +0.000 C 
ENDBRANCH   1  17
BRANCH  10  20
ATOM     20  C   UNL     1       5.834   3.698  15.851  0.00  0.00    +0.000 C 
BRANCH  20  21
ATOM     21  C   UNL     1       6.416   3.983  14.487  0.00  0.00    +0.000 A 
ATOM     22  C   UNL     1       5.836   3.433  13.333  0.00  0.00    +0.000 A 
ATOM     23  C   UNL     1       6.263   3.829  12.061  0.00  0.00    +0.000 A 
ATOM     24  C   UNL     1       7.278   4.775  11.928  0.00  0.00    +0.000 A 
ATOM     25  C   UNL     1       7.893   5.295  13.063  0.00  0.00    +0.000 A 
ATOM     26  C   UNL     1       7.472   4.897  14.334  0.00  0.00    +0.000 A 
ENDBRANCH  20  21
ENDBRANCH  10  20
TORSDOF 3
ENDMDL
MODEL 6
REMARK VINA RESULT:      -6.9      1.823      7.977
REMARK  Name = 
REMARK  4 active torsions:
REMARK  status: ('A' for Active; 'I' for Inactive)
REMARK    1  A    between atoms: C_1  and  N_2
REMARK    2  A    between atoms: N_5  and  C_6
REMARK    3  A    between atoms: N_15  and  C_16
REMARK    4  A    between atoms: C_16  and  C_17
REMARK                            x       y       z     vdW  Elec       q    Type
REMARK                         _______ _______ _______ _____ _____    ______ ____
ROOT
ATOM      1  C   UNL     1       3.469   5.221  18.982  0.00  0.00    +0.000 A 
ATOM      2  N   UNL     1       3.171   4.277  19.930  0.00  0.00    +0.000 NA
ATOM      3  C   UNL     1       2.320   4.538  20.923  0.00  0.00    +0.000 A 
ATOM      4  N   UNL     1       2.144   3.521  21.840  0.00  0.00    +0.000 N 
ATOM      5  N   UNL     1       1.689   5.695  21.150  0.00  0.00    +0.000 NA
ATOM      6  C   UNL     1       1.989   6.620  20.223  0.00  0.00    +0.000 A 
ATOM      7  C   UNL     1       2.829   6.473  19.127  0.00  0.00    +0.000 A 
ATOM      8  N   UNL     1       2.851   7.646  18.388  0.00  0.00    +0.000 NA
ATOM      9  C   UNL     1       2.058   8.476  19.031  0.00  0.00    +0.000 A 
ATOM     10  N   UNL     1       1.555   7.916  20.173  0.00  0.00    +0.000 N 
ATOM     11  H   UNL     1       2.972   2.939  21.827  0.00  0.00    +0.000 HD
ATOM     12  H   UNL     1       1.870   3.917  22.731  0.00  0.00    +0.000 HD
ENDROOT
BRANCH   1  17
ATOM     13  C   UNL     1       7.194   4.736  14.846  0.00  0.00    +0.000 C 
ATOM     14  N   UNL     1       6.492   4.370  16.072  0.00  0.00    +0.000 NA
ATOM     15  C   UNL     1       5.058   4.106  15.799  0.00  0.00    +0.000 C 
ATOM     16  C   UNL     1       4.237   3.789  17.081  0.00  0.00    +0.000 C 
ATOM     17  N   UNL     1       4.423   4.878  18.039  0.00  0.00    +0.000 N 
ATOM     18  C   UNL     1       5.825   5.165  18.366  0.00  0.00    +0.000 C 
ATOM     19  C   UNL     1       6.606   5.460  17.069  0.00  0.00    +0.000 C 
ENDBRANCH   1  17
BRANCH  10  20
ATOM     20  C   UNL     1       0.634   8.561  21.090  0.00  0.00    +0.000 C 
BRANCH  20  21
ATOM     21  C   UNL     1       0.156   9.914  20.620  0.00  0.00    +0.000 A 
ATOM     22  C   UNL     1      -0.803  10.018  19.600  0.00  0.00    +0.000 A 
ATOM     23  C   UNL     1      -1.374  11.255  19.280  0.00  0.00    +0.000 A 
ATOM     24  C   UNL     1      -0.989  12.402  19.972  0.00  0.00    +0.000 A 
ATOM     25  C   UNL     1      -0.007  12.321  20.955  0.00  0.00    +0.000 A 
ATOM     26  C   UNL     1       0.568  11.088  21.272  0.00  0.00    +0.000 A 
ENDBRANCH  20  21
ENDBRANCH  10  20
TORSDOF 3
ENDMDL
MODEL 7
REMARK VINA RESULT:      -6.8      0.822      1.617
REMARK  Name = 
REMARK  4 active torsions:
REMARK  status: ('A' for Active; 'I' for Inactive)
REMARK    1  A    between atoms: C_1  and  N_2
REMARK    2  A    between atoms: N_5  and  C_6
REMARK    3  A    between atoms: N_15  and  C_16
REMARK    4  A    between atoms: C_16  and  C_17
REMARK                            x       y       z     vdW  Elec       q    Type
REMARK                         _______ _______ _______ _____ _____    ______ ____
ROOT
ATOM      1  C   UNL     1       3.247   6.228  18.758  0.00  0.00    +0.000 A 
ATOM      2  N   UNL     1       2.868   4.976  19.168  0.00  0.00    +0.000 NA
ATOM      3  C   UNL     1       3.580   3.896  18.843  0.00  0.00    +0.000 A 
ATOM      4  N   UNL     1       3.064   2.690  19.274  0.00  0.00    +0.000 N 
ATOM      5  N   UNL     1       4.685   3.865  18.091  0.00  0.00    +0.000 NA
ATOM      6  C   UNL     1       5.050   5.094  17.685  0.00  0.00    +0.000 A 
ATOM      7  C   UNL     1       4.422   6.297  17.975  0.00  0.00    +0.000 A 
ATOM      8  N   UNL     1       5.125   7.346  17.401  0.00  0.00    +0.000 NA
ATOM      9  C   UNL     1       6.135   6.785  16.774  0.00  0.00    +0.000 A 
ATOM     10  N   UNL     1       6.103   5.421  16.876  0.00  0.00    +0.000 N 
ATOM     11  H   UNL     1       2.065   2.800  19.395  0.00  0.00    +0.000 HD
ATOM     12  H   UNL     1       3.377   1.952  18.655  0.00  0.00    +0.000 HD
ENDROOT
BRANCH   1  17
ATOM     13  C   UNL     1       0.625  10.990  20.049  0.00  0.00    +0.000 C 
ATOM     14  N   UNL     1       0.753   9.595  19.636  0.00  0.00    +0.000 NA
ATOM     15  C   UNL     1       1.364   8.781  20.715  0.00  0.00    +0.000 C 
ATOM     16  C   UNL     1       1.603   7.300  20.307  0.00  0.00    +0.000 C 
ATOM     17  N   UNL     1       2.400   7.273  19.082  0.00  0.00    +0.000 N 
ATOM     18  C   UNL     1       1.827   8.043  17.970  0.00  0.00    +0.000 C 
ATOM     19  C   UNL     1       1.593   9.500  18.419  0.00  0.00    +0.000 C 
ENDBRANCH   1  17
BRANCH  10  20
ATOM     20  C   UNL     1       7.085   4.513  16.316  0.00  0.00    +0.000 C 
BRANCH  20  21
ATOM     21  C   UNL     1       6.983   4.355  14.817  0.00  0.00    +0.000 A 
ATOM     22  C   UNL     1       5.966   3.571  14.249  0.00  0.00    +0.000 A 
ATOM     23  C   UNL     1       5.762   3.560  12.865  0.00  0.00    +0.000 A 
ATOM     24  C   UNL     1       6.575   4.328  12.032  0.00  0.00    +0.000 A 
ATOM     25  C   UNL     1       7.614   5.075  12.578  0.00  0.00    +0.000 A 
ATOM     26  C   UNL     1       7.823   5.084  13.959  0.00  0.00    +0.000 A 
ENDBRANCH  20  21
ENDBRANCH  10  20
TORSDOF 3
ENDMDL
MODEL 8
REMARK VINA RESULT:      -6.8      3.434      5.768
REMARK  Name = 
REMARK  4 active torsions:
REMARK  status: ('A' for Active; 'I' for Inactive)
REMARK    1  A    between atoms: C_1  and  N_2
REMARK    2  A    between atoms: N_5  and  C_6
REMARK    3  A    between atoms: N_15  and  C_16
REMARK    4  A    between atoms: C_16  and  C_17
REMARK                            x       y       z     vdW  Elec       q    Type
REMARK                         _______ _______ _______ _____ _____    ______ ____
ROOT
ATOM      1  C   UNL     1       0.758  10.743  20.399  0.00  0.00    +0.000 A 
ATOM      2  N   UNL     1       0.365  10.602  21.704  0.00  0.00    +0.000 NA
ATOM      3  C   UNL     1       0.518   9.446  22.351  0.00  0.00    +0.000 A 
ATOM      4  N   UNL     1       0.036   9.420  23.645  0.00  0.00    +0.000 N 
ATOM      5  N   UNL     1       1.018   8.312  21.852  0.00  0.00    +0.000 NA
ATOM      6  C   UNL     1       1.395   8.452  20.570  0.00  0.00    +0.000 A 
ATOM      7  C   UNL     1       1.322   9.598  19.791  0.00  0.00    +0.000 A 
ATOM      8  N   UNL     1       1.844   9.347  18.531  0.00  0.00    +0.000 NA
ATOM      9  C   UNL     1       2.205   8.083  18.551  0.00  0.00    +0.000 A 
ATOM     10  N   UNL     1       1.907   7.488  19.746  0.00  0.00    +0.000 N 
ATOM     11  H   UNL     1      -0.690  10.121  23.726  0.00  0.00    +0.000 HD
ATOM     12  H   UNL     1      -0.210   8.469  23.891  0.00  0.00    +0.000 HD
ENDROOT
BRANCH   1  17
ATOM     13  C   UNL     1      -0.153  16.026  18.822  0.00  0.00    +0.000 C 
ATOM     14  N   UNL     1       0.070  14.592  18.655  0.00  0.00    +0.000 NA
ATOM     15  C   UNL     1      -1.031  13.813  19.271  0.00  0.00    +0.000 C 
ATOM     16  C   UNL     1      -0.812  12.276  19.198  0.00  0.00    +0.000 C 
ATOM     17  N   UNL     1       0.486  11.958  19.793  0.00  0.00    +0.000 N 
ATOM     18  C   UNL     1       1.617  12.684  19.202  0.00  0.00    +0.000 C 
ATOM     19  C   UNL     1       1.354  14.201  19.282  0.00  0.00    +0.000 C 
ENDBRANCH   1  17
BRANCH  10  20
ATOM     20  C   UNL     1       2.198   6.110  20.095  0.00  0.00    +0.000 C 
BRANCH  20  21
ATOM     21  C   UNL     1       2.791   5.308  18.960  0.00  0.00    +0.000 A 
ATOM     22  C   UNL     1       4.182   5.241  18.783  0.00  0.00    +0.000 A 
ATOM     23  C   UNL     1       4.741   4.367  17.845  0.00  0.00    +0.000 A 
ATOM     24  C   UNL     1       3.917   3.553  17.070  0.00  0.00    +0.000 A 
ATOM     25  C   UNL     1       2.534   3.641  17.203  0.00  0.00    +0.000 A 
ATOM     26  C   UNL     1       1.974   4.518  18.136  0.00  0.00    +0.000 A 
ENDBRANCH  20  21
ENDBRANCH  10  20
TORSDOF 3
ENDMDL
MODEL 9
REMARK VINA RESULT:      -6.7      4.610      6.746
REMARK  Name = 
REMARK  4 active torsions:
REMARK  status: ('A' for Active; 'I' for Inactive)
REMARK    1  A    between atoms: C_1  and  N_2
REMARK    2  A    between atoms: N_5  and  C_6
REMARK    3  A    between atoms: N_15  and  C_16
REMARK    4  A    between atoms: C_16  and  C_17
REMARK                            x       y       z     vdW  Elec       q    Type
REMARK                         _______ _______ _______ _____ _____    ______ ____
ROOT
ATOM      1  C   UNL     1       0.005  10.876  20.195  0.00  0.00    +0.000 A 
ATOM      2  N   UNL     1       0.681  11.532  19.200  0.00  0.00    +0.000 NA
ATOM      3  C   UNL     1       1.661  10.937  18.520  0.00  0.00    +0.000 A 
ATOM      4  N   UNL     1       2.296  11.723  17.578  0.00  0.00    +0.000 N 
ATOM      5  N   UNL     1       2.127   9.698  18.710  0.00  0.00    +0.000 NA
ATOM      6  C   UNL     1       1.467   9.060  19.691  0.00  0.00    +0.000 A 
ATOM      7  C   UNL     1       0.413   9.548  20.453  0.00  0.00    +0.000 A 
ATOM      8  N   UNL     1      -0.020   8.572  21.339  0.00  0.00    +0.000 NA
ATOM      9  C   UNL     1       0.762   7.536  21.124  0.00  0.00    +0.000 A 
ATOM     10  N   UNL     1       1.708   7.802  20.172  0.00  0.00    +0.000 N 
ATOM     11  H   UNL     1       2.187  12.691  17.851  0.00  0.00    +0.000 HD
ATOM     12  H   UNL     1       3.241  11.384  17.441  0.00  0.00    +0.000 HD
ENDROOT
BRANCH   1  17
ATOM     13  C   UNL     1      -4.231  12.968  23.179  0.00  0.00    +0.000 C 
ATOM     14  N   UNL     1      -2.941  12.965  22.494  0.00  0.00    +0.000 NA
ATOM     15  C   UNL     1      -3.117  12.729  21.040  0.00  0.00    +0.000 C 
ATOM     16  C   UNL     1      -1.772  12.634  20.266  0.00  0.00    +0.000 C 
ATOM     17  N   UNL     1      -0.942  11.606  20.892  0.00  0.00    +0.000 N 
ATOM     18  C   UNL     1      -0.713  11.805  22.329  0.00  0.00    +0.000 C 
ATOM     19  C   UNL     1      -2.069  11.908  23.057  0.00  0.00    +0.000 C 
ENDBRANCH   1  17
BRANCH  10  20
ATOM     20  C   UNL     1       2.703   6.864  19.691  0.00  0.00    +0.000 C 
BRANCH  20  21
ATOM     21  C   UNL     1       2.197   5.445  19.578  0.00  0.00    +0.000 A 
ATOM     22  C   UNL     1       1.866   4.711  20.729  0.00  0.00    +0.000 A 
ATOM     23  C   UNL     1       1.238   3.466  20.624  0.00  0.00    +0.000 A 
ATOM     24  C   UNL     1       0.937   2.937  19.370  0.00  0.00    +0.000 A 
ATOM     25  C   UNL     1       1.299   3.633  18.221  0.00  0.00    +0.000 A 
ATOM     26  C   UNL     1       1.931   4.875  18.323  0.00  0.00    +0.000 A 
ENDBRANCH  20  21
ENDBRANCH  10  20
TORSDOF 3
ENDMDL
