MODEL 1
REMARK VINA RESULT:      -7.3      0.000      0.000
REMARK  Name = 
REMARK  9 active torsions:
REMARK  status: ('A' for Active; 'I' for Inactive)
REMARK    1  A    between atoms: C_1  and  C_2
REMARK    2  A    between atoms: C_2  and  C_3
REMARK    3  A    between atoms: C_2  and  S_10
REMARK    4  A    between atoms: S_10  and  C_13
REMARK    5  A    between atoms: C_13  and  C_14
REMARK    6  A    between atoms: C_17  and  C_18
REMARK    7  A    between atoms: C_18  and  C_19
REMARK    8  A    between atoms: C_18  and  C_20
REMARK    9  A    between atoms: C_18  and  C_21
REMARK                            x       y       z     vdW  Elec       q    Type
REMARK                         _______ _______ _______ _____ _____    ______ ____
ROOT
ATOM      1  S   UNL     1       5.363   5.441  17.579  0.00  0.00    +0.000 S 
ATOM      2  O   UNL     1       5.068   6.350  16.485  0.00  0.00    +0.000 OA
ATOM      3  O   UNL     1       5.811   5.931  18.867  0.00  0.00    +0.000 OA
ENDROOT
BRANCH   1   5
ATOM      4  C   UNL     1       3.652   3.471  16.653  0.00  0.00    +0.000 C 
ATOM      5  C   UNL     1       3.903   4.418  17.815  0.00  0.00    +0.000 C 
BRANCH   5   6
ATOM      6  C   UNL     1       4.089   3.630  19.106  0.00  0.00    +0.000 C 
ATOM      7  O   UNL     1       5.208   3.328  19.517  0.00  0.00    +0.000 OA
ATOM      8  N   UNL     1       2.968   3.208  19.796  0.00  0.00    +0.000 N 
ATOM      9  C   UNL     1       1.564   3.281  19.440  0.00  0.00    +0.000 C 
ATOM     10  C   UNL     1       0.889   3.488  20.784  0.00  0.00    +0.000 C 
ATOM     11  C   UNL     1       1.717   2.621  21.730  0.00  0.00    +0.000 C 
ATOM     12  C   UNL     1       3.118   2.621  21.121  0.00  0.00    +0.000 C 
ENDBRANCH   5   6
ENDBRANCH   1   5
BRANCH   1  13
ATOM     13  C   UNL     1       6.593   4.289  16.988  0.00  0.00    +0.000 C 
BRANCH  13  14
ATOM     14  C   UNL     1       6.802   4.458  15.535  0.00  0.00    +0.000 A 
ATOM     15  N   UNL     1       7.610   5.396  15.025  0.00  0.00    +0.000 NA
ATOM     16  O   UNL     1       7.536   5.168  13.649  0.00  0.00    +0.000 OA
ATOM     17  C   UNL     1       6.644   4.147  13.468  0.00  0.00    +0.000 A 
ATOM     18  N   UNL     1       6.126   3.715  14.600  0.00  0.00    +0.000 NA
BRANCH  17  19
ATOM     19  C   UNL     1       6.402   3.690  12.058  0.00  0.00    +0.000 C 
ATOM     20  C   UNL     1       6.986   4.714  11.070  0.00  0.00    +0.000 C 
ATOM     21  C   UNL     1       7.081   2.330  11.815  0.00  0.00    +0.000 C 
ATOM     22  C   UNL     1       4.891   3.541  11.809  0.00  0.00    +0.000 C 
ENDBRANCH  17  19
ENDBRANCH  13  14
ENDBRANCH   1  13
TORSDOF 5
ENDMDL
MODEL 2
REMARK VINA RESULT:      -7.3      1.950      6.915
REMARK  Name = 
REMARK  9 active torsions:
REMARK  status: ('A' for Active; 'I' for Inactive)
REMARK    1  A    between atoms: C_1  and  C_2
REMARK    2  A    between atoms: C_2  and  C_3
REMARK    3  A    between atoms: C_2  and  S_10
REMARK    4  A    between atoms: S_10  and  C_13
REMARK    5  A    between atoms: C_13  and  C_14
REMARK    6  A    between atoms: C_17  and  C_18
REMARK    7  A    between atoms: C_18  and  C_19
REMARK    8  A    between atoms: C_18  and  C_20
REMARK    9  A    between atoms: C_18  and  C_21
REMARK                            x       y       z     vdW  Elec       q    Type
REMARK                         _______ _______ _______ _____ _____    ______ ____
ROOT
ATOM      1  S   UNL     1       7.165   5.693  17.194  0.00  0.00    +0.000 S 
ATOM      2  O   UNL     1       7.839   4.418  17.017  0.00  0.00    +0.000 OA
ATOM      3  O   UNL     1       7.800   6.940  16.818  0.00  0.00    +0.000 OA
ENDROOT
BRANCH   1   5
ATOM      4  C   UNL     1       5.253   6.790  15.520  0.00  0.00    +0.000 C 
ATOM      5  C   UNL     1       5.579   5.564  16.357  0.00  0.00    +0.000 C 
BRANCH   5   6
ATOM      6  C   UNL     1       5.615   4.320  15.478  0.00  0.00    +0.000 C 
ATOM      7  O   UNL     1       4.997   3.301  15.783  0.00  0.00    +0.000 OA
ATOM      8  N   UNL     1       6.403   4.331  14.342  0.00  0.00    +0.000 N 
ATOM      9  C   UNL     1       7.345   5.324  13.863  0.00  0.00    +0.000 C 
ATOM     10  C   UNL     1       7.199   5.222  12.355  0.00  0.00    +0.000 C 
ATOM     11  C   UNL     1       6.997   3.727  12.121  0.00  0.00    +0.000 C 
ATOM     12  C   UNL     1       6.309   3.231  13.392  0.00  0.00    +0.000 C 
ENDBRANCH   5   6
ENDBRANCH   1   5
BRANCH   1  13
ATOM     13  C   UNL     1       6.723   5.817  18.920  0.00  0.00    +0.000 C 
BRANCH  13  14
ATOM     14  C   UNL     1       5.558   4.959  19.217  0.00  0.00    +0.000 A 
ATOM     15  N   UNL     1       5.629   3.621  19.230  0.00  0.00    +0.000 NA
ATOM     16  O   UNL     1       4.337   3.235  19.588  0.00  0.00    +0.000 OA
ATOM     17  C   UNL     1       3.601   4.383  19.700  0.00  0.00    +0.000 A 
ATOM     18  N   UNL     1       4.300   5.466  19.427  0.00  0.00    +0.000 NA
BRANCH  17  19
ATOM     19  C   UNL     1       2.163   4.238  20.105  0.00  0.00    +0.000 C 
ATOM     20  C   UNL     1       1.626   5.585  20.619  0.00  0.00    +0.000 C 
ATOM     21  C   UNL     1       1.311   3.797  18.900  0.00  0.00    +0.000 C 
ATOM     22  C   UNL     1       2.036   3.179  21.214  0.00  0.00    +0.000 C 
ENDBRANCH  17  19
ENDBRANCH  13  14
ENDBRANCH   1  13
TORSDOF 5
ENDMDL
MODEL 3
REMARK VINA RESULT:      -7.2      1.714      7.018
REMARK  Name = 
REMARK  9 active torsions:
REMARK  status: ('A' for Active; 'I' for Inactive)
REMARK    1  A    between atoms: C_1  and  C_2
REMARK    2  A    between atoms: C_2  and  C_3
REMARK    3  A    between atoms: C_2  and  S_10
REMARK    4  A    between atoms: S_10  and  C_13
REMARK    5  A    between atoms: C_13  and  C_14
REMARK    6  A    between atoms: C_17  and  C_18
REMARK    7  A    between atoms: C_18  and  C_19
REMARK    8  A    between atoms: C_18  and  C_20
REMARK    9  A    between atoms: C_18  and  C_21
REMARK                            x       y       z     vdW  Elec       q    Type
REMARK                         _______ _______ _______ _____ _____    ______ ____
ROOT
ATOM      1  S   UNL     1       7.067   5.693  17.058  0.00  0.00    +0.000 S 
ATOM      2  O   UNL     1       7.678   4.463  17.531  0.00  0.00    +0.000 OA
ATOM      3  O   UNL     1       7.870   6.848  16.707  0.00  0.00    +0.000 OA
ENDROOT
BRANCH   1   5
ATOM      4  C   UNL     1       4.944   6.284  15.382  0.00  0.00    +0.000 C 
ATOM      5  C   UNL     1       6.027   5.254  15.658  0.00  0.00    +0.000 C 
BRANCH   5   6
ATOM      6  C   UNL     1       6.927   5.097  14.439  0.00  0.00    +0.000 C 
ATOM      7  O   UNL     1       8.035   5.629  14.388  0.00  0.00    +0.000 OA
ATOM      8  N   UNL     1       6.459   4.381  13.354  0.00  0.00    +0.000 N 
ATOM      9  C   UNL     1       5.148   3.814  13.098  0.00  0.00    +0.000 C 
ATOM     10  C   UNL     1       5.477   2.555  12.315  0.00  0.00    +0.000 C 
ATOM     11  C   UNL     1       6.656   2.980  11.444  0.00  0.00    +0.000 C 
ATOM     12  C   UNL     1       7.365   4.059  12.259  0.00  0.00    +0.000 C 
ENDBRANCH   5   6
ENDBRANCH   1   5
BRANCH   1  13
ATOM     13  C   UNL     1       5.899   6.213  18.305  0.00  0.00    +0.000 C 
BRANCH  13  14
ATOM     14  C   UNL     1       5.184   5.045  18.860  0.00  0.00    +0.000 A 
ATOM     15  N   UNL     1       5.813   3.924  19.238  0.00  0.00    +0.000 NA
ATOM     16  O   UNL     1       4.778   3.125  19.726  0.00  0.00    +0.000 OA
ATOM     17  C   UNL     1       3.619   3.828  19.540  0.00  0.00    +0.000 A 
ATOM     18  N   UNL     1       3.816   4.994  18.960  0.00  0.00    +0.000 NA
BRANCH  17  19
ATOM     19  C   UNL     1       2.346   3.187  20.011  0.00  0.00    +0.000 C 
ATOM     20  C   UNL     1       1.206   4.220  20.004  0.00  0.00    +0.000 C 
ATOM     21  C   UNL     1       1.959   2.022  19.082  0.00  0.00    +0.000 C 
ATOM     22  C   UNL     1       2.533   2.640  21.438  0.00  0.00    +0.000 C 
ENDBRANCH  17  19
ENDBRANCH  13  14
ENDBRANCH   1  13
TORSDOF 5
ENDMDL
MODEL 4
REMARK VINA RESULT:      -7.2      4.200      6.869
REMARK  Name = 
REMARK  9 active torsions:
REMARK  status: ('A' for Active; 'I' for Inactive)
REMARK    1  A    between atoms: C_1  and  C_2
REMARK    2  A    between atoms: C_2  and  C_3
REMARK    3  A    between atoms: C_2  and  S_10
REMARK    4  A    between atoms: S_10  and  C_13
REMARK    5  A    between atoms: C_13  and  C_14
REMARK    6  A    between atoms: C_17  and  C_18
REMARK    7  A    between atoms: C_18  and  C_19
REMARK    8  A    between atoms: C_18  and  C_20
REMARK    9  A    between atoms: C_18  and  C_21
REMARK                            x       y       z     vdW  Elec       q    Type
REMARK                         _______ _______ _______ _____ _____    ______ ____
ROOT
ATOM      1  S   UNL     1       3.966   6.195  18.147  0.00  0.00    +0.000 S 
ATOM      2  O   UNL     1       4.023   6.255  19.597  0.00  0.00    +0.000 OA
ATOM      3  O   UNL     1       4.883   6.959  17.324  0.00  0.00    +0.000 OA
ENDROOT
BRANCH   1   5
ATOM      4  C   UNL     1       5.273   4.155  16.807  0.00  0.00    +0.000 C 
ATOM      5  C   UNL     1       4.076   4.459  17.693  0.00  0.00    +0.000 C 
BRANCH   5   6
ATOM      6  C   UNL     1       4.152   3.645  18.979  0.00  0.00    +0.000 C 
ATOM      7  O   UNL     1       5.232   3.303  19.459  0.00  0.00    +0.000 OA
ATOM      8  N   UNL     1       2.975   3.244  19.584  0.00  0.00    +0.000 N 
ATOM      9  C   UNL     1       1.600   3.365  19.135  0.00  0.00    +0.000 C 
ATOM     10  C   UNL     1       0.842   3.569  20.435  0.00  0.00    +0.000 C 
ATOM     11  C   UNL     1       1.579   2.663  21.418  0.00  0.00    +0.000 C 
ATOM     12  C   UNL     1       3.018   2.632  20.905  0.00  0.00    +0.000 C 
ENDBRANCH   5   6
ENDBRANCH   1   5
BRANCH   1  13
ATOM     13  C   UNL     1       2.308   6.653  17.667  0.00  0.00    +0.000 C 
BRANCH  13  14
ATOM     14  C   UNL     1       2.012   8.036  18.094  0.00  0.00    +0.000 A 
ATOM     15  N   UNL     1       2.356   9.107  17.367  0.00  0.00    +0.000 NA
ATOM     16  O   UNL     1       1.854  10.175  18.113  0.00  0.00    +0.000 OA
ATOM     17  C   UNL     1       1.305   9.639  19.246  0.00  0.00    +0.000 A 
ATOM     18  N   UNL     1       1.428   8.328  19.301  0.00  0.00    +0.000 NA
BRANCH  17  19
ATOM     19  C   UNL     1       0.668  10.592  20.215  0.00  0.00    +0.000 C 
ATOM     20  C   UNL     1       1.366  11.961  20.138  0.00  0.00    +0.000 C 
ATOM     21  C   UNL     1      -0.822  10.780  19.877  0.00  0.00    +0.000 C 
ATOM     22  C   UNL     1       0.784  10.037  21.646  0.00  0.00    +0.000 C 
ENDBRANCH  17  19
ENDBRANCH  13  14
ENDBRANCH   1  13
TORSDOF 5
ENDMDL
MODEL 5
REMARK VINA RESULT:      -7.2      1.768      6.853
REMARK  Name = 
REMARK  9 active torsions:
REMARK  status: ('A' for Active; 'I' for Inactive)
REMARK    1  A    between atoms: C_1  and  C_2
REMARK    2  A    between atoms: C_2  and  C_3
REMARK    3  A    between atoms: C_2  and  S_10
REMARK    4  A    between atoms: S_10  and  C_13
REMARK    5  A    between atoms: C_13  and  C_14
REMARK    6  A    between atoms: C_17  and  C_18
REMARK    7  A    between atoms: C_18  and  C_19
REMARK    8  A    between atoms: C_18  and  C_20
REMARK    9  A    between atoms: C_18  and  C_21
REMARK                            x       y       z     vdW  Elec       q    Type
REMARK                         _______ _______ _______ _____ _____    ______ ____
ROOT
ATOM      1  S   UNL     1       5.975   6.511  17.079  0.00  0.00    +0.000 S 
ATOM      2  O   UNL     1       6.651   7.793  16.984  0.00  0.00    +0.000 OA
ATOM      3  O   UNL     1       4.711   6.273  16.412  0.00  0.00    +0.000 OA
ENDROOT
BRANCH   1   5
ATOM      4  C   UNL     1       7.749   4.486  17.727  0.00  0.00    +0.000 C 
ATOM      5  C   UNL     1       7.158   5.259  16.560  0.00  0.00    +0.000 C 
BRANCH   5   6
ATOM      6  C   UNL     1       6.443   4.309  15.607  0.00  0.00    +0.000 C 
ATOM      7  O   UNL     1       5.552   3.557  15.999  0.00  0.00    +0.000 OA
ATOM      8  N   UNL     1       6.846   4.264  14.286  0.00  0.00    +0.000 N 
ATOM      9  C   UNL     1       7.964   4.908  13.622  0.00  0.00    +0.000 C 
ATOM     10  C   UNL     1       7.413   5.190  12.236  0.00  0.00    +0.000 C 
ATOM     11  C   UNL     1       6.548   3.966  11.946  0.00  0.00    +0.000 C 
ATOM     12  C   UNL     1       6.060   3.508  13.319  0.00  0.00    +0.000 C 
ENDBRANCH   5   6
ENDBRANCH   1   5
BRANCH   1  13
ATOM     13  C   UNL     1       5.736   6.170  18.816  0.00  0.00    +0.000 C 
BRANCH  13  14
ATOM     14  C   UNL     1       4.426   5.525  19.039  0.00  0.00    +0.000 A 
ATOM     15  N   UNL     1       3.299   6.223  19.227  0.00  0.00    +0.000 NA
ATOM     16  O   UNL     1       2.325   5.230  19.352  0.00  0.00    +0.000 OA
ATOM     17  C   UNL     1       2.977   4.030  19.282  0.00  0.00    +0.000 A 
ATOM     18  N   UNL     1       4.280   4.164  19.143  0.00  0.00    +0.000 NA
BRANCH  17  19
ATOM     19  C   UNL     1       2.138   2.788  19.368  0.00  0.00    +0.000 C 
ATOM     20  C   UNL     1       0.845   2.974  18.555  0.00  0.00    +0.000 C 
ATOM     21  C   UNL     1       2.908   1.583  18.798  0.00  0.00    +0.000 C 
ATOM     22  C   UNL     1       1.782   2.498  20.837  0.00  0.00    +0.000 C 
ENDBRANCH  17  19
ENDBRANCH  13  14
ENDBRANCH   1  13
TORSDOF 5
ENDMDL
MODEL 6
REMARK VINA RESULT:      -7.1      4.360      7.334
REMARK  Name = 
REMARK  9 active torsions:
REMARK  status: ('A' for Active; 'I' for Inactive)
REMARK    1  A    between atoms: C_1  and  C_2
REMARK    2  A    between atoms: C_2  and  C_3
REMARK    3  A    between atoms: C_2  and  S_10
REMARK    4  A    between atoms: S_10  and  C_13
REMARK    5  A    between atoms: C_13  and  C_14
REMARK    6  A    between atoms: C_17  and  C_18
REMARK    7  A    between atoms: C_18  and  C_19
REMARK    8  A    between atoms: C_18  and  C_20
REMARK    9  A    between atoms: C_18  and  C_21
REMARK                            x       y       z     vdW  Elec       q    Type
REMARK                         _______ _______ _______ _____ _____    ______ ____
ROOT
ATOM      1  S   UNL     1       2.536   5.222  19.235  0.00  0.00    +0.000 S 
ATOM      2  O   UNL     1       1.567   5.071  18.165  0.00  0.00    +0.000 OA
ATOM      3  O   UNL     1       2.120   5.343  20.618  0.00  0.00    +0.000 OA
ENDROOT
BRANCH   1   5
ATOM      4  C   UNL     1       3.142   2.551  19.641  0.00  0.00    +0.000 C 
ATOM      5  C   UNL     1       3.695   3.855  19.087  0.00  0.00    +0.000 C 
BRANCH   5   6
ATOM      6  C   UNL     1       4.041   3.695  17.612  0.00  0.00    +0.000 C 
ATOM      7  O   UNL     1       3.250   3.187  16.819  0.00  0.00    +0.000 OA
ATOM      8  N   UNL     1       5.293   4.087  17.176  0.00  0.00    +0.000 N 
ATOM      9  C   UNL     1       6.448   4.544  17.926  0.00  0.00    +0.000 C 
ATOM     10  C   UNL     1       7.079   5.554  16.984  0.00  0.00    +0.000 C 
ATOM     11  C   UNL     1       6.866   4.931  15.607  0.00  0.00    +0.000 C 
ATOM     12  C   UNL     1       5.579   4.121  15.748  0.00  0.00    +0.000 C 
ENDBRANCH   5   6
ENDBRANCH   1   5
BRANCH   1  13
ATOM     13  C   UNL     1       3.527   6.658  18.848  0.00  0.00    +0.000 C 
BRANCH  13  14
ATOM     14  C   UNL     1       2.661   7.804  18.506  0.00  0.00    +0.000 A 
ATOM     15  N   UNL     1       2.657   8.371  17.292  0.00  0.00    +0.000 NA
ATOM     16  O   UNL     1       1.683   9.364  17.406  0.00  0.00    +0.000 OA
ATOM     17  C   UNL     1       1.236   9.330  18.698  0.00  0.00    +0.000 A 
ATOM     18  N   UNL     1       1.850   8.419  19.426  0.00  0.00    +0.000 NA
BRANCH  17  19
ATOM     19  C   UNL     1       0.152  10.298  19.074  0.00  0.00    +0.000 C 
ATOM     20  C   UNL     1      -1.020  10.182  18.085  0.00  0.00    +0.000 C 
ATOM     21  C   UNL     1      -0.368   9.993  20.490  0.00  0.00    +0.000 C 
ATOM     22  C   UNL     1       0.703  11.735  19.049  0.00  0.00    +0.000 C 
ENDBRANCH  17  19
ENDBRANCH  13  14
ENDBRANCH   1  13
TORSDOF 5
ENDMDL
MODEL 7
REMARK VINA RESULT:      -7.1      3.908      6.443
REMARK  Name = 
REMARK  9 active torsions:
REMARK  status: ('A' for Active; 'I' for Inactive)
REMARK    1  A    between atoms: C_1  and  C_2
REMARK    2  A    between atoms: C_2  and  C_3
REMARK    3  A    between atoms: C_2  and  S_10
REMARK    4  A    between atoms: S_10  and  C_13
REMARK    5  A    between atoms: C_13  and  C_14
REMARK    6  A    between atoms: C_17  and  C_18
REMARK    7  A    between atoms: C_18  and  C_19
REMARK    8  A    between atoms: C_18  and  C_20
REMARK    9  A    between atoms: C_18  and  C_21
REMARK                            x       y       z     vdW  Elec       q    Type
REMARK                         _______ _______ _______ _____ _____    ______ ____
ROOT
ATOM      1  S   UNL     1       5.085   6.327  17.128  0.00  0.00    +0.000 S 
ATOM      2  O   UNL     1       5.912   7.287  17.837  0.00  0.00    +0.000 OA
ATOM      3  O   UNL     1       4.781   6.488  15.719  0.00  0.00    +0.000 OA
ENDROOT
BRANCH   1   5
ATOM      4  C   UNL     1       7.344   4.744  17.365  0.00  0.00    +0.000 C 
ATOM      5  C   UNL     1       5.824   4.709  17.388  0.00  0.00    +0.000 C 
BRANCH   5   6
ATOM      6  C   UNL     1       5.330   4.181  18.730  0.00  0.00    +0.000 C 
ATOM      7  O   UNL     1       5.855   4.528  19.787  0.00  0.00    +0.000 OA
ATOM      8  N   UNL     1       4.304   3.256  18.744  0.00  0.00    +0.000 N 
ATOM      9  C   UNL     1       3.645   2.567  17.650  0.00  0.00    +0.000 C 
ATOM     10  C   UNL     1       2.218   2.433  18.151  0.00  0.00    +0.000 C 
ATOM     11  C   UNL     1       2.393   2.165  19.644  0.00  0.00    +0.000 C 
ATOM     12  C   UNL     1       3.691   2.881  20.012  0.00  0.00    +0.000 C 
ENDBRANCH   5   6
ENDBRANCH   1   5
BRANCH   1  13
ATOM     13  C   UNL     1       3.530   6.226  18.001  0.00  0.00    +0.000 C 
BRANCH  13  14
ATOM     14  C   UNL     1       2.847   7.536  17.991  0.00  0.00    +0.000 A 
ATOM     15  N   UNL     1       3.011   8.429  17.007  0.00  0.00    +0.000 NA
ATOM     16  O   UNL     1       2.166   9.476  17.382  0.00  0.00    +0.000 OA
ATOM     17  C   UNL     1       1.620   9.128  18.587  0.00  0.00    +0.000 A 
ATOM     18  N   UNL     1       2.054   7.964  19.026  0.00  0.00    +0.000 NA
BRANCH  17  19
ATOM     19  C   UNL     1       0.644  10.090  19.200  0.00  0.00    +0.000 C 
ATOM     20  C   UNL     1      -0.608  10.201  18.313  0.00  0.00    +0.000 C 
ATOM     21  C   UNL     1       0.217   9.599  20.595  0.00  0.00    +0.000 C 
ATOM     22  C   UNL     1       1.297  11.476  19.343  0.00  0.00    +0.000 C 
ENDBRANCH  17  19
ENDBRANCH  13  14
ENDBRANCH   1  13
TORSDOF 5
ENDMDL
MODEL 8
REMARK VINA RESULT:      -7.0      1.013      1.371
REMARK  Name = 
REMARK  9 active torsions:
REMARK  status: ('A' for Active; 'I' for Inactive)
REMARK    1  A    between atoms: C_1  and  C_2
REMARK    2  A    between atoms: C_2  and  C_3
REMARK    3  A    between atoms: C_2  and  S_10
REMARK    4  A    between atoms: S_10  and  C_13
REMARK    5  A    between atoms: C_13  and  C_14
REMARK    6  A    between atoms: C_17  and  C_18
REMARK    7  A    between atoms: C_18  and  C_19
REMARK    8  A    between atoms: C_18  and  C_20
REMARK    9  A    between atoms: C_18  and  C_21
REMARK                            x       y       z     vdW  Elec       q    Type
REMARK                         _______ _______ _______ _____ _____    ______ ____
ROOT
ATOM      1  S   UNL     1       5.579   5.546  17.775  0.00  0.00    +0.000 S 
ATOM      2  O   UNL     1       5.732   6.762  16.994  0.00  0.00    +0.000 OA
ATOM      3  O   UNL     1       5.748   5.548  19.214  0.00  0.00    +0.000 OA
ENDROOT
BRANCH   1   5
ATOM      4  C   UNL     1       3.961   3.354  17.283  0.00  0.00    +0.000 C 
ATOM      5  C   UNL     1       3.961   4.871  17.375  0.00  0.00    +0.000 C 
BRANCH   5   6
ATOM      6  C   UNL     1       2.984   5.333  18.450  0.00  0.00    +0.000 C 
ATOM      7  O   UNL     1       2.510   6.468  18.440  0.00  0.00    +0.000 OA
ATOM      8  N   UNL     1       2.671   4.468  19.481  0.00  0.00    +0.000 N 
ATOM      9  C   UNL     1       3.217   3.165  19.812  0.00  0.00    +0.000 C 
ATOM     10  C   UNL     1       2.015   2.433  20.380  0.00  0.00    +0.000 C 
ATOM     11  C   UNL     1       1.276   3.521  21.156  0.00  0.00    +0.000 C 
ATOM     12  C   UNL     1       1.604   4.813  20.410  0.00  0.00    +0.000 C 
ENDBRANCH   5   6
ENDBRANCH   1   5
BRANCH   1  13
ATOM     13  C   UNL     1       6.716   4.343  17.104  0.00  0.00    +0.000 C 
BRANCH  13  14
ATOM     14  C   UNL     1       6.858   4.527  15.645  0.00  0.00    +0.000 A 
ATOM     15  N   UNL     1       7.587   5.515  15.108  0.00  0.00    +0.000 NA
ATOM     16  O   UNL     1       7.476   5.285  13.736  0.00  0.00    +0.000 OA
ATOM     17  C   UNL     1       6.642   4.211  13.584  0.00  0.00    +0.000 A 
ATOM     18  N   UNL     1       6.195   3.746  14.732  0.00  0.00    +0.000 NA
BRANCH  17  19
ATOM     19  C   UNL     1       6.377   3.742  12.182  0.00  0.00    +0.000 C 
ATOM     20  C   UNL     1       6.996   4.727  11.176  0.00  0.00    +0.000 C 
ATOM     21  C   UNL     1       7.000   2.353  11.957  0.00  0.00    +0.000 C 
ATOM     22  C   UNL     1       4.860   3.648  11.941  0.00  0.00    +0.000 C 
ENDBRANCH  17  19
ENDBRANCH  13  14
ENDBRANCH   1  13
TORSDOF 5
ENDMDL
MODEL 9
REMARK VINA RESULT:      -7.0      1.124      1.695
REMARK  Name = 
REMARK  9 active torsions:
REMARK  status: ('A' for Active; 'I' for Inactive)
REMARK    1  A    between atoms: C_1  and  C_2
REMARK    2  A    between atoms: C_2  and  C_3
REMARK    3  A    between atoms: C_2  and  S_10
REMARK    4  A    between atoms: S_10  and  C_13
REMARK    5  A    between atoms: C_13  and  C_14
REMARK    6  A    between atoms: C_17  and  C_18
REMARK    7  A    between atoms: C_18  and  C_19
REMARK    8  A    between atoms: C_18  and  C_20
REMARK    9  A    between atoms: C_18  and  C_21
REMARK                            x       y       z     vdW  Elec       q    Type
REMARK                         _______ _______ _______ _____ _____    ______ ____
ROOT
ATOM      1  S   UNL     1       5.003   4.346  17.326  0.00  0.00    +0.000 S 
ATOM      2  O   UNL     1       4.466   3.016  17.100  0.00  0.00    +0.000 OA
ATOM      3  O   UNL     1       4.416   5.514  16.699  0.00  0.00    +0.000 OA
ENDROOT
BRANCH   1   5
ATOM      4  C   UNL     1       4.373   5.888  19.538  0.00  0.00    +0.000 C 
ATOM      5  C   UNL     1       5.046   4.595  19.107  0.00  0.00    +0.000 C 
BRANCH   5   6
ATOM      6  C   UNL     1       4.361   3.401  19.761  0.00  0.00    +0.000 C 
ATOM      7  O   UNL     1       5.003   2.426  20.148  0.00  0.00    +0.000 OA
ATOM      8  N   UNL     1       2.983   3.402  19.869  0.00  0.00    +0.000 N 
ATOM      9  C   UNL     1       2.000   4.332  19.345  0.00  0.00    +0.000 C 
ATOM     10  C   UNL     1       0.927   4.323  20.418  0.00  0.00    +0.000 C 
ATOM     11  C   UNL     1       0.896   2.866  20.874  0.00  0.00    +0.000 C 
ATOM     12  C   UNL     1       2.323   2.367  20.653  0.00  0.00    +0.000 C 
ENDBRANCH   5   6
ENDBRANCH   1   5
BRANCH   1  13
ATOM     13  C   UNL     1       6.728   4.302  16.865  0.00  0.00    +0.000 C 
BRANCH  13  14
ATOM     14  C   UNL     1       6.875   4.467  15.404  0.00  0.00    +0.000 A 
ATOM     15  N   UNL     1       7.590   5.459  14.857  0.00  0.00    +0.000 NA
ATOM     16  O   UNL     1       7.490   5.208  13.487  0.00  0.00    +0.000 OA
ATOM     17  C   UNL     1       6.674   4.118  13.347  0.00  0.00    +0.000 A 
ATOM     18  N   UNL     1       6.229   3.662  14.500  0.00  0.00    +0.000 NA
BRANCH  17  19
ATOM     19  C   UNL     1       6.423   3.626  11.951  0.00  0.00    +0.000 C 
ATOM     20  C   UNL     1       4.911   3.478  11.712  0.00  0.00    +0.000 C 
ATOM     21  C   UNL     1       6.988   4.624  10.924  0.00  0.00    +0.000 C 
ATOM     22  C   UNL     1       7.110   2.264  11.746  0.00  0.00    +0.000 C 
ENDBRANCH  17  19
ENDBRANCH  13  14
ENDBRANCH   1  13
TORSDOF 5
ENDMDL
