MODEL 1
REMARK VINA RESULT:      -7.5      0.000      0.000
REMARK  Name = 
REMARK  11 active torsions:
REMARK  status: ('A' for Active; 'I' for Inactive)
REMARK    1  A    between atoms: C_1  and  O_2
REMARK    2  A    between atoms: O_2  and  C_3
REMARK    3  A    between atoms: C_3  and  C_4
REMARK    4  A    between atoms: C_4  and  O_5
REMARK    5  A    between atoms: O_5  and  C_6
REMARK    6  A    between atoms: N_13  and  C_14
REMARK    7  A    between atoms: C_18  and  N_19
REMARK    8  A    between atoms: N_19  and  C_20
REMARK    9  A    between atoms: N_19  and  C_21
REMARK   10  A    between atoms: C_27  and  O_28
REMARK   11  A    between atoms: O_28  and  C_29
REMARK                            x       y       z     vdW  Elec       q    Type
REMARK                         _______ _______ _______ _____ _____    ______ ____
ROOT
ATOM      1  C   UNL     1       3.225   5.655  18.814  0.00  0.00    +0.000 A 
ATOM      2  C   UNL     1       3.223   6.816  18.000  0.00  0.00    +0.000 A 
ATOM      3  C   UNL     1       2.540   7.990  18.316  0.00  0.00    +0.000 A 
ATOM      4  N   UNL     1       2.539   9.021  17.461  0.00  0.00    +0.000 NA
ATOM      5  C   UNL     1       1.841  10.106  17.815  0.00  0.00    +0.000 A 
ATOM      6  N   UNL     1       1.157  10.264  18.955  0.00  0.00    +0.000 NA
ATOM      7  C   UNL     1       1.177   9.233  19.829  0.00  0.00    +0.000 A 
ATOM      8  N   UNL     1       0.521   9.380  21.074  0.00  0.00    +0.000 N 
ATOM      9  C   UNL     1       1.851   8.036  19.528  0.00  0.00    +0.000 A 
ATOM     10  C   UNL     1       1.849   6.889  20.353  0.00  0.00    +0.000 A 
ATOM     11  C   UNL     1       2.522   5.699  20.025  0.00  0.00    +0.000 A 
ATOM     12  H   UNL     1       1.194   9.260  21.835  0.00  0.00    +0.000 HD
ENDROOT
BRANCH   8  13
ATOM     13  C   UNL     1      -0.363  10.412  21.361  0.00  0.00    +0.000 C 
ATOM     14  C   UNL     1      -1.062  11.120  20.466  0.00  0.00    +0.000 C 
ATOM     15  C   UNL     1      -2.014  12.187  20.826  0.00  0.00    +0.000 C 
ATOM     16  O   UNL     1      -2.708  12.669  19.937  0.00  0.00    +0.000 OA
ATOM     17  C   UNL     1      -2.101  12.622  22.278  0.00  0.00    +0.000 C 
ATOM     18  C   UNL     1      -1.442  11.860  23.165  0.00  0.00    +0.000 C 
ATOM     19  C   UNL     1      -0.594  10.708  22.807  0.00  0.00    +0.000 C 
ATOM     20  O   UNL     1      -0.061  10.023  23.678  0.00  0.00    +0.000 OA
BRANCH  17  21
ATOM     21  N   UNL     1      -2.850  13.767  22.623  0.00  0.00    +0.000 N 
ATOM     22  C   UNL     1      -2.367  15.137  22.451  0.00  0.00    +0.000 C 
ATOM     23  C   UNL     1      -4.129  13.700  23.342  0.00  0.00    +0.000 C 
ENDBRANCH  17  21
ENDBRANCH   8  13
BRANCH  11  24
ATOM     24  O   UNL     1       2.220   4.747  20.954  0.00  0.00    +0.000 OA
ATOM     25  C   UNL     1       1.235   3.755  20.750  0.00  0.00    +0.000 C 
ENDBRANCH  11  24
BRANCH   1  26
ATOM     26  O   UNL     1       3.923   4.642  18.196  0.00  0.00    +0.000 OA
BRANCH  26  27
ATOM     27  C   UNL     1       5.079   4.154  18.843  0.00  0.00    +0.000 C 
BRANCH  27  28
ATOM     28  C   UNL     1       6.067   5.231  19.273  0.00  0.00    +0.000 C 
BRANCH  28  30
ATOM     29  C   UNL     1       7.333   4.515  17.387  0.00  0.00    +0.000 C 
ATOM     30  O   UNL     1       7.336   4.790  18.778  0.00  0.00    +0.000 OA
ENDBRANCH  28  30
ENDBRANCH  27  28
ENDBRANCH  26  27
ENDBRANCH   1  26
TORSDOF 7
ENDMDL
MODEL 2
REMARK VINA RESULT:      -7.3      0.946      1.004
REMARK  Name = 
REMARK  11 active torsions:
REMARK  status: ('A' for Active; 'I' for Inactive)
REMARK    1  A    between atoms: C_1  and  O_2
REMARK    2  A    between atoms: O_2  and  C_3
REMARK    3  A    between atoms: C_3  and  C_4
REMARK    4  A    between atoms: C_4  and  O_5
REMARK    5  A    between atoms: O_5  and  C_6
REMARK    6  A    between atoms: N_13  and  C_14
REMARK    7  A    between atoms: C_18  and  N_19
REMARK    8  A    between atoms: N_19  and  C_20
REMARK    9  A    between atoms: N_19  and  C_21
REMARK   10  A    between atoms: C_27  and  O_28
REMARK   11  A    between atoms: O_28  and  C_29
REMARK                            x       y       z     vdW  Elec       q    Type
REMARK                         _______ _______ _______ _____ _____    ______ ____
ROOT
ATOM      1  C   UNL     1       3.181   5.255  19.060  0.00  0.00    +0.000 A 
ATOM      2  C   UNL     1       3.226   6.376  18.193  0.00  0.00    +0.000 A 
ATOM      3  C   UNL     1       2.578   7.585  18.445  0.00  0.00    +0.000 A 
ATOM      4  N   UNL     1       2.620   8.573  17.541  0.00  0.00    +0.000 NA
ATOM      5  C   UNL     1       1.954   9.696  17.835  0.00  0.00    +0.000 A 
ATOM      6  N   UNL     1       1.264   9.930  18.958  0.00  0.00    +0.000 NA
ATOM      7  C   UNL     1       1.240   8.942  19.880  0.00  0.00    +0.000 A 
ATOM      8  N   UNL     1       0.577   9.169  21.108  0.00  0.00    +0.000 N 
ATOM      9  C   UNL     1       1.879   7.711  19.644  0.00  0.00    +0.000 A 
ATOM     10  C   UNL     1       1.830   6.606  20.522  0.00  0.00    +0.000 A 
ATOM     11  C   UNL     1       2.467   5.379  20.259  0.00  0.00    +0.000 A 
ATOM     12  H   UNL     1       1.237   9.064  21.882  0.00  0.00    +0.000 HD
ENDROOT
BRANCH   8  13
ATOM     13  C   UNL     1      -0.276  10.242  21.335  0.00  0.00    +0.000 C 
ATOM     14  C   UNL     1      -0.935  10.934  20.399  0.00  0.00    +0.000 C 
ATOM     15  C   UNL     1      -1.856  12.046  20.696  0.00  0.00    +0.000 C 
ATOM     16  O   UNL     1      -2.519  12.513  19.775  0.00  0.00    +0.000 OA
ATOM     17  C   UNL     1      -1.952  12.546  22.126  0.00  0.00    +0.000 C 
ATOM     18  C   UNL     1      -1.334  11.802  23.057  0.00  0.00    +0.000 C 
ATOM     19  C   UNL     1      -0.520  10.608  22.763  0.00  0.00    +0.000 C 
ATOM     20  O   UNL     1      -0.025   9.943  23.671  0.00  0.00    +0.000 OA
BRANCH  17  21
ATOM     21  N   UNL     1      -2.666  13.729  22.408  0.00  0.00    +0.000 N 
ATOM     22  C   UNL     1      -2.050  14.946  22.937  0.00  0.00    +0.000 C 
ATOM     23  C   UNL     1      -4.132  13.812  22.354  0.00  0.00    +0.000 C 
ENDBRANCH  17  21
ENDBRANCH   8  13
BRANCH  11  24
ATOM     24  O   UNL     1       2.124   4.483  21.228  0.00  0.00    +0.000 OA
ATOM     25  C   UNL     1       1.327   3.344  20.978  0.00  0.00    +0.000 C 
ENDBRANCH  11  24
BRANCH   1  26
ATOM     26  O   UNL     1       3.851   4.192  18.500  0.00  0.00    +0.000 OA
BRANCH  26  27
ATOM     27  C   UNL     1       3.739   4.008  17.105  0.00  0.00    +0.000 C 
BRANCH  27  28
ATOM     28  C   UNL     1       5.052   3.688  16.401  0.00  0.00    +0.000 C 
BRANCH  28  30
ATOM     29  C   UNL     1       7.077   4.840  15.905  0.00  0.00    +0.000 C 
ATOM     30  O   UNL     1       5.922   4.778  16.725  0.00  0.00    +0.000 OA
ENDBRANCH  28  30
ENDBRANCH  27  28
ENDBRANCH  26  27
ENDBRANCH   1  26
TORSDOF 7
ENDMDL
MODEL 3
REMARK VINA RESULT:      -7.3      1.584      2.486
REMARK  Name = 
REMARK  11 active torsions:
REMARK  status: ('A' for Active; 'I' for Inactive)
REMARK    1  A    between atoms: C_1  and  O_2
REMARK    2  A    between atoms: O_2  and  C_3
REMARK    3  A    between atoms: C_3  and  C_4
REMARK    4  A    between atoms: C_4  and  O_5
REMARK    5  A    between atoms: O_5  and  C_6
REMARK    6  A    between atoms: N_13  and  C_14
REMARK    7  A    between atoms: C_18  and  N_19
REMARK    8  A    between atoms: N_19  and  C_20
REMARK    9  A    between atoms: N_19  and  C_21
REMARK   10  A    between atoms: C_27  and  O_28
REMARK   11  A    between atoms: O_28  and  C_29
REMARK                            x       y       z     vdW  Elec       q    Type
REMARK                         _______ _______ _______ _____ _____    ______ ____
ROOT
ATOM      1  C   UNL     1       3.518   4.343  19.746  0.00  0.00    +0.000 A 
ATOM      2  C   UNL     1       3.681   5.340  18.751  0.00  0.00    +0.000 A 
ATOM      3  C   UNL     1       3.056   6.587  18.785  0.00  0.00    +0.000 A 
ATOM      4  N   UNL     1       3.215   7.448  17.771  0.00  0.00    +0.000 NA
ATOM      5  C   UNL     1       2.566   8.615  17.855  0.00  0.00    +0.000 A 
ATOM      6  N   UNL     1       1.787   9.010  18.870  0.00  0.00    +0.000 NA
ATOM      7  C   UNL     1       1.644   8.151  19.904  0.00  0.00    +0.000 A 
ATOM      8  N   UNL     1       0.882   8.552  21.025  0.00  0.00    +0.000 N 
ATOM      9  C   UNL     1       2.257   6.885  19.888  0.00  0.00    +0.000 A 
ATOM     10  C   UNL     1       2.090   5.904  20.891  0.00  0.00    +0.000 A 
ATOM     11  C   UNL     1       2.704   4.639  20.847  0.00  0.00    +0.000 A 
ATOM     12  H   UNL     1       1.466   8.532  21.865  0.00  0.00    +0.000 HD
ENDROOT
BRANCH   8  13
ATOM     13  C   UNL     1       0.051   9.665  21.033  0.00  0.00    +0.000 C 
ATOM     14  C   UNL     1      -0.556  10.200  19.968  0.00  0.00    +0.000 C 
ATOM     15  C   UNL     1      -1.456  11.366  20.035  0.00  0.00    +0.000 C 
ATOM     16  O   UNL     1      -2.072  11.682  19.022  0.00  0.00    +0.000 OA
ATOM     17  C   UNL     1      -1.589  12.104  21.354  0.00  0.00    +0.000 C 
ATOM     18  C   UNL     1      -1.025  11.518  22.422  0.00  0.00    +0.000 C 
ATOM     19  C   UNL     1      -0.234  10.274  22.368  0.00  0.00    +0.000 C 
ATOM     20  O   UNL     1       0.211   9.764  23.394  0.00  0.00    +0.000 OA
BRANCH  17  21
ATOM     21  N   UNL     1      -2.280  13.333  21.403  0.00  0.00    +0.000 N 
ATOM     22  C   UNL     1      -3.713  13.451  21.676  0.00  0.00    +0.000 C 
ATOM     23  C   UNL     1      -1.667  14.613  21.024  0.00  0.00    +0.000 C 
ENDBRANCH  17  21
ENDBRANCH   8  13
BRANCH  11  24
ATOM     24  O   UNL     1       2.243   3.885  21.886  0.00  0.00    +0.000 OA
ATOM     25  C   UNL     1       1.646   2.618  21.713  0.00  0.00    +0.000 C 
ENDBRANCH  11  24
BRANCH   1  26
ATOM     26  O   UNL     1       4.198   3.201  19.391  0.00  0.00    +0.000 OA
BRANCH  26  27
ATOM     27  C   UNL     1       3.908   2.630  18.132  0.00  0.00    +0.000 C 
BRANCH  27  28
ATOM     28  C   UNL     1       2.695   1.708  18.119  0.00  0.00    +0.000 C 
BRANCH  28  30
ATOM     29  C   UNL     1       0.523   2.528  18.656  0.00  0.00    +0.000 C 
ATOM     30  O   UNL     1       1.598   2.544  17.731  0.00  0.00    +0.000 OA
ENDBRANCH  28  30
ENDBRANCH  27  28
ENDBRANCH  26  27
ENDBRANCH   1  26
TORSDOF 7
ENDMDL
MODEL 4
REMARK VINA RESULT:      -7.2      2.616      4.155
REMARK  Name = 
REMARK  11 active torsions:
REMARK  status: ('A' for Active; 'I' for Inactive)
REMARK    1  A    between atoms: C_1  and  O_2
REMARK    2  A    between atoms: O_2  and  C_3
REMARK    3  A    between atoms: C_3  and  C_4
REMARK    4  A    between atoms: C_4  and  O_5
REMARK    5  A    between atoms: O_5  and  C_6
REMARK    6  A    between atoms: N_13  and  C_14
REMARK    7  A    between atoms: C_18  and  N_19
REMARK    8  A    between atoms: N_19  and  C_20
REMARK    9  A    between atoms: N_19  and  C_21
REMARK   10  A    between atoms: C_27  and  O_28
REMARK   11  A    between atoms: O_28  and  C_29
REMARK                            x       y       z     vdW  Elec       q    Type
REMARK                         _______ _______ _______ _____ _____    ______ ____
ROOT
ATOM      1  C   UNL     1       3.662   5.481  18.608  0.00  0.00    +0.000 A 
ATOM      2  C   UNL     1       2.848   5.756  19.736  0.00  0.00    +0.000 A 
ATOM      3  C   UNL     1       2.185   6.965  19.946  0.00  0.00    +0.000 A 
ATOM      4  N   UNL     1       1.485   7.164  21.071  0.00  0.00    +0.000 NA
ATOM      5  C   UNL     1       0.897   8.356  21.220  0.00  0.00    +0.000 A 
ATOM      6  N   UNL     1       0.927   9.363  20.338  0.00  0.00    +0.000 NA
ATOM      7  C   UNL     1       1.613   9.154  19.192  0.00  0.00    +0.000 A 
ATOM      8  N   UNL     1       1.618  10.167  18.205  0.00  0.00    +0.000 N 
ATOM      9  C   UNL     1       2.297   7.947  18.962  0.00  0.00    +0.000 A 
ATOM     10  C   UNL     1       3.099   7.686  17.829  0.00  0.00    +0.000 A 
ATOM     11  C   UNL     1       3.784   6.475  17.628  0.00  0.00    +0.000 A 
ATOM     12  H   UNL     1       1.223   9.802  17.334  0.00  0.00    +0.000 HD
ENDROOT
BRANCH   8  13
ATOM     13  C   UNL     1       1.184  11.467  18.432  0.00  0.00    +0.000 C 
ATOM     14  C   UNL     1       1.965  12.521  18.694  0.00  0.00    +0.000 C 
ATOM     15  C   UNL     1       1.456  13.890  18.897  0.00  0.00    +0.000 C 
ATOM     16  O   UNL     1       2.269  14.804  18.985  0.00  0.00    +0.000 OA
ATOM     17  C   UNL     1      -0.045  14.102  18.968  0.00  0.00    +0.000 C 
ATOM     18  C   UNL     1      -0.809  13.048  18.641  0.00  0.00    +0.000 C 
ATOM     19  C   UNL     1      -0.285  11.710  18.308  0.00  0.00    +0.000 C 
ATOM     20  O   UNL     1      -1.041  10.803  17.968  0.00  0.00    +0.000 OA
BRANCH  17  21
ATOM     21  N   UNL     1      -0.558  15.357  19.357  0.00  0.00    +0.000 N 
ATOM     22  C   UNL     1      -1.322  15.580  20.585  0.00  0.00    +0.000 C 
ATOM     23  C   UNL     1      -0.519  16.542  18.490  0.00  0.00    +0.000 C 
ENDBRANCH  17  21
ENDBRANCH   8  13
BRANCH  11  24
ATOM     24  O   UNL     1       4.566   6.586  16.516  0.00  0.00    +0.000 OA
ATOM     25  C   UNL     1       5.962   6.372  16.531  0.00  0.00    +0.000 C 
ENDBRANCH  11  24
BRANCH   1  26
ATOM     26  O   UNL     1       4.238   4.238  18.728  0.00  0.00    +0.000 OA
BRANCH  26  27
ATOM     27  C   UNL     1       3.380   3.117  18.753  0.00  0.00    +0.000 C 
BRANCH  27  28
ATOM     28  C   UNL     1       2.618   2.875  17.455  0.00  0.00    +0.000 C 
BRANCH  28  30
ATOM     29  C   UNL     1       0.769   2.585  18.929  0.00  0.00    +0.000 C 
ATOM     30  O   UNL     1       1.258   3.211  17.755  0.00  0.00    +0.000 OA
ENDBRANCH  28  30
ENDBRANCH  27  28
ENDBRANCH  26  27
ENDBRANCH   1  26
TORSDOF 7
ENDMDL
MODEL 5
REMARK VINA RESULT:      -7.1      1.211      1.882
REMARK  Name = 
REMARK  11 active torsions:
REMARK  status: ('A' for Active; 'I' for Inactive)
REMARK    1  A    between atoms: C_1  and  O_2
REMARK    2  A    between atoms: O_2  and  C_3
REMARK    3  A    between atoms: C_3  and  C_4
REMARK    4  A    between atoms: C_4  and  O_5
REMARK    5  A    between atoms: O_5  and  C_6
REMARK    6  A    between atoms: N_13  and  C_14
REMARK    7  A    between atoms: C_18  and  N_19
REMARK    8  A    between atoms: N_19  and  C_20
REMARK    9  A    between atoms: N_19  and  C_21
REMARK   10  A    between atoms: C_27  and  O_28
REMARK   11  A    between atoms: O_28  and  C_29
REMARK                            x       y       z     vdW  Elec       q    Type
REMARK                         _______ _______ _______ _____ _____    ______ ____
ROOT
ATOM      1  C   UNL     1       3.327   5.309  19.105  0.00  0.00    +0.000 A 
ATOM      2  C   UNL     1       3.327   6.405  18.205  0.00  0.00    +0.000 A 
ATOM      3  C   UNL     1       2.644   7.600  18.428  0.00  0.00    +0.000 A 
ATOM      4  N   UNL     1       2.646   8.562  17.496  0.00  0.00    +0.000 NA
ATOM      5  C   UNL     1       1.947   9.672  17.764  0.00  0.00    +0.000 A 
ATOM      6  N   UNL     1       1.261   9.916  18.887  0.00  0.00    +0.000 NA
ATOM      7  C   UNL     1       1.277   8.956  19.838  0.00  0.00    +0.000 A 
ATOM      8  N   UNL     1       0.619   9.198  21.066  0.00  0.00    +0.000 N 
ATOM      9  C   UNL     1       1.953   7.739  19.631  0.00  0.00    +0.000 A 
ATOM     10  C   UNL     1       1.948   6.659  20.542  0.00  0.00    +0.000 A 
ATOM     11  C   UNL     1       2.621   5.446  20.307  0.00  0.00    +0.000 A 
ATOM     12  H   UNL     1       1.290   9.136  21.835  0.00  0.00    +0.000 HD
ENDROOT
BRANCH   8  13
ATOM     13  C   UNL     1      -0.265  10.249  21.271  0.00  0.00    +0.000 C 
ATOM     14  C   UNL     1      -0.934  10.910  20.319  0.00  0.00    +0.000 C 
ATOM     15  C   UNL     1      -1.889  12.000  20.593  0.00  0.00    +0.000 C 
ATOM     16  O   UNL     1      -2.554  12.437  19.659  0.00  0.00    +0.000 OA
ATOM     17  C   UNL     1      -2.012  12.515  22.015  0.00  0.00    +0.000 C 
ATOM     18  C   UNL     1      -1.383  11.801  22.962  0.00  0.00    +0.000 C 
ATOM     19  C   UNL     1      -0.534  10.626  22.692  0.00  0.00    +0.000 C 
ATOM     20  O   UNL     1      -0.029   9.987  23.613  0.00  0.00    +0.000 OA
BRANCH  17  21
ATOM     21  N   UNL     1      -2.762  13.682  22.275  0.00  0.00    +0.000 N 
ATOM     22  C   UNL     1      -4.181  13.676  22.631  0.00  0.00    +0.000 C 
ATOM     23  C   UNL     1      -2.237  15.036  22.057  0.00  0.00    +0.000 C 
ENDBRANCH  17  21
ENDBRANCH   8  13
BRANCH  11  24
ATOM     24  O   UNL     1       2.316   4.568  21.305  0.00  0.00    +0.000 OA
ATOM     25  C   UNL     1       1.424   3.486  21.136  0.00  0.00    +0.000 C 
ENDBRANCH  11  24
BRANCH   1  26
ATOM     26  O   UNL     1       4.025   4.252  18.569  0.00  0.00    +0.000 OA
BRANCH  26  27
ATOM     27  C   UNL     1       3.502   3.641  17.409  0.00  0.00    +0.000 C 
BRANCH  27  28
ATOM     28  C   UNL     1       2.093   3.081  17.569  0.00  0.00    +0.000 C 
BRANCH  28  30
ATOM     29  C   UNL     1       3.624   1.411  18.308  0.00  0.00    +0.000 C 
ATOM     30  O   UNL     1       2.269   1.821  18.229  0.00  0.00    +0.000 OA
ENDBRANCH  28  30
ENDBRANCH  27  28
ENDBRANCH  26  27
ENDBRANCH   1  26
TORSDOF 7
ENDMDL
MODEL 6
REMARK VINA RESULT:      -7.0      1.004      1.386
REMARK  Name = 
REMARK  11 active torsions:
REMARK  status: ('A' for Active; 'I' for Inactive)
REMARK    1  A    between atoms: C_1  and  O_2
REMARK    2  A    between atoms: O_2  and  C_3
REMARK    3  A    between atoms: C_3  and  C_4
REMARK    4  A    between atoms: C_4  and  O_5
REMARK    5  A    between atoms: O_5  and  C_6
REMARK    6  A    between atoms: N_13  and  C_14
REMARK    7  A    between atoms: C_18  and  N_19
REMARK    8  A    between atoms: N_19  and  C_20
REMARK    9  A    between atoms: N_19  and  C_21
REMARK   10  A    between atoms: C_27  and  O_28
REMARK   11  A    between atoms: O_28  and  C_29
REMARK                            x       y       z     vdW  Elec       q    Type
REMARK                         _______ _______ _______ _____ _____    ______ ____
ROOT
ATOM      1  C   UNL     1       3.104   6.209  18.670  0.00  0.00    +0.000 A 
ATOM      2  C   UNL     1       3.076   7.411  17.918  0.00  0.00    +0.000 A 
ATOM      3  C   UNL     1       2.354   8.546  18.287  0.00  0.00    +0.000 A 
ATOM      4  N   UNL     1       2.332   9.620  17.486  0.00  0.00    +0.000 NA
ATOM      5  C   UNL     1       1.598  10.665  17.887  0.00  0.00    +0.000 A 
ATOM      6  N   UNL     1       0.898  10.742  19.026  0.00  0.00    +0.000 NA
ATOM      7  C   UNL     1       0.938   9.668  19.845  0.00  0.00    +0.000 A 
ATOM      8  N   UNL     1       0.265   9.730  21.087  0.00  0.00    +0.000 N 
ATOM      9  C   UNL     1       1.652   8.508  19.491  0.00  0.00    +0.000 A 
ATOM     10  C   UNL     1       1.675   7.320  20.255  0.00  0.00    +0.000 A 
ATOM     11  C   UNL     1       2.387   6.169  19.873  0.00  0.00    +0.000 A 
ATOM     12  H   UNL     1       0.933   9.589  21.849  0.00  0.00    +0.000 HD
ENDROOT
BRANCH   8  13
ATOM     13  C   UNL     1      -0.653  10.719  21.418  0.00  0.00    +0.000 C 
ATOM     14  C   UNL     1      -1.335  11.477  20.552  0.00  0.00    +0.000 C 
ATOM     15  C   UNL     1      -2.325  12.494  20.954  0.00  0.00    +0.000 C 
ATOM     16  O   UNL     1      -2.997  13.027  20.078  0.00  0.00    +0.000 OA
ATOM     17  C   UNL     1      -2.474  12.817  22.430  0.00  0.00    +0.000 C 
ATOM     18  C   UNL     1      -1.829  12.005  23.282  0.00  0.00    +0.000 C 
ATOM     19  C   UNL     1      -0.942  10.900  22.872  0.00  0.00    +0.000 C 
ATOM     20  O   UNL     1      -0.424  10.163  23.708  0.00  0.00    +0.000 OA
BRANCH  17  21
ATOM     21  N   UNL     1      -3.261  13.917  22.830  0.00  0.00    +0.000 N 
ATOM     22  C   UNL     1      -2.783  15.300  22.838  0.00  0.00    +0.000 C 
ATOM     23  C   UNL     1      -4.591  13.771  23.436  0.00  0.00    +0.000 C 
ENDBRANCH  17  21
ENDBRANCH   8  13
BRANCH  11  24
ATOM     24  O   UNL     1       2.104   5.161  20.747  0.00  0.00    +0.000 OA
ATOM     25  C   UNL     1       1.156   4.149  20.477  0.00  0.00    +0.000 C 
ENDBRANCH  11  24
BRANCH   1  26
ATOM     26  O   UNL     1       3.838   5.252  18.009  0.00  0.00    +0.000 OA
BRANCH  26  27
ATOM     27  C   UNL     1       4.949   4.697  18.682  0.00  0.00    +0.000 C 
BRANCH  27  28
ATOM     28  C   UNL     1       4.722   3.293  19.228  0.00  0.00    +0.000 C 
BRANCH  28  30
ATOM     29  C   UNL     1       3.567   1.343  18.494  0.00  0.00    +0.000 C 
ATOM     30  O   UNL     1       3.652   2.757  18.441  0.00  0.00    +0.000 OA
ENDBRANCH  28  30
ENDBRANCH  27  28
ENDBRANCH  26  27
ENDBRANCH   1  26
TORSDOF 7
ENDMDL
MODEL 7
REMARK VINA RESULT:      -7.0      2.038      9.503
REMARK  Name = 
REMARK  11 active torsions:
REMARK  status: ('A' for Active; 'I' for Inactive)
REMARK    1  A    between atoms: C_1  and  O_2
REMARK    2  A    between atoms: O_2  and  C_3
REMARK    3  A    between atoms: C_3  and  C_4
REMARK    4  A    between atoms: C_4  and  O_5
REMARK    5  A    between atoms: O_5  and  C_6
REMARK    6  A    between atoms: N_13  and  C_14
REMARK    7  A    between atoms: C_18  and  N_19
REMARK    8  A    between atoms: N_19  and  C_20
REMARK    9  A    between atoms: N_19  and  C_21
REMARK   10  A    between atoms: C_27  and  O_28
REMARK   11  A    between atoms: O_28  and  C_29
REMARK                            x       y       z     vdW  Elec       q    Type
REMARK                         _______ _______ _______ _____ _____    ______ ____
ROOT
ATOM      1  C   UNL     1      -2.409  12.496  21.092  0.00  0.00    +0.000 A 
ATOM      2  C   UNL     1      -1.743  11.921  22.205  0.00  0.00    +0.000 A 
ATOM      3  C   UNL     1      -0.760  10.936  22.104  0.00  0.00    +0.000 A 
ATOM      4  N   UNL     1      -0.226  10.401  23.209  0.00  0.00    +0.000 NA
ATOM      5  C   UNL     1       0.692   9.442  23.040  0.00  0.00    +0.000 A 
ATOM      6  N   UNL     1       1.140   8.981  21.866  0.00  0.00    +0.000 NA
ATOM      7  C   UNL     1       0.618   9.537  20.750  0.00  0.00    +0.000 A 
ATOM      8  N   UNL     1       1.108   9.125  19.488  0.00  0.00    +0.000 N 
ATOM      9  C   UNL     1      -0.381  10.525  20.827  0.00  0.00    +0.000 A 
ATOM     10  C   UNL     1      -1.029  11.093  19.708  0.00  0.00    +0.000 A 
ATOM     11  C   UNL     1      -2.035  12.072  19.811  0.00  0.00    +0.000 A 
ATOM     12  H   UNL     1       1.495   9.930  18.989  0.00  0.00    +0.000 HD
ENDROOT
BRANCH   8  13
ATOM     13  C   UNL     1       1.904   8.003  19.300  0.00  0.00    +0.000 C 
ATOM     14  C   UNL     1       1.979   6.947  20.118  0.00  0.00    +0.000 C 
ATOM     15  C   UNL     1       2.818   5.763  19.856  0.00  0.00    +0.000 C 
ATOM     16  O   UNL     1       2.699   4.792  20.597  0.00  0.00    +0.000 OA
ATOM     17  C   UNL     1       3.773   5.798  18.676  0.00  0.00    +0.000 C 
ATOM     18  C   UNL     1       3.638   6.835  17.835  0.00  0.00    +0.000 C 
ATOM     19  C   UNL     1       2.698   7.954  18.035  0.00  0.00    +0.000 C 
ATOM     20  O   UNL     1       2.591   8.846  17.196  0.00  0.00    +0.000 OA
BRANCH  17  21
ATOM     21  N   UNL     1       4.726   4.771  18.516  0.00  0.00    +0.000 N 
ATOM     22  C   UNL     1       4.387   3.392  18.161  0.00  0.00    +0.000 C 
ATOM     23  C   UNL     1       6.147   4.938  18.848  0.00  0.00    +0.000 C 
ENDBRANCH  17  21
ENDBRANCH   8  13
BRANCH  11  24
ATOM     24  O   UNL     1      -2.545  12.316  18.570  0.00  0.00    +0.000 OA
ATOM     25  C   UNL     1      -3.254  11.349  17.823  0.00  0.00    +0.000 C 
ENDBRANCH  11  24
BRANCH   1  26
ATOM     26  O   UNL     1      -3.375  13.377  21.520  0.00  0.00    +0.000 OA
BRANCH  26  27
ATOM     27  C   UNL     1      -4.037  13.087  22.732  0.00  0.00    +0.000 C 
BRANCH  27  28
ATOM     28  C   UNL     1      -5.525  13.414  22.735  0.00  0.00    +0.000 C 
BRANCH  28  30
ATOM     29  C   UNL     1      -6.672  12.108  21.106  0.00  0.00    +0.000 C 
ATOM     30  O   UNL     1      -6.178  12.175  22.434  0.00  0.00    +0.000 OA
ENDBRANCH  28  30
ENDBRANCH  27  28
ENDBRANCH  26  27
ENDBRANCH   1  26
TORSDOF 7
ENDMDL
MODEL 8
REMARK VINA RESULT:      -6.9      2.637      4.131
REMARK  Name = 
REMARK  11 active torsions:
REMARK  status: ('A' for Active; 'I' for Inactive)
REMARK    1  A    between atoms: C_1  and  O_2
REMARK    2  A    between atoms: O_2  and  C_3
REMARK    3  A    between atoms: C_3  and  C_4
REMARK    4  A    between atoms: C_4  and  O_5
REMARK    5  A    between atoms: O_5  and  C_6
REMARK    6  A    between atoms: N_13  and  C_14
REMARK    7  A    between atoms: C_18  and  N_19
REMARK    8  A    between atoms: N_19  and  C_20
REMARK    9  A    between atoms: N_19  and  C_21
REMARK   10  A    between atoms: C_27  and  O_28
REMARK   11  A    between atoms: O_28  and  C_29
REMARK                            x       y       z     vdW  Elec       q    Type
REMARK                         _______ _______ _______ _____ _____    ______ ____
ROOT
ATOM      1  C   UNL     1       4.950   4.692  17.253  0.00  0.00    +0.000 A 
ATOM      2  C   UNL     1       4.021   4.122  18.160  0.00  0.00    +0.000 A 
ATOM      3  C   UNL     1       3.121   4.863  18.926  0.00  0.00    +0.000 A 
ATOM      4  N   UNL     1       2.320   4.249  19.806  0.00  0.00    +0.000 NA
ATOM      5  C   UNL     1       1.500   5.023  20.527  0.00  0.00    +0.000 A 
ATOM      6  N   UNL     1       1.393   6.354  20.435  0.00  0.00    +0.000 NA
ATOM      7  C   UNL     1       2.185   6.972  19.531  0.00  0.00    +0.000 A 
ATOM      8  N   UNL     1       2.061   8.370  19.356  0.00  0.00    +0.000 N 
ATOM      9  C   UNL     1       3.107   6.247  18.754  0.00  0.00    +0.000 A 
ATOM     10  C   UNL     1       4.021   6.829  17.849  0.00  0.00    +0.000 A 
ATOM     11  C   UNL     1       4.943   6.083  17.092  0.00  0.00    +0.000 A 
ATOM     12  H   UNL     1       1.806   8.575  18.386  0.00  0.00    +0.000 HD
ENDROOT
BRANCH   8  13
ATOM     13  C   UNL     1       1.366   9.197  20.229  0.00  0.00    +0.000 C 
ATOM     14  C   UNL     1       1.176   8.977  21.535  0.00  0.00    +0.000 C 
ATOM     15  C   UNL     1       0.456   9.904  22.428  0.00  0.00    +0.000 C 
ATOM     16  O   UNL     1       0.468   9.675  23.633  0.00  0.00    +0.000 OA
ATOM     17  C   UNL     1      -0.246  11.102  21.815  0.00  0.00    +0.000 C 
ATOM     18  C   UNL     1       0.008  11.339  20.519  0.00  0.00    +0.000 C 
ATOM     19  C   UNL     1       0.841  10.475  19.661  0.00  0.00    +0.000 C 
ATOM     20  O   UNL     1       1.074  10.782  18.494  0.00  0.00    +0.000 OA
BRANCH  17  21
ATOM     21  N   UNL     1      -1.104  11.893  22.608  0.00  0.00    +0.000 N 
ATOM     22  C   UNL     1      -0.822  13.280  22.979  0.00  0.00    +0.000 C 
ATOM     23  C   UNL     1      -2.294  11.355  23.282  0.00  0.00    +0.000 C 
ENDBRANCH  17  21
ENDBRANCH   8  13
BRANCH  11  24
ATOM     24  O   UNL     1       5.763   6.941  16.420  0.00  0.00    +0.000 OA
ATOM     25  C   UNL     1       6.926   7.503  16.992  0.00  0.00    +0.000 C 
ENDBRANCH  11  24
BRANCH   1  26
ATOM     26  O   UNL     1       5.749   3.712  16.711  0.00  0.00    +0.000 OA
BRANCH  26  27
ATOM     27  C   UNL     1       6.456   4.022  15.529  0.00  0.00    +0.000 C 
BRANCH  27  28
ATOM     28  C   UNL     1       5.577   4.229  14.301  0.00  0.00    +0.000 C 
BRANCH  28  30
ATOM     29  C   UNL     1       5.994   3.148  12.219  0.00  0.00    +0.000 C 
ATOM     30  O   UNL     1       6.460   4.078  13.183  0.00  0.00    +0.000 OA
ENDBRANCH  28  30
ENDBRANCH  27  28
ENDBRANCH  26  27
ENDBRANCH   1  26
TORSDOF 7
ENDMDL
MODEL 9
REMARK VINA RESULT:      -6.8      2.582      3.903
REMARK  Name = 
REMARK  11 active torsions:
REMARK  status: ('A' for Active; 'I' for Inactive)
REMARK    1  A    between atoms: C_1  and  O_2
REMARK    2  A    between atoms: O_2  and  C_3
REMARK    3  A    between atoms: C_3  and  C_4
REMARK    4  A    between atoms: C_4  and  O_5
REMARK    5  A    between atoms: O_5  and  C_6
REMARK    6  A    between atoms: N_13  and  C_14
REMARK    7  A    between atoms: C_18  and  N_19
REMARK    8  A    between atoms: N_19  and  C_20
REMARK    9  A    between atoms: N_19  and  C_21
REMARK   10  A    between atoms: C_27  and  O_28
REMARK   11  A    between atoms: O_28  and  C_29
REMARK                            x       y       z     vdW  Elec       q    Type
REMARK                         _______ _______ _______ _____ _____    ______ ____
ROOT
ATOM      1  C   UNL     1       3.622   5.603  18.300  0.00  0.00    +0.000 A 
ATOM      2  C   UNL     1       2.830   5.797  19.459  0.00  0.00    +0.000 A 
ATOM      3  C   UNL     1       2.178   6.990  19.769  0.00  0.00    +0.000 A 
ATOM      4  N   UNL     1       1.500   7.109  20.919  0.00  0.00    +0.000 NA
ATOM      5  C   UNL     1       0.921   8.291  21.166  0.00  0.00    +0.000 A 
ATOM      6  N   UNL     1       0.941   9.359  20.359  0.00  0.00    +0.000 NA
ATOM      7  C   UNL     1       1.605   9.232  19.189  0.00  0.00    +0.000 A 
ATOM      8  N   UNL     1       1.599  10.315  18.279  0.00  0.00    +0.000 N 
ATOM      9  C   UNL     1       2.278   8.042  18.859  0.00  0.00    +0.000 A 
ATOM     10  C   UNL     1       3.058   7.862  17.695  0.00  0.00    +0.000 A 
ATOM     11  C   UNL     1       3.732   6.665  17.393  0.00  0.00    +0.000 A 
ATOM     12  H   UNL     1       1.186  10.017  17.391  0.00  0.00    +0.000 HD
ENDROOT
BRANCH   8  13
ATOM     13  C   UNL     1       1.177  11.597  18.609  0.00  0.00    +0.000 C 
ATOM     14  C   UNL     1       1.965  12.610  18.984  0.00  0.00    +0.000 C 
ATOM     15  C   UNL     1       1.470  13.964  19.294  0.00  0.00    +0.000 C 
ATOM     16  O   UNL     1       2.293  14.854  19.485  0.00  0.00    +0.000 OA
ATOM     17  C   UNL     1      -0.030  14.194  19.344  0.00  0.00    +0.000 C 
ATOM     18  C   UNL     1      -0.799  13.185  18.905  0.00  0.00    +0.000 C 
ATOM     19  C   UNL     1      -0.284  11.874  18.469  0.00  0.00    +0.000 C 
ATOM     20  O   UNL     1      -1.044  11.013  18.029  0.00  0.00    +0.000 OA
BRANCH  17  21
ATOM     21  N   UNL     1      -0.535  15.418  19.830  0.00  0.00    +0.000 N 
ATOM     22  C   UNL     1      -0.739  16.603  18.996  0.00  0.00    +0.000 C 
ATOM     23  C   UNL     1      -0.758  15.682  21.257  0.00  0.00    +0.000 C 
ENDBRANCH  17  21
ENDBRANCH   8  13
BRANCH  11  24
ATOM     24  O   UNL     1       4.495   6.853  16.278  0.00  0.00    +0.000 OA
ATOM     25  C   UNL     1       5.486   5.940  15.858  0.00  0.00    +0.000 C 
ENDBRANCH  11  24
BRANCH   1  26
ATOM     26  O   UNL     1       4.192   4.351  18.317  0.00  0.00    +0.000 OA
BRANCH  26  27
ATOM     27  C   UNL     1       4.547   3.809  19.572  0.00  0.00    +0.000 C 
BRANCH  27  28
ATOM     28  C   UNL     1       4.176   2.343  19.756  0.00  0.00    +0.000 C 
BRANCH  28  30
ATOM     29  C   UNL     1       1.881   1.993  19.219  0.00  0.00    +0.000 C 
ATOM     30  O   UNL     1       3.211   2.073  18.733  0.00  0.00    +0.000 OA
ENDBRANCH  28  30
ENDBRANCH  27  28
ENDBRANCH  26  27
ENDBRANCH   1  26
TORSDOF 7
ENDMDL
