MODEL 1
REMARK VINA RESULT:      -7.9      0.000      0.000
REMARK  Name = 
REMARK  3 active torsions:
REMARK  status: ('A' for Active; 'I' for Inactive)
REMARK    1  A    between atoms: N_4  and  O_5
REMARK    2  A    between atoms: N_4  and  C_6
REMARK    3  A    between atoms: C_6  and  C_7
REMARK                            x       y       z     vdW  Elec       q    Type
REMARK                         _______ _______ _______ _____ _____    ______ ____
ROOT
ATOM      1  C   UNL     1       4.685   6.047  17.291  0.00  0.00    +0.000 A 
ATOM      2  C   UNL     1       4.154   7.325  17.014  0.00  0.00    +0.000 A 
ATOM      3  C   UNL     1       2.984   7.791  17.616  0.00  0.00    +0.000 A 
ATOM      4  C   UNL     1       2.294   7.005  18.544  0.00  0.00    +0.000 A 
ATOM      5  C   UNL     1       2.813   5.741  18.879  0.00  0.00    +0.000 A 
ATOM      6  C   UNL     1       3.979   5.309  18.250  0.00  0.00    +0.000 A 
ATOM      7  O   UNL     1       4.329   4.073  18.716  0.00  0.00    +0.000 OA
ATOM      8  C   UNL     1       3.392   3.705  19.633  0.00  0.00    +0.000 A 
ATOM      9  C   UNL     1       3.386   2.509  20.348  0.00  0.00    +0.000 A 
ATOM     10  C   UNL     1       2.333   2.324  21.251  0.00  0.00    +0.000 A 
ATOM     11  C   UNL     1       1.340   3.294  21.412  0.00  0.00    +0.000 A 
ATOM     12  C   UNL     1       1.373   4.487  20.676  0.00  0.00    +0.000 A 
ATOM     13  C   UNL     1       2.427   4.696  19.768  0.00  0.00    +0.000 A 
ENDROOT
BRANCH   1  14
ATOM     14  C   UNL     1       5.914   5.526  16.586  0.00  0.00    +0.000 C 
BRANCH  14  18
ATOM     15  N   UNL     1       8.344   6.555  19.067  0.00  0.00    +0.000 N 
ATOM     16  C   UNL     1       7.652   6.693  17.898  0.00  0.00    +0.000 C 
ATOM     17  O   UNL     1       7.566   7.784  17.349  0.00  0.00    +0.000 OA
ATOM     18  N   UNL     1       7.104   5.517  17.437  0.00  0.00    +0.000 N 
ATOM     19  H   UNL     1       8.571   7.439  19.504  0.00  0.00    +0.000 HD
ATOM     20  H   UNL     1       7.948   5.851  19.677  0.00  0.00    +0.000 HD
BRANCH  18  21
ATOM     21  O   UNL     1       7.179   4.396  18.303  0.00  0.00    +0.000 OA
ATOM     22  H   UNL     1       8.085   4.510  18.651  0.00  0.00    +0.000 HD
ENDBRANCH  18  21
ENDBRANCH  14  18
ENDBRANCH   1  14
TORSDOF 3
ENDMDL
MODEL 2
REMARK VINA RESULT:      -7.9      1.382      1.382
REMARK  Name = 
REMARK  3 active torsions:
REMARK  status: ('A' for Active; 'I' for Inactive)
REMARK    1  A    between atoms: N_4  and  O_5
REMARK    2  A    between atoms: N_4  and  C_6
REMARK    3  A    between atoms: C_6  and  C_7
REMARK                            x       y       z     vdW  Elec       q    Type
REMARK                         _______ _______ _______ _____ _____    ______ ____
ROOT
ATOM      1  C   UNL     1       5.099   6.130  17.148  0.00  0.00    +0.000 A 
ATOM      2  C   UNL     1       4.643   7.464  17.228  0.00  0.00    +0.000 A 
ATOM      3  C   UNL     1       3.349   7.784  17.644  0.00  0.00    +0.000 A 
ATOM      4  C   UNL     1       2.449   6.782  18.018  0.00  0.00    +0.000 A 
ATOM      5  C   UNL     1       2.878   5.442  17.991  0.00  0.00    +0.000 A 
ATOM      6  C   UNL     1       4.174   5.164  17.564  0.00  0.00    +0.000 A 
ATOM      7  O   UNL     1       4.404   3.818  17.622  0.00  0.00    +0.000 OA
ATOM      8  C   UNL     1       3.264   3.231  18.075  0.00  0.00    +0.000 A 
ATOM      9  C   UNL     1       3.085   1.865  18.282  0.00  0.00    +0.000 A 
ATOM     10  C   UNL     1       1.832   1.462  18.761  0.00  0.00    +0.000 A 
ATOM     11  C   UNL     1       0.819   2.392  19.006  0.00  0.00    +0.000 A 
ATOM     12  C   UNL     1       1.029   3.761  18.787  0.00  0.00    +0.000 A 
ATOM     13  C   UNL     1       2.283   4.188  18.313  0.00  0.00    +0.000 A 
ENDROOT
BRANCH   1  14
ATOM     14  C   UNL     1       6.478   5.790  16.636  0.00  0.00    +0.000 C 
BRANCH  14  18
ATOM     15  N   UNL     1       8.224   5.642  19.806  0.00  0.00    +0.000 N 
ATOM     16  C   UNL     1       7.890   6.223  18.616  0.00  0.00    +0.000 C 
ATOM     17  O   UNL     1       8.053   7.424  18.441  0.00  0.00    +0.000 OA
ATOM     18  N   UNL     1       7.387   5.338  17.689  0.00  0.00    +0.000 N 
ATOM     19  H   UNL     1       8.401   6.312  20.543  0.00  0.00    +0.000 HD
ATOM     20  H   UNL     1       7.617   4.869  20.049  0.00  0.00    +0.000 HD
BRANCH  18  21
ATOM     21  O   UNL     1       7.125   4.020  18.143  0.00  0.00    +0.000 OA
ATOM     22  H   UNL     1       8.010   3.622  18.029  0.00  0.00    +0.000 HD
ENDBRANCH  18  21
ENDBRANCH  14  18
ENDBRANCH   1  14
TORSDOF 3
ENDMDL
MODEL 3
REMARK VINA RESULT:      -7.7      1.742      2.186
REMARK  Name = 
REMARK  3 active torsions:
REMARK  status: ('A' for Active; 'I' for Inactive)
REMARK    1  A    between atoms: N_4  and  O_5
REMARK    2  A    between atoms: N_4  and  C_6
REMARK    3  A    between atoms: C_6  and  C_7
REMARK                            x       y       z     vdW  Elec       q    Type
REMARK                         _______ _______ _______ _____ _____    ______ ____
ROOT
ATOM      1  C   UNL     1       4.951   5.953  17.407  0.00  0.00    +0.000 A 
ATOM      2  C   UNL     1       4.456   7.234  17.082  0.00  0.00    +0.000 A 
ATOM      3  C   UNL     1       3.277   7.739  17.635  0.00  0.00    +0.000 A 
ATOM      4  C   UNL     1       2.543   6.991  18.559  0.00  0.00    +0.000 A 
ATOM      5  C   UNL     1       3.025   5.725  18.941  0.00  0.00    +0.000 A 
ATOM      6  C   UNL     1       4.200   5.254  18.361  0.00  0.00    +0.000 A 
ATOM      7  O   UNL     1       4.509   4.023  18.868  0.00  0.00    +0.000 OA
ATOM      8  C   UNL     1       3.537   3.697  19.763  0.00  0.00    +0.000 A 
ATOM      9  C   UNL     1       3.483   2.521  20.507  0.00  0.00    +0.000 A 
ATOM     10  C   UNL     1       2.399   2.379  21.381  0.00  0.00    +0.000 A 
ATOM     11  C   UNL     1       1.422   3.372  21.485  0.00  0.00    +0.000 A 
ATOM     12  C   UNL     1       1.502   4.546  20.722  0.00  0.00    +0.000 A 
ATOM     13  C   UNL     1       2.588   4.711  19.843  0.00  0.00    +0.000 A 
ENDROOT
BRANCH   1  14
ATOM     14  C   UNL     1       6.190   5.389  16.754  0.00  0.00    +0.000 C 
BRANCH  14  18
ATOM     15  N   UNL     1       6.611   3.402  13.755  0.00  0.00    +0.000 N 
ATOM     16  C   UNL     1       6.535   4.577  14.446  0.00  0.00    +0.000 C 
ATOM     17  O   UNL     1       7.006   5.607  13.979  0.00  0.00    +0.000 OA
ATOM     18  N   UNL     1       5.893   4.466  15.659  0.00  0.00    +0.000 N 
ATOM     19  H   UNL     1       7.249   3.439  12.971  0.00  0.00    +0.000 HD
ATOM     20  H   UNL     1       6.704   2.596  14.361  0.00  0.00    +0.000 HD
BRANCH  18  21
ATOM     21  O   UNL     1       5.567   3.154  16.090  0.00  0.00    +0.000 OA
ATOM     22  H   UNL     1       6.447   2.734  16.035  0.00  0.00    +0.000 HD
ENDBRANCH  18  21
ENDBRANCH  14  18
ENDBRANCH   1  14
TORSDOF 3
ENDMDL
MODEL 4
REMARK VINA RESULT:      -7.7      1.355      1.374
REMARK  Name = 
REMARK  3 active torsions:
REMARK  status: ('A' for Active; 'I' for Inactive)
REMARK    1  A    between atoms: N_4  and  O_5
REMARK    2  A    between atoms: N_4  and  C_6
REMARK    3  A    between atoms: C_6  and  C_7
REMARK                            x       y       z     vdW  Elec       q    Type
REMARK                         _______ _______ _______ _____ _____    ______ ____
ROOT
ATOM      1  C   UNL     1       4.446   6.155  16.719  0.00  0.00    +0.000 A 
ATOM      2  C   UNL     1       4.222   7.527  16.964  0.00  0.00    +0.000 A 
ATOM      3  C   UNL     1       3.258   7.974  17.870  0.00  0.00    +0.000 A 
ATOM      4  C   UNL     1       2.478   7.065  18.591  0.00  0.00    +0.000 A 
ATOM      5  C   UNL     1       2.697   5.688  18.405  0.00  0.00    +0.000 A 
ATOM      6  C   UNL     1       3.664   5.283  17.487  0.00  0.00    +0.000 A 
ATOM      7  O   UNL     1       3.738   3.918  17.461  0.00  0.00    +0.000 OA
ATOM      8  C   UNL     1       2.821   3.445  18.348  0.00  0.00    +0.000 A 
ATOM      9  C   UNL     1       2.583   2.101  18.625  0.00  0.00    +0.000 A 
ATOM     10  C   UNL     1       1.596   1.822  19.579  0.00  0.00    +0.000 A 
ATOM     11  C   UNL     1       0.889   2.850  20.208  0.00  0.00    +0.000 A 
ATOM     12  C   UNL     1       1.151   4.194  19.906  0.00  0.00    +0.000 A 
ATOM     13  C   UNL     1       2.143   4.496  18.955  0.00  0.00    +0.000 A 
ENDROOT
BRANCH   1  14
ATOM     14  C   UNL     1       5.445   5.683  15.690  0.00  0.00    +0.000 C 
BRANCH  14  18
ATOM     15  N   UNL     1       7.810   4.324  18.074  0.00  0.00    +0.000 N 
ATOM     16  C   UNL     1       7.293   5.314  17.289  0.00  0.00    +0.000 C 
ATOM     17  O   UNL     1       7.545   6.490  17.520  0.00  0.00    +0.000 OA
ATOM     18  N   UNL     1       6.505   4.850  16.259  0.00  0.00    +0.000 N 
ATOM     19  H   UNL     1       8.215   4.667  18.935  0.00  0.00    +0.000 HD
ATOM     20  H   UNL     1       7.188   3.531  18.165  0.00  0.00    +0.000 HD
BRANCH  18  21
ATOM     21  O   UNL     1       6.203   3.464  16.262  0.00  0.00    +0.000 OA
ATOM     22  H   UNL     1       6.311   3.269  17.214  0.00  0.00    +0.000 HD
ENDBRANCH  18  21
ENDBRANCH  14  18
ENDBRANCH   1  14
TORSDOF 3
ENDMDL
MODEL 5
REMARK VINA RESULT:      -7.6      2.520      2.929
REMARK  Name = 
REMARK  3 active torsions:
REMARK  status: ('A' for Active; 'I' for Inactive)
REMARK    1  A    between atoms: N_4  and  O_5
REMARK    2  A    between atoms: N_4  and  C_6
REMARK    3  A    between atoms: C_6  and  C_7
REMARK                            x       y       z     vdW  Elec       q    Type
REMARK                         _______ _______ _______ _____ _____    ______ ____
ROOT
ATOM      1  C   UNL     1       5.137   4.882  16.280  0.00  0.00    +0.000 A 
ATOM      2  C   UNL     1       5.292   6.281  16.172  0.00  0.00    +0.000 A 
ATOM      3  C   UNL     1       4.522   7.176  16.918  0.00  0.00    +0.000 A 
ATOM      4  C   UNL     1       3.566   6.711  17.826  0.00  0.00    +0.000 A 
ATOM      5  C   UNL     1       3.409   5.323  17.993  0.00  0.00    +0.000 A 
ATOM      6  C   UNL     1       4.191   4.464  17.225  0.00  0.00    +0.000 A 
ATOM      7  O   UNL     1       3.905   3.166  17.540  0.00  0.00    +0.000 OA
ATOM      8  C   UNL     1       2.939   3.185  18.499  0.00  0.00    +0.000 A 
ATOM      9  C   UNL     1       2.370   2.062  19.097  0.00  0.00    +0.000 A 
ATOM     10  C   UNL     1       1.392   2.298  20.070  0.00  0.00    +0.000 A 
ATOM     11  C   UNL     1       1.008   3.598  20.409  0.00  0.00    +0.000 A 
ATOM     12  C   UNL     1       1.598   4.708  19.788  0.00  0.00    +0.000 A 
ATOM     13  C   UNL     1       2.588   4.494  18.812  0.00  0.00    +0.000 A 
ENDROOT
BRANCH   1  14
ATOM     14  C   UNL     1       5.928   3.925  15.421  0.00  0.00    +0.000 C 
BRANCH  14  18
ATOM     15  N   UNL     1       7.449   4.763  12.242  0.00  0.00    +0.000 N 
ATOM     16  C   UNL     1       7.256   4.912  13.585  0.00  0.00    +0.000 C 
ATOM     17  O   UNL     1       8.091   5.482  14.277  0.00  0.00    +0.000 OA
ATOM     18  N   UNL     1       6.070   4.378  14.037  0.00  0.00    +0.000 N 
ATOM     19  H   UNL     1       8.395   4.970  11.949  0.00  0.00    +0.000 HD
ATOM     20  H   UNL     1       7.055   3.904  11.882  0.00  0.00    +0.000 HD
BRANCH  18  21
ATOM     21  O   UNL     1       5.318   3.615  13.106  0.00  0.00    +0.000 OA
ATOM     22  H   UNL     1       4.413   3.825  13.407  0.00  0.00    +0.000 HD
ENDBRANCH  18  21
ENDBRANCH  14  18
ENDBRANCH   1  14
TORSDOF 3
ENDMDL
MODEL 6
REMARK VINA RESULT:      -7.6      2.135      2.534
REMARK  Name = 
REMARK  3 active torsions:
REMARK  status: ('A' for Active; 'I' for Inactive)
REMARK    1  A    between atoms: N_4  and  O_5
REMARK    2  A    between atoms: N_4  and  C_6
REMARK    3  A    between atoms: C_6  and  C_7
REMARK                            x       y       z     vdW  Elec       q    Type
REMARK                         _______ _______ _______ _____ _____    ______ ____
ROOT
ATOM      1  C   UNL     1       4.950   4.801  16.388  0.00  0.00    +0.000 A 
ATOM      2  C   UNL     1       5.080   6.189  16.164  0.00  0.00    +0.000 A 
ATOM      3  C   UNL     1       4.346   7.132  16.886  0.00  0.00    +0.000 A 
ATOM      4  C   UNL     1       3.454   6.731  17.885  0.00  0.00    +0.000 A 
ATOM      5  C   UNL     1       3.325   5.358  18.167  0.00  0.00    +0.000 A 
ATOM      6  C   UNL     1       4.070   4.450  17.419  0.00  0.00    +0.000 A 
ATOM      7  O   UNL     1       3.820   3.177  17.849  0.00  0.00    +0.000 OA
ATOM      8  C   UNL     1       2.915   3.261  18.862  0.00  0.00    +0.000 A 
ATOM      9  C   UNL     1       2.399   2.183  19.578  0.00  0.00    +0.000 A 
ATOM     10  C   UNL     1       1.479   2.484  20.589  0.00  0.00    +0.000 A 
ATOM     11  C   UNL     1       1.100   3.803  20.851  0.00  0.00    +0.000 A 
ATOM     12  C   UNL     1       1.636   4.868  20.112  0.00  0.00    +0.000 A 
ATOM     13  C   UNL     1       2.567   4.587  19.096  0.00  0.00    +0.000 A 
ENDROOT
BRANCH   1  14
ATOM     14  C   UNL     1       5.700   3.788  15.557  0.00  0.00    +0.000 C 
BRANCH  14  18
ATOM     15  N   UNL     1       8.167   5.603  13.622  0.00  0.00    +0.000 N 
ATOM     16  C   UNL     1       7.167   4.687  13.783  0.00  0.00    +0.000 C 
ATOM     17  O   UNL     1       6.520   4.294  12.821  0.00  0.00    +0.000 OA
ATOM     18  N   UNL     1       6.996   4.277  15.087  0.00  0.00    +0.000 N 
ATOM     19  H   UNL     1       8.159   6.048  12.714  0.00  0.00    +0.000 HD
ATOM     20  H   UNL     1       8.261   6.224  14.416  0.00  0.00    +0.000 HD
BRANCH  18  21
ATOM     21  O   UNL     1       7.737   4.973  16.077  0.00  0.00    +0.000 OA
ATOM     22  H   UNL     1       8.431   5.375  15.518  0.00  0.00    +0.000 HD
ENDBRANCH  18  21
ENDBRANCH  14  18
ENDBRANCH   1  14
TORSDOF 3
ENDMDL
MODEL 7
REMARK VINA RESULT:      -7.5      1.672      3.798
REMARK  Name = 
REMARK  3 active torsions:
REMARK  status: ('A' for Active; 'I' for Inactive)
REMARK    1  A    between atoms: N_4  and  O_5
REMARK    2  A    between atoms: N_4  and  C_6
REMARK    3  A    between atoms: C_6  and  C_7
REMARK                            x       y       z     vdW  Elec       q    Type
REMARK                         _______ _______ _______ _____ _____    ______ ____
ROOT
ATOM      1  C   UNL     1       4.020   4.038  18.082  0.00  0.00    +0.000 A 
ATOM      2  C   UNL     1       3.910   3.030  19.065  0.00  0.00    +0.000 A 
ATOM      3  C   UNL     1       3.276   3.250  20.290  0.00  0.00    +0.000 A 
ATOM      4  C   UNL     1       2.703   4.490  20.585  0.00  0.00    +0.000 A 
ATOM      5  C   UNL     1       2.755   5.509  19.616  0.00  0.00    +0.000 A 
ATOM      6  C   UNL     1       3.403   5.251  18.410  0.00  0.00    +0.000 A 
ATOM      7  O   UNL     1       3.334   6.350  17.600  0.00  0.00    +0.000 OA
ATOM      8  C   UNL     1       2.655   7.314  18.281  0.00  0.00    +0.000 A 
ATOM      9  C   UNL     1       2.364   8.589  17.802  0.00  0.00    +0.000 A 
ATOM     10  C   UNL     1       1.646   9.432  18.660  0.00  0.00    +0.000 A 
ATOM     11  C   UNL     1       1.255   9.006  19.931  0.00  0.00    +0.000 A 
ATOM     12  C   UNL     1       1.564   7.715  20.385  0.00  0.00    +0.000 A 
ATOM     13  C   UNL     1       2.279   6.850  19.537  0.00  0.00    +0.000 A 
ENDROOT
BRANCH   1  14
ATOM     14  C   UNL     1       4.765   3.810  16.789  0.00  0.00    +0.000 C 
BRANCH  14  18
ATOM     15  N   UNL     1       7.416   6.273  16.625  0.00  0.00    +0.000 N 
ATOM     16  C   UNL     1       6.368   5.564  16.112  0.00  0.00    +0.000 C 
ATOM     17  O   UNL     1       5.757   5.974  15.133  0.00  0.00    +0.000 OA
ATOM     18  N   UNL     1       6.106   4.393  16.788  0.00  0.00    +0.000 N 
ATOM     19  H   UNL     1       7.479   7.214  16.260  0.00  0.00    +0.000 HD
ATOM     20  H   UNL     1       7.495   6.183  17.630  0.00  0.00    +0.000 HD
BRANCH  18  21
ATOM     21  O   UNL     1       6.823   4.180  17.994  0.00  0.00    +0.000 OA
ATOM     22  H   UNL     1       7.607   4.739  17.827  0.00  0.00    +0.000 HD
ENDBRANCH  18  21
ENDBRANCH  14  18
ENDBRANCH   1  14
TORSDOF 3
ENDMDL
MODEL 8
REMARK VINA RESULT:      -7.5      2.989      6.167
REMARK  Name = 
REMARK  3 active torsions:
REMARK  status: ('A' for Active; 'I' for Inactive)
REMARK    1  A    between atoms: N_4  and  O_5
REMARK    2  A    between atoms: N_4  and  C_6
REMARK    3  A    between atoms: C_6  and  C_7
REMARK                            x       y       z     vdW  Elec       q    Type
REMARK                         _______ _______ _______ _____ _____    ______ ____
ROOT
ATOM      1  C   UNL     1       5.022   5.036  17.859  0.00  0.00    +0.000 A 
ATOM      2  C   UNL     1       5.859   5.857  18.646  0.00  0.00    +0.000 A 
ATOM      3  C   UNL     1       7.063   6.373  18.162  0.00  0.00    +0.000 A 
ATOM      4  C   UNL     1       7.481   6.107  16.855  0.00  0.00    +0.000 A 
ATOM      5  C   UNL     1       6.655   5.327  16.025  0.00  0.00    +0.000 A 
ATOM      6  C   UNL     1       5.466   4.825  16.547  0.00  0.00    +0.000 A 
ATOM      7  O   UNL     1       4.802   4.111  15.590  0.00  0.00    +0.000 OA
ATOM      8  C   UNL     1       5.560   4.144  14.460  0.00  0.00    +0.000 A 
ATOM      9  C   UNL     1       5.233   3.538  13.249  0.00  0.00    +0.000 A 
ATOM     10  C   UNL     1       6.149   3.697  12.202  0.00  0.00    +0.000 A 
ATOM     11  C   UNL     1       7.330   4.421  12.378  0.00  0.00    +0.000 A 
ATOM     12  C   UNL     1       7.632   5.018  13.611  0.00  0.00    +0.000 A 
ATOM     13  C   UNL     1       6.722   4.877  14.675  0.00  0.00    +0.000 A 
ENDROOT
BRANCH   1  14
ATOM     14  C   UNL     1       3.755   4.429  18.412  0.00  0.00    +0.000 C 
BRANCH  14  18
ATOM     15  N   UNL     1       3.990   0.819  18.230  0.00  0.00    +0.000 N 
ATOM     16  C   UNL     1       3.337   2.012  18.112  0.00  0.00    +0.000 C 
ATOM     17  O   UNL     1       2.326   2.106  17.427  0.00  0.00    +0.000 OA
ATOM     18  N   UNL     1       3.919   3.036  18.826  0.00  0.00    +0.000 N 
ATOM     19  H   UNL     1       3.685   0.129  17.557  0.00  0.00    +0.000 HD
ATOM     20  H   UNL     1       4.991   0.928  18.327  0.00  0.00    +0.000 HD
BRANCH  18  21
ATOM     21  O   UNL     1       5.177   2.762  19.423  0.00  0.00    +0.000 OA
ATOM     22  H   UNL     1       4.887   2.251  20.204  0.00  0.00    +0.000 HD
ENDBRANCH  18  21
ENDBRANCH  14  18
ENDBRANCH   1  14
TORSDOF 3
ENDMDL
MODEL 9
REMARK VINA RESULT:      -7.5      2.895      4.953
REMARK  Name = 
REMARK  3 active torsions:
REMARK  status: ('A' for Active; 'I' for Inactive)
REMARK    1  A    between atoms: N_4  and  O_5
REMARK    2  A    between atoms: N_4  and  C_6
REMARK    3  A    between atoms: C_6  and  C_7
REMARK                            x       y       z     vdW  Elec       q    Type
REMARK                         _______ _______ _______ _____ _____    ______ ____
ROOT
ATOM      1  C   UNL     1       4.581   4.427  18.467  0.00  0.00    +0.000 A 
ATOM      2  C   UNL     1       5.356   4.383  17.288  0.00  0.00    +0.000 A 
ATOM      3  C   UNL     1       5.310   5.396  16.329  0.00  0.00    +0.000 A 
ATOM      4  C   UNL     1       4.497   6.518  16.512  0.00  0.00    +0.000 A 
ATOM      5  C   UNL     1       3.740   6.621  17.694  0.00  0.00    +0.000 A 
ATOM      6  C   UNL     1       3.808   5.585  18.622  0.00  0.00    +0.000 A 
ATOM      7  O   UNL     1       3.020   5.874  19.701  0.00  0.00    +0.000 OA
ATOM      8  C   UNL     1       2.441   7.083  19.467  0.00  0.00    +0.000 A 
ATOM      9  C   UNL     1       1.567   7.741  20.329  0.00  0.00    +0.000 A 
ATOM     10  C   UNL     1       1.084   8.985  19.904  0.00  0.00    +0.000 A 
ATOM     11  C   UNL     1       1.462   9.524  18.672  0.00  0.00    +0.000 A 
ATOM     12  C   UNL     1       2.343   8.836  17.825  0.00  0.00    +0.000 A 
ATOM     13  C   UNL     1       2.845   7.588  18.236  0.00  0.00    +0.000 A 
ENDROOT
BRANCH   1  14
ATOM     14  C   UNL     1       4.588   3.296  19.467  0.00  0.00    +0.000 C 
BRANCH  14  18
ATOM     15  N   UNL     1       1.514   1.600  18.574  0.00  0.00    +0.000 N 
ATOM     16  C   UNL     1       2.311   2.338  19.401  0.00  0.00    +0.000 C 
ATOM     17  O   UNL     1       1.823   3.018  20.295  0.00  0.00    +0.000 OA
ATOM     18  N   UNL     1       3.655   2.222  19.124  0.00  0.00    +0.000 N 
ATOM     19  H   UNL     1       0.534   1.839  18.645  0.00  0.00    +0.000 HD
ATOM     20  H   UNL     1       1.883   1.529  17.634  0.00  0.00    +0.000 HD
BRANCH  18  21
ATOM     21  O   UNL     1       4.005   1.516  17.944  0.00  0.00    +0.000 OA
ATOM     22  H   UNL     1       4.826   1.986  17.702  0.00  0.00    +0.000 HD
ENDBRANCH  18  21
ENDBRANCH  14  18
ENDBRANCH   1  14
TORSDOF 3
ENDMDL
