MODEL 1
REMARK VINA RESULT:      -7.8      0.000      0.000
REMARK  Name = 
REMARK  5 active torsions:
REMARK  status: ('A' for Active; 'I' for Inactive)
REMARK    1  A    between atoms: C_2  and  C_4
REMARK    2  A    between atoms: C_7  and  C_8
REMARK    3  A    between atoms: C_13  and  C_14
REMARK    4  A    between atoms: C_22  and  C_23
REMARK    5  A    between atoms: C_23  and  N_24
REMARK                            x       y       z     vdW  Elec       q    Type
REMARK                         _______ _______ _______ _____ _____    ______ ____
ROOT
ATOM      1  C   UNL     1      -0.029  10.389  20.259  0.00  0.00    +0.000 A 
ATOM      2  N   UNL     1      -0.069  10.532  21.638  0.00  0.00    +0.000 NA
ATOM      3  C   UNL     1      -1.062  11.353  21.892  0.00  0.00    +0.000 A 
ATOM      4  C   UNL     1      -1.610  11.816  23.125  0.00  0.00    +0.000 A 
ATOM      5  C   UNL     1      -2.657  12.668  23.127  0.00  0.00    +0.000 A 
ATOM      6  C   UNL     1      -3.250  13.140  21.880  0.00  0.00    +0.000 A 
ATOM      7  C   UNL     1      -2.735  12.677  20.722  0.00  0.00    +0.000 A 
ATOM      8  N   UNL     1      -1.664  11.790  20.719  0.00  0.00    +0.000 N 
ATOM      9  C   UNL     1      -1.024  11.159  19.656  0.00  0.00    +0.000 A 
ENDROOT
BRANCH   1  13
ATOM     10  C   UNL     1       2.635   7.545  18.425  0.00  0.00    +0.000 A 
ATOM     11  C   UNL     1       2.223   7.378  19.747  0.00  0.00    +0.000 A 
ATOM     12  C   UNL     1       1.358   8.318  20.343  0.00  0.00    +0.000 A 
ATOM     13  C   UNL     1       0.908   9.444  19.633  0.00  0.00    +0.000 A 
ATOM     14  C   UNL     1       1.384   9.600  18.330  0.00  0.00    +0.000 A 
ATOM     15  C   UNL     1       2.216   8.664  17.716  0.00  0.00    +0.000 A 
BRANCH  10  17
ATOM     16  N   UNL     1       3.244   5.264  17.829  0.00  0.00    +0.000 N 
ATOM     17  C   UNL     1       3.538   6.594  17.722  0.00  0.00    +0.000 C 
ATOM     18  O   UNL     1       4.473   6.976  17.030  0.00  0.00    +0.000 OA
ATOM     19  H   UNL     1       3.790   4.643  17.244  0.00  0.00    +0.000 HD
ATOM     20  H   UNL     1       2.346   4.936  18.152  0.00  0.00    +0.000 HD
ENDBRANCH  10  17
ENDBRANCH   1  13
BRANCH   6  21
ATOM     21  C   UNL     1      -4.334  14.125  21.739  0.00  0.00    +0.000 A 
ATOM     22  C   UNL     1      -4.808  14.843  22.845  0.00  0.00    +0.000 A 
ATOM     23  C   UNL     1      -6.005  15.560  22.752  0.00  0.00    +0.000 A 
ATOM     24  C   UNL     1      -6.723  15.573  21.556  0.00  0.00    +0.000 A 
ATOM     25  C   UNL     1      -6.226  14.907  20.437  0.00  0.00    +0.000 A 
ATOM     26  C   UNL     1      -5.030  14.194  20.526  0.00  0.00    +0.000 A 
ENDBRANCH   6  21
BRANCH   9  27
ATOM     27  C   UNL     1      -1.542  11.242  18.247  0.00  0.00    +0.000 C 
BRANCH  27  28
ATOM     28  N   UNL     1      -2.430  10.124  17.868  0.00  0.00    +0.000 NA
ATOM     29  C   UNL     1      -2.283   9.706  16.456  0.00  0.00    +0.000 C 
ATOM     30  C   UNL     1      -2.804  10.750  15.446  0.00  0.00    +0.000 C 
ATOM     31  O   UNL     1      -4.161  11.132  15.706  0.00  0.00    +0.000 OA
ATOM     32  C   UNL     1      -4.352  11.549  17.062  0.00  0.00    +0.000 C 
ATOM     33  C   UNL     1      -3.865  10.477  18.044  0.00  0.00    +0.000 C 
ENDBRANCH  27  28
ENDBRANCH   9  27
TORSDOF 5
ENDMDL
MODEL 2
REMARK VINA RESULT:      -7.6      0.615      1.057
REMARK  Name = 
REMARK  5 active torsions:
REMARK  status: ('A' for Active; 'I' for Inactive)
REMARK    1  A    between atoms: C_2  and  C_4
REMARK    2  A    between atoms: C_7  and  C_8
REMARK    3  A    between atoms: C_13  and  C_14
REMARK    4  A    between atoms: C_22  and  C_23
REMARK    5  A    between atoms: C_23  and  N_24
REMARK                            x       y       z     vdW  Elec       q    Type
REMARK                         _______ _______ _______ _____ _____    ______ ____
ROOT
ATOM      1  C   UNL     1       0.067  10.238  20.240  0.00  0.00    +0.000 A 
ATOM      2  N   UNL     1       0.044  10.367  21.621  0.00  0.00    +0.000 NA
ATOM      3  C   UNL     1      -0.911  11.228  21.891  0.00  0.00    +0.000 A 
ATOM      4  C   UNL     1      -1.428  11.702  23.133  0.00  0.00    +0.000 A 
ATOM      5  C   UNL     1      -2.437  12.599  23.153  0.00  0.00    +0.000 A 
ATOM      6  C   UNL     1      -3.019  13.108  21.915  0.00  0.00    +0.000 A 
ATOM      7  C   UNL     1      -2.534  12.635  20.749  0.00  0.00    +0.000 A 
ATOM      8  N   UNL     1      -1.503  11.703  20.727  0.00  0.00    +0.000 N 
ATOM      9  C   UNL     1      -0.899  11.057  19.653  0.00  0.00    +0.000 A 
ENDROOT
BRANCH   1  13
ATOM     10  C   UNL     1       2.752   7.447  18.356  0.00  0.00    +0.000 A 
ATOM     11  C   UNL     1       2.266   8.547  17.650  0.00  0.00    +0.000 A 
ATOM     12  C   UNL     1       1.381   9.451  18.272  0.00  0.00    +0.000 A 
ATOM     13  C   UNL     1       0.957   9.259  19.597  0.00  0.00    +0.000 A 
ATOM     14  C   UNL     1       1.426   8.118  20.250  0.00  0.00    +0.000 A 
ATOM     15  C   UNL     1       2.327   7.230  19.660  0.00  0.00    +0.000 A 
BRANCH  10  17
ATOM     16  N   UNL     1       4.630   6.924  16.896  0.00  0.00    +0.000 N 
ATOM     17  C   UNL     1       3.696   6.454  17.775  0.00  0.00    +0.000 C 
ATOM     18  O   UNL     1       3.684   5.275  18.105  0.00  0.00    +0.000 OA
ATOM     19  H   UNL     1       5.339   6.261  16.610  0.00  0.00    +0.000 HD
ATOM     20  H   UNL     1       4.843   7.907  16.813  0.00  0.00    +0.000 HD
ENDBRANCH  10  17
ENDBRANCH   1  13
BRANCH   6  21
ATOM     21  C   UNL     1      -4.060  14.141  21.793  0.00  0.00    +0.000 A 
ATOM     22  C   UNL     1      -4.446  14.914  22.896  0.00  0.00    +0.000 A 
ATOM     23  C   UNL     1      -5.611  15.686  22.836  0.00  0.00    +0.000 A 
ATOM     24  C   UNL     1      -6.385  15.697  21.674  0.00  0.00    +0.000 A 
ATOM     25  C   UNL     1      -5.974  14.975  20.556  0.00  0.00    +0.000 A 
ATOM     26  C   UNL     1      -4.810  14.207  20.612  0.00  0.00    +0.000 A 
ENDBRANCH   6  21
BRANCH   9  27
ATOM     27  C   UNL     1      -1.424  11.176  18.249  0.00  0.00    +0.000 C 
BRANCH  27  28
ATOM     28  N   UNL     1      -2.296  10.056  17.838  0.00  0.00    +0.000 NA
ATOM     29  C   UNL     1      -2.229   9.757  16.390  0.00  0.00    +0.000 C 
ATOM     30  C   UNL     1      -2.852  10.856  15.503  0.00  0.00    +0.000 C 
ATOM     31  O   UNL     1      -4.201  11.162  15.880  0.00  0.00    +0.000 OA
ATOM     32  C   UNL     1      -4.315  11.464  17.274  0.00  0.00    +0.000 C 
ATOM     33  C   UNL     1      -3.727  10.337  18.133  0.00  0.00    +0.000 C 
ENDBRANCH  27  28
ENDBRANCH   9  27
TORSDOF 5
ENDMDL
MODEL 3
REMARK VINA RESULT:      -7.4      3.963      8.866
REMARK  Name = 
REMARK  5 active torsions:
REMARK  status: ('A' for Active; 'I' for Inactive)
REMARK    1  A    between atoms: C_2  and  C_4
REMARK    2  A    between atoms: C_7  and  C_8
REMARK    3  A    between atoms: C_13  and  C_14
REMARK    4  A    between atoms: C_22  and  C_23
REMARK    5  A    between atoms: C_23  and  N_24
REMARK                            x       y       z     vdW  Elec       q    Type
REMARK                         _______ _______ _______ _____ _____    ______ ____
ROOT
ATOM      1  C   UNL     1       1.613  10.442  18.680  0.00  0.00    +0.000 A 
ATOM      2  N   UNL     1       2.399   9.898  17.675  0.00  0.00    +0.000 NA
ATOM      3  C   UNL     1       2.518   8.620  17.954  0.00  0.00    +0.000 A 
ATOM      4  C   UNL     1       3.157   7.558  17.249  0.00  0.00    +0.000 A 
ATOM      5  C   UNL     1       3.137   6.303  17.746  0.00  0.00    +0.000 A 
ATOM      6  C   UNL     1       2.470   6.001  19.009  0.00  0.00    +0.000 A 
ATOM      7  C   UNL     1       1.852   7.011  19.653  0.00  0.00    +0.000 A 
ATOM      8  N   UNL     1       1.862   8.302  19.137  0.00  0.00    +0.000 N 
ATOM      9  C   UNL     1       1.253   9.462  19.607  0.00  0.00    +0.000 A 
ENDROOT
BRANCH   1  13
ATOM     10  C   UNL     1       0.314  14.547  18.591  0.00  0.00    +0.000 A 
ATOM     11  C   UNL     1      -0.594  13.512  18.365  0.00  0.00    +0.000 A 
ATOM     12  C   UNL     1      -0.159  12.172  18.388  0.00  0.00    +0.000 A 
ATOM     13  C   UNL     1       1.188  11.848  18.618  0.00  0.00    +0.000 A 
ATOM     14  C   UNL     1       2.073  12.915  18.788  0.00  0.00    +0.000 A 
ATOM     15  C   UNL     1       1.654  14.246  18.799  0.00  0.00    +0.000 A 
BRANCH  10  17
ATOM     16  N   UNL     1      -1.286  16.304  19.125  0.00  0.00    +0.000 N 
ATOM     17  C   UNL     1      -0.068  15.985  18.594  0.00  0.00    +0.000 C 
ATOM     18  O   UNL     1       0.690  16.860  18.192  0.00  0.00    +0.000 OA
ATOM     19  H   UNL     1      -1.473  17.293  19.233  0.00  0.00    +0.000 HD
ATOM     20  H   UNL     1      -1.806  15.660  19.702  0.00  0.00    +0.000 HD
ENDBRANCH  10  17
ENDBRANCH   1  13
BRANCH   6  21
ATOM     21  C   UNL     1       2.442   4.701  19.699  0.00  0.00    +0.000 A 
ATOM     22  C   UNL     1       1.478   4.419  20.675  0.00  0.00    +0.000 A 
ATOM     23  C   UNL     1       1.630   3.306  21.508  0.00  0.00    +0.000 A 
ATOM     24  C   UNL     1       2.735   2.467  21.361  0.00  0.00    +0.000 A 
ATOM     25  C   UNL     1       3.666   2.711  20.354  0.00  0.00    +0.000 A 
ATOM     26  C   UNL     1       3.516   3.819  19.519  0.00  0.00    +0.000 A 
ENDBRANCH   6  21
BRANCH   9  27
ATOM     27  C   UNL     1       0.290   9.449  20.762  0.00  0.00    +0.000 C 
BRANCH  27  28
ATOM     28  N   UNL     1       0.772  10.180  21.952  0.00  0.00    +0.000 NA
ATOM     29  C   UNL     1       0.166   9.712  23.219  0.00  0.00    +0.000 C 
ATOM     30  C   UNL     1      -1.334  10.050  23.346  0.00  0.00    +0.000 C 
ATOM     31  O   UNL     1      -1.597  11.448  23.164  0.00  0.00    +0.000 OA
ATOM     32  C   UNL     1      -1.032  11.946  21.947  0.00  0.00    +0.000 C 
ATOM     33  C   UNL     1       0.468  11.634  21.864  0.00  0.00    +0.000 C 
ENDBRANCH  27  28
ENDBRANCH   9  27
TORSDOF 5
ENDMDL
MODEL 4
REMARK VINA RESULT:      -7.1      0.878      1.416
REMARK  Name = 
REMARK  5 active torsions:
REMARK  status: ('A' for Active; 'I' for Inactive)
REMARK    1  A    between atoms: C_2  and  C_4
REMARK    2  A    between atoms: C_7  and  C_8
REMARK    3  A    between atoms: C_13  and  C_14
REMARK    4  A    between atoms: C_22  and  C_23
REMARK    5  A    between atoms: C_23  and  N_24
REMARK                            x       y       z     vdW  Elec       q    Type
REMARK                         _______ _______ _______ _____ _____    ______ ____
ROOT
ATOM      1  C   UNL     1      -0.233  10.898  20.308  0.00  0.00    +0.000 A 
ATOM      2  N   UNL     1      -0.190  11.195  21.662  0.00  0.00    +0.000 NA
ATOM      3  C   UNL     1      -1.131  12.088  21.871  0.00  0.00    +0.000 A 
ATOM      4  C   UNL     1      -1.588  12.712  23.069  0.00  0.00    +0.000 A 
ATOM      5  C   UNL     1      -2.595  13.611  23.026  0.00  0.00    +0.000 A 
ATOM      6  C   UNL     1      -3.235  13.969  21.765  0.00  0.00    +0.000 A 
ATOM      7  C   UNL     1      -2.806  13.355  20.643  0.00  0.00    +0.000 A 
ATOM      8  N   UNL     1      -1.777  12.421  20.687  0.00  0.00    +0.000 N 
ATOM      9  C   UNL     1      -1.225  11.645  19.672  0.00  0.00    +0.000 A 
ENDROOT
BRANCH   1  13
ATOM     10  C   UNL     1       2.362   7.880  18.663  0.00  0.00    +0.000 A 
ATOM     11  C   UNL     1       1.934   8.951  17.877  0.00  0.00    +0.000 A 
ATOM     12  C   UNL     1       1.078   9.929  18.421  0.00  0.00    +0.000 A 
ATOM     13  C   UNL     1       0.625   9.843  19.748  0.00  0.00    +0.000 A 
ATOM     14  C   UNL     1       1.036   8.730  20.484  0.00  0.00    +0.000 A 
ATOM     15  C   UNL     1       1.908   7.769  19.970  0.00  0.00    +0.000 A 
BRANCH  10  17
ATOM     16  N   UNL     1       3.244   5.616  18.823  0.00  0.00    +0.000 N 
ATOM     17  C   UNL     1       3.273   6.814  18.166  0.00  0.00    +0.000 C 
ATOM     18  O   UNL     1       3.982   6.971  17.180  0.00  0.00    +0.000 OA
ATOM     19  H   UNL     1       3.774   4.866  18.395  0.00  0.00    +0.000 HD
ATOM     20  H   UNL     1       2.494   5.364  19.449  0.00  0.00    +0.000 HD
ENDBRANCH  10  17
ENDBRANCH   1  13
BRANCH   6  21
ATOM     21  C   UNL     1      -4.281  14.986  21.568  0.00  0.00    +0.000 A 
ATOM     22  C   UNL     1      -5.451  14.693  20.856  0.00  0.00    +0.000 A 
ATOM     23  C   UNL     1      -6.296  15.729  20.443  0.00  0.00    +0.000 A 
ATOM     24  C   UNL     1      -5.982  17.053  20.749  0.00  0.00    +0.000 A 
ATOM     25  C   UNL     1      -4.849  17.344  21.506  0.00  0.00    +0.000 A 
ATOM     26  C   UNL     1      -4.006  16.313  21.923  0.00  0.00    +0.000 A 
ENDBRANCH   6  21
BRANCH   9  27
ATOM     27  C   UNL     1      -1.816  11.597  18.290  0.00  0.00    +0.000 C 
BRANCH  27  28
ATOM     28  N   UNL     1      -2.628  10.390  18.027  0.00  0.00    +0.000 NA
ATOM     29  C   UNL     1      -2.309   9.733  16.740  0.00  0.00    +0.000 C 
ATOM     30  C   UNL     1      -2.734  10.555  15.506  0.00  0.00    +0.000 C 
ATOM     31  O   UNL     1      -4.121  10.918  15.542  0.00  0.00    +0.000 OA
ATOM     32  C   UNL     1      -4.476  11.563  16.769  0.00  0.00    +0.000 C 
ATOM     33  C   UNL     1      -4.081  10.706  17.978  0.00  0.00    +0.000 C 
ENDBRANCH  27  28
ENDBRANCH   9  27
TORSDOF 5
ENDMDL
MODEL 5
REMARK VINA RESULT:      -7.1      2.438      8.133
REMARK  Name = 
REMARK  5 active torsions:
REMARK  status: ('A' for Active; 'I' for Inactive)
REMARK    1  A    between atoms: C_2  and  C_4
REMARK    2  A    between atoms: C_7  and  C_8
REMARK    3  A    between atoms: C_13  and  C_14
REMARK    4  A    between atoms: C_22  and  C_23
REMARK    5  A    between atoms: C_23  and  N_24
REMARK                            x       y       z     vdW  Elec       q    Type
REMARK                         _______ _______ _______ _____ _____    ______ ____
ROOT
ATOM      1  C   UNL     1      -1.790  11.979  20.903  0.00  0.00    +0.000 A 
ATOM      2  N   UNL     1      -1.170  11.648  22.099  0.00  0.00    +0.000 NA
ATOM      3  C   UNL     1      -0.357  10.653  21.825  0.00  0.00    +0.000 A 
ATOM      4  C   UNL     1       0.575   9.947  22.642  0.00  0.00    +0.000 A 
ATOM      5  C   UNL     1       1.317   8.947  22.119  0.00  0.00    +0.000 A 
ATOM      6  C   UNL     1       1.183   8.560  20.718  0.00  0.00    +0.000 A 
ATOM      7  C   UNL     1       0.313   9.250  19.953  0.00  0.00    +0.000 A 
ATOM      8  N   UNL     1      -0.443  10.288  20.487  0.00  0.00    +0.000 N 
ATOM      9  C   UNL     1      -1.347  11.149  19.872  0.00  0.00    +0.000 A 
ENDROOT
BRANCH   1  13
ATOM     10  C   UNL     1      -4.473  15.347  20.780  0.00  0.00    +0.000 A 
ATOM     11  C   UNL     1      -4.971  14.044  20.752  0.00  0.00    +0.000 A 
ATOM     12  C   UNL     1      -4.086  12.947  20.784  0.00  0.00    +0.000 A 
ATOM     13  C   UNL     1      -2.694  13.137  20.827  0.00  0.00    +0.000 A 
ATOM     14  C   UNL     1      -2.236  14.455  20.803  0.00  0.00    +0.000 A 
ATOM     15  C   UNL     1      -3.099  15.552  20.802  0.00  0.00    +0.000 A 
BRANCH  10  17
ATOM     16  N   UNL     1      -5.535  17.161  19.551  0.00  0.00    +0.000 N 
ATOM     17  C   UNL     1      -5.340  16.555  20.760  0.00  0.00    +0.000 C 
ATOM     18  O   UNL     1      -5.906  16.966  21.766  0.00  0.00    +0.000 OA
ATOM     19  H   UNL     1      -6.225  17.902  19.535  0.00  0.00    +0.000 HD
ATOM     20  H   UNL     1      -5.316  16.703  18.679  0.00  0.00    +0.000 HD
ENDBRANCH  10  17
ENDBRANCH   1  13
BRANCH   6  21
ATOM     21  C   UNL     1       1.866   7.443  20.046  0.00  0.00    +0.000 A 
ATOM     22  C   UNL     1       2.417   7.594  18.766  0.00  0.00    +0.000 A 
ATOM     23  C   UNL     1       2.810   6.468  18.036  0.00  0.00    +0.000 A 
ATOM     24  C   UNL     1       2.667   5.193  18.584  0.00  0.00    +0.000 A 
ATOM     25  C   UNL     1       2.173   5.042  19.878  0.00  0.00    +0.000 A 
ATOM     26  C   UNL     1       1.783   6.164  20.611  0.00  0.00    +0.000 A 
ENDBRANCH   6  21
BRANCH   9  27
ATOM     27  C   UNL     1      -1.539  11.176  18.381  0.00  0.00    +0.000 C 
BRANCH  27  28
ATOM     28  N   UNL     1      -2.389  10.082  17.867  0.00  0.00    +0.000 NA
ATOM     29  C   UNL     1      -2.235   9.848  16.413  0.00  0.00    +0.000 C 
ATOM     30  C   UNL     1      -2.798  10.991  15.542  0.00  0.00    +0.000 C 
ATOM     31  O   UNL     1      -4.166  11.289  15.849  0.00  0.00    +0.000 OA
ATOM     32  C   UNL     1      -4.364  11.528  17.246  0.00  0.00    +0.000 C 
ATOM     33  C   UNL     1      -3.835  10.359  18.087  0.00  0.00    +0.000 C 
ENDBRANCH  27  28
ENDBRANCH   9  27
TORSDOF 5
ENDMDL
MODEL 6
REMARK VINA RESULT:      -6.9      3.522      8.971
REMARK  Name = 
REMARK  5 active torsions:
REMARK  status: ('A' for Active; 'I' for Inactive)
REMARK    1  A    between atoms: C_2  and  C_4
REMARK    2  A    between atoms: C_7  and  C_8
REMARK    3  A    between atoms: C_13  and  C_14
REMARK    4  A    between atoms: C_22  and  C_23
REMARK    5  A    between atoms: C_23  and  N_24
REMARK                            x       y       z     vdW  Elec       q    Type
REMARK                         _______ _______ _______ _____ _____    ______ ____
ROOT
ATOM      1  C   UNL     1      -2.258  12.663  22.745  0.00  0.00    +0.000 A 
ATOM      2  N   UNL     1      -2.036  11.550  23.542  0.00  0.00    +0.000 NA
ATOM      3  C   UNL     1      -1.202  10.784  22.876  0.00  0.00    +0.000 A 
ATOM      4  C   UNL     1      -0.577   9.550  23.222  0.00  0.00    +0.000 A 
ATOM      5  C   UNL     1       0.264   8.947  22.354  0.00  0.00    +0.000 A 
ATOM      6  C   UNL     1       0.551   9.533  21.049  0.00  0.00    +0.000 A 
ATOM      7  C   UNL     1      -0.031  10.711  20.744  0.00  0.00    +0.000 A 
ATOM      8  N   UNL     1      -0.888  11.339  21.641  0.00  0.00    +0.000 N 
ATOM      9  C   UNL     1      -1.544  12.563  21.550  0.00  0.00    +0.000 A 
ENDROOT
BRANCH   1  13
ATOM     10  C   UNL     1      -4.561  16.020  24.152  0.00  0.00    +0.000 A 
ATOM     11  C   UNL     1      -3.341  15.699  24.748  0.00  0.00    +0.000 A 
ATOM     12  C   UNL     1      -2.598  14.593  24.287  0.00  0.00    +0.000 A 
ATOM     13  C   UNL     1      -3.070  13.786  23.239  0.00  0.00    +0.000 A 
ATOM     14  C   UNL     1      -4.318  14.111  22.705  0.00  0.00    +0.000 A 
ATOM     15  C   UNL     1      -5.052  15.220  23.128  0.00  0.00    +0.000 A 
BRANCH  10  17
ATOM     16  N   UNL     1      -4.935  17.934  25.610  0.00  0.00    +0.000 N 
ATOM     17  C   UNL     1      -5.398  17.175  24.573  0.00  0.00    +0.000 C 
ATOM     18  O   UNL     1      -6.432  17.476  23.989  0.00  0.00    +0.000 OA
ATOM     19  H   UNL     1      -5.451  18.785  25.799  0.00  0.00    +0.000 HD
ATOM     20  H   UNL     1      -3.978  17.884  25.927  0.00  0.00    +0.000 HD
ENDBRANCH  10  17
ENDBRANCH   1  13
BRANCH   6  21
ATOM     21  C   UNL     1       1.379   8.945  19.984  0.00  0.00    +0.000 A 
ATOM     22  C   UNL     1       1.443   9.525  18.711  0.00  0.00    +0.000 A 
ATOM     23  C   UNL     1       2.002   8.814  17.644  0.00  0.00    +0.000 A 
ATOM     24  C   UNL     1       2.509   7.529  17.848  0.00  0.00    +0.000 A 
ATOM     25  C   UNL     1       2.499   6.971  19.125  0.00  0.00    +0.000 A 
ATOM     26  C   UNL     1       1.945   7.680  20.191  0.00  0.00    +0.000 A 
ENDBRANCH   6  21
BRANCH   9  27
ATOM     27  C   UNL     1      -1.276  13.533  20.432  0.00  0.00    +0.000 C 
BRANCH  27  28
ATOM     28  N   UNL     1      -0.665  14.803  20.874  0.00  0.00    +0.000 NA
ATOM     29  C   UNL     1      -0.360  15.731  19.762  0.00  0.00    +0.000 C 
ATOM     30  C   UNL     1       0.785  15.244  18.849  0.00  0.00    +0.000 C 
ATOM     31  O   UNL     1       1.981  14.947  19.584  0.00  0.00    +0.000 OA
ATOM     32  C   UNL     1       1.735  14.048  20.670  0.00  0.00    +0.000 C 
ATOM     33  C   UNL     1       0.623  14.576  21.584  0.00  0.00    +0.000 C 
ENDBRANCH  27  28
ENDBRANCH   9  27
TORSDOF 5
ENDMDL
MODEL 7
REMARK VINA RESULT:      -6.9      3.765      8.954
REMARK  Name = 
REMARK  5 active torsions:
REMARK  status: ('A' for Active; 'I' for Inactive)
REMARK    1  A    between atoms: C_2  and  C_4
REMARK    2  A    between atoms: C_7  and  C_8
REMARK    3  A    between atoms: C_13  and  C_14
REMARK    4  A    between atoms: C_22  and  C_23
REMARK    5  A    between atoms: C_23  and  N_24
REMARK                            x       y       z     vdW  Elec       q    Type
REMARK                         _______ _______ _______ _____ _____    ______ ____
ROOT
ATOM      1  C   UNL     1      -1.396  12.522  22.814  0.00  0.00    +0.000 A 
ATOM      2  N   UNL     1      -1.439  11.308  23.482  0.00  0.00    +0.000 NA
ATOM      3  C   UNL     1      -0.768  10.458  22.739  0.00  0.00    +0.000 A 
ATOM      4  C   UNL     1      -0.429   9.088  22.948  0.00  0.00    +0.000 A 
ATOM      5  C   UNL     1       0.291   8.417  22.023  0.00  0.00    +0.000 A 
ATOM      6  C   UNL     1       0.735   9.066  20.794  0.00  0.00    +0.000 A 
ATOM      7  C   UNL     1       0.425  10.367  20.621  0.00  0.00    +0.000 A 
ATOM      8  N   UNL     1      -0.306  11.063  21.577  0.00  0.00    +0.000 N 
ATOM      9  C   UNL     1      -0.683  12.402  21.620  0.00  0.00    +0.000 A 
ENDROOT
BRANCH   1  13
ATOM     10  C   UNL     1      -3.015  16.126  24.530  0.00  0.00    +0.000 A 
ATOM     11  C   UNL     1      -1.647  15.861  24.600  0.00  0.00    +0.000 A 
ATOM     12  C   UNL     1      -1.126  14.676  24.043  0.00  0.00    +0.000 A 
ATOM     13  C   UNL     1      -1.965  13.732  23.427  0.00  0.00    +0.000 A 
ATOM     14  C   UNL     1      -3.333  14.011  23.424  0.00  0.00    +0.000 A 
ATOM     15  C   UNL     1      -3.861  15.194  23.943  0.00  0.00    +0.000 A 
BRANCH  10  17
ATOM     16  N   UNL     1      -2.850  18.469  25.174  0.00  0.00    +0.000 N 
ATOM     17  C   UNL     1      -3.640  17.357  25.084  0.00  0.00    +0.000 C 
ATOM     18  O   UNL     1      -4.823  17.402  25.397  0.00  0.00    +0.000 OA
ATOM     19  H   UNL     1      -3.324  19.326  25.432  0.00  0.00    +0.000 HD
ATOM     20  H   UNL     1      -1.973  18.546  24.682  0.00  0.00    +0.000 HD
ENDBRANCH  10  17
ENDBRANCH   1  13
BRANCH   6  21
ATOM     21  C   UNL     1       1.450   8.433  19.675  0.00  0.00    +0.000 A 
ATOM     22  C   UNL     1       2.103   7.204  19.834  0.00  0.00    +0.000 A 
ATOM     23  C   UNL     1       2.999   6.755  18.859  0.00  0.00    +0.000 A 
ATOM     24  C   UNL     1       3.235   7.524  17.719  0.00  0.00    +0.000 A 
ATOM     25  C   UNL     1       2.546   8.720  17.529  0.00  0.00    +0.000 A 
ATOM     26  C   UNL     1       1.648   9.168  18.499  0.00  0.00    +0.000 A 
ENDBRANCH   6  21
BRANCH   9  27
ATOM     27  C   UNL     1      -0.182  13.407  20.620  0.00  0.00    +0.000 C 
BRANCH  27  28
ATOM     28  N   UNL     1       0.998  14.169  21.077  0.00  0.00    +0.000 NA
ATOM     29  C   UNL     1       1.048  15.552  20.551  0.00  0.00    +0.000 C 
ATOM     30  C   UNL     1       1.314  15.625  19.033  0.00  0.00    +0.000 C 
ATOM     31  O   UNL     1       2.498  14.911  18.650  0.00  0.00    +0.000 OA
ATOM     32  C   UNL     1       2.493  13.564  19.134  0.00  0.00    +0.000 C 
ATOM     33  C   UNL     1       2.269  13.522  20.651  0.00  0.00    +0.000 C 
ENDBRANCH  27  28
ENDBRANCH   9  27
TORSDOF 5
ENDMDL
MODEL 8
REMARK VINA RESULT:      -6.8      2.308      2.493
REMARK  Name = 
REMARK  5 active torsions:
REMARK  status: ('A' for Active; 'I' for Inactive)
REMARK    1  A    between atoms: C_2  and  C_4
REMARK    2  A    between atoms: C_7  and  C_8
REMARK    3  A    between atoms: C_13  and  C_14
REMARK    4  A    between atoms: C_22  and  C_23
REMARK    5  A    between atoms: C_23  and  N_24
REMARK                            x       y       z     vdW  Elec       q    Type
REMARK                         _______ _______ _______ _____ _____    ______ ____
ROOT
ATOM      1  C   UNL     1       0.617  11.515  19.778  0.00  0.00    +0.000 A 
ATOM      2  N   UNL     1       1.044  12.140  20.940  0.00  0.00    +0.000 NA
ATOM      3  C   UNL     1       0.330  13.238  21.048  0.00  0.00    +0.000 A 
ATOM      4  C   UNL     1       0.288  14.238  22.064  0.00  0.00    +0.000 A 
ATOM      5  C   UNL     1      -0.551  15.290  21.950  0.00  0.00    +0.000 A 
ATOM      6  C   UNL     1      -1.428  15.434  20.792  0.00  0.00    +0.000 A 
ATOM      7  C   UNL     1      -1.392  14.470  19.850  0.00  0.00    +0.000 A 
ATOM      8  N   UNL     1      -0.537  13.380  19.972  0.00  0.00    +0.000 N 
ATOM      9  C   UNL     1      -0.381  12.265  19.154  0.00  0.00    +0.000 A 
ENDROOT
BRANCH   1  13
ATOM     10  C   UNL     1       2.244   7.678  18.691  0.00  0.00    +0.000 A 
ATOM     11  C   UNL     1       2.217   8.723  17.767  0.00  0.00    +0.000 A 
ATOM     12  C   UNL     1       1.675   9.973  18.128  0.00  0.00    +0.000 A 
ATOM     13  C   UNL     1       1.139  10.191  19.408  0.00  0.00    +0.000 A 
ATOM     14  C   UNL     1       1.139   9.105  20.285  0.00  0.00    +0.000 A 
ATOM     15  C   UNL     1       1.699   7.870  19.954  0.00  0.00    +0.000 A 
BRANCH  10  17
ATOM     16  N   UNL     1       3.929   6.291  17.611  0.00  0.00    +0.000 N 
ATOM     17  C   UNL     1       2.808   6.335  18.391  0.00  0.00    +0.000 C 
ATOM     18  O   UNL     1       2.331   5.310  18.861  0.00  0.00    +0.000 OA
ATOM     19  H   UNL     1       4.369   5.383  17.523  0.00  0.00    +0.000 HD
ATOM     20  H   UNL     1       4.496   7.107  17.439  0.00  0.00    +0.000 HD
ENDBRANCH  10  17
ENDBRANCH   1  13
BRANCH   6  21
ATOM     21  C   UNL     1      -2.325  16.564  20.505  0.00  0.00    +0.000 A 
ATOM     22  C   UNL     1      -3.598  16.644  21.085  0.00  0.00    +0.000 A 
ATOM     23  C   UNL     1      -4.533  17.562  20.596  0.00  0.00    +0.000 A 
ATOM     24  C   UNL     1      -4.197  18.409  19.539  0.00  0.00    +0.000 A 
ATOM     25  C   UNL     1      -2.914  18.372  18.997  0.00  0.00    +0.000 A 
ATOM     26  C   UNL     1      -1.978  17.460  19.485  0.00  0.00    +0.000 A 
ENDBRANCH   6  21
BRANCH   9  27
ATOM     27  C   UNL     1      -1.302  11.985  17.999  0.00  0.00    +0.000 C 
BRANCH  27  28
ATOM     28  N   UNL     1      -2.107  10.756  18.159  0.00  0.00    +0.000 NA
ATOM     29  C   UNL     1      -1.991   9.821  17.017  0.00  0.00    +0.000 C 
ATOM     30  C   UNL     1      -2.646  10.344  15.722  0.00  0.00    +0.000 C 
ATOM     31  O   UNL     1      -4.018  10.716  15.915  0.00  0.00    +0.000 OA
ATOM     32  C   UNL     1      -4.180  11.625  17.009  0.00  0.00    +0.000 C 
ATOM     33  C   UNL     1      -3.557  11.063  18.293  0.00  0.00    +0.000 C 
ENDBRANCH  27  28
ENDBRANCH   9  27
TORSDOF 5
ENDMDL
MODEL 9
REMARK VINA RESULT:      -6.8      3.307      4.006
REMARK  Name = 
REMARK  5 active torsions:
REMARK  status: ('A' for Active; 'I' for Inactive)
REMARK    1  A    between atoms: C_2  and  C_4
REMARK    2  A    between atoms: C_7  and  C_8
REMARK    3  A    between atoms: C_13  and  C_14
REMARK    4  A    between atoms: C_22  and  C_23
REMARK    5  A    between atoms: C_23  and  N_24
REMARK                            x       y       z     vdW  Elec       q    Type
REMARK                         _______ _______ _______ _____ _____    ______ ____
ROOT
ATOM      1  C   UNL     1       0.438  10.441  21.040  0.00  0.00    +0.000 A 
ATOM      2  N   UNL     1      -0.679  10.147  21.808  0.00  0.00    +0.000 NA
ATOM      3  C   UNL     1      -1.072  11.285  22.333  0.00  0.00    +0.000 A 
ATOM      4  C   UNL     1      -2.194  11.606  23.154  0.00  0.00    +0.000 A 
ATOM      5  C   UNL     1      -2.392  12.875  23.569  0.00  0.00    +0.000 A 
ATOM      6  C   UNL     1      -1.471  13.945  23.196  0.00  0.00    +0.000 A 
ATOM      7  C   UNL     1      -0.428  13.630  22.402  0.00  0.00    +0.000 A 
ATOM      8  N   UNL     1      -0.229  12.326  21.964  0.00  0.00    +0.000 N 
ATOM      9  C   UNL     1       0.739  11.803  21.111  0.00  0.00    +0.000 A 
ENDROOT
BRANCH   1  13
ATOM     10  C   UNL     1       2.387   7.460  18.619  0.00  0.00    +0.000 A 
ATOM     11  C   UNL     1       1.901   8.634  18.042  0.00  0.00    +0.000 A 
ATOM     12  C   UNL     1       1.257   9.601  18.840  0.00  0.00    +0.000 A 
ATOM     13  C   UNL     1       1.074   9.401  20.218  0.00  0.00    +0.000 A 
ATOM     14  C   UNL     1       1.529   8.191  20.747  0.00  0.00    +0.000 A 
ATOM     15  C   UNL     1       2.196   7.237  19.976  0.00  0.00    +0.000 A 
BRANCH  10  17
ATOM     16  N   UNL     1       4.250   6.747  17.222  0.00  0.00    +0.000 N 
ATOM     17  C   UNL     1       3.087   6.398  17.847  0.00  0.00    +0.000 C 
ATOM     18  O   UNL     1       2.678   5.244  17.813  0.00  0.00    +0.000 OA
ATOM     19  H   UNL     1       4.775   5.985  16.810  0.00  0.00    +0.000 HD
ATOM     20  H   UNL     1       4.749   7.593  17.449  0.00  0.00    +0.000 HD
ENDBRANCH  10  17
ENDBRANCH   1  13
BRANCH   6  21
ATOM     21  C   UNL     1      -1.525  15.346  23.643  0.00  0.00    +0.000 A 
ATOM     22  C   UNL     1      -1.105  15.714  24.928  0.00  0.00    +0.000 A 
ATOM     23  C   UNL     1      -1.417  16.981  25.430  0.00  0.00    +0.000 A 
ATOM     24  C   UNL     1      -2.134  17.887  24.648  0.00  0.00    +0.000 A 
ATOM     25  C   UNL     1      -2.504  17.547  23.348  0.00  0.00    +0.000 A 
ATOM     26  C   UNL     1      -2.191  16.284  22.843  0.00  0.00    +0.000 A 
ENDBRANCH   6  21
BRANCH   9  27
ATOM     27  C   UNL     1       1.701  12.679  20.359  0.00  0.00    +0.000 C 
BRANCH  27  28
ATOM     28  N   UNL     1       1.293  12.962  18.968  0.00  0.00    +0.000 NA
ATOM     29  C   UNL     1       2.434  13.108  18.036  0.00  0.00    +0.000 C 
ATOM     30  C   UNL     1       3.271  14.381  18.281  0.00  0.00    +0.000 C 
ATOM     31  O   UNL     1       2.471  15.571  18.270  0.00  0.00    +0.000 OA
ATOM     32  C   UNL     1       1.356  15.478  19.161  0.00  0.00    +0.000 C 
ATOM     33  C   UNL     1       0.517  14.228  18.869  0.00  0.00    +0.000 C 
ENDBRANCH  27  28
ENDBRANCH   9  27
TORSDOF 5
ENDMDL
