MODEL 1
REMARK VINA RESULT:      -7.5      0.000      0.000
REMARK  Name = 
REMARK  5 active torsions:
REMARK  status: ('A' for Active; 'I' for Inactive)
REMARK    1  A    between atoms: C_1  and  C_2
REMARK    2  A    between atoms: C_10  and  C_11
REMARK    3  A    between atoms: N_13  and  C_14
REMARK    4  A    between atoms: N_13  and  C_15
REMARK    5  A    between atoms: C_15  and  C_16
REMARK                            x       y       z     vdW  Elec       q    Type
REMARK                         _______ _______ _______ _____ _____    ______ ____
ROOT
ATOM      1  C   UNL     1       0.512   9.760  19.531  0.00  0.00    +0.000 C 
ATOM      2  O   UNL     1       1.518  10.029  18.868  0.00  0.00    +0.000 OA
ATOM      3  N   UNL     1       0.618   8.921  20.667  0.00  0.00    +0.000 N 
ATOM      4  C   UNL     1      -0.482   8.513  21.528  0.00  0.00    +0.000 C 
ENDROOT
BRANCH   1  14
ATOM      5  C   UNL     1      -3.756   9.886  14.038  0.00  0.00    +0.000 C 
ATOM      6  C   UNL     1      -3.355  10.587  15.304  0.00  0.00    +0.000 C 
ATOM      7  O   UNL     1      -3.334  11.814  15.357  0.00  0.00    +0.000 OA
ATOM      8  N   UNL     1      -3.026   9.730  16.344  0.00  0.00    +0.000 N 
ATOM      9  C   UNL     1      -2.589  10.236  17.575  0.00  0.00    +0.000 A 
ATOM     10  C   UNL     1      -3.204  11.345  18.134  0.00  0.00    +0.000 A 
ATOM     11  C   UNL     1      -2.555  12.011  19.161  0.00  0.00    +0.000 A 
ATOM     12  C   UNL     1      -1.307  11.555  19.595  0.00  0.00    +0.000 A 
ATOM     13 BR   UNL     1      -0.360  12.727  20.745  0.00  0.00    +0.000 Br
ATOM     14  C   UNL     1      -0.811  10.352  19.063  0.00  0.00    +0.000 A 
ATOM     15  N   UNL     1      -1.489   9.656  18.099  0.00  0.00    +0.000 NA
ATOM     16  H   UNL     1      -2.620   8.837  16.098  0.00  0.00    +0.000 HD
ENDBRANCH   1  14
BRANCH   3  17
ATOM     17  C   UNL     1       1.876   8.168  20.856  0.00  0.00    +0.000 C 
BRANCH  17  18
ATOM     18  C   UNL     1       2.022   6.835  20.131  0.00  0.00    +0.000 A 
ATOM     19  C   UNL     1       2.493   6.764  18.805  0.00  0.00    +0.000 A 
ATOM     20  C   UNL     1       2.464   5.560  18.076  0.00  0.00    +0.000 A 
ATOM     21  C   UNL     1       1.959   4.436  18.701  0.00  0.00    +0.000 A 
ATOM     22  C   UNL     1       1.502   4.479  19.994  0.00  0.00    +0.000 A 
ATOM     23  C   UNL     1       1.524   5.652  20.734  0.00  0.00    +0.000 A 
ATOM     24  O   UNL     1       1.022   3.278  20.412  0.00  0.00    +0.000 OA
ATOM     25  C   UNL     1       1.229   2.471  19.232  0.00  0.00    +0.000 C 
ATOM     26  O   UNL     1       1.828   3.205  18.143  0.00  0.00    +0.000 OA
ENDBRANCH  17  18
ENDBRANCH   3  17
TORSDOF 3
ENDMDL
MODEL 2
REMARK VINA RESULT:      -7.3      0.815      1.539
REMARK  Name = 
REMARK  5 active torsions:
REMARK  status: ('A' for Active; 'I' for Inactive)
REMARK    1  A    between atoms: C_1  and  C_2
REMARK    2  A    between atoms: C_10  and  C_11
REMARK    3  A    between atoms: N_13  and  C_14
REMARK    4  A    between atoms: N_13  and  C_15
REMARK    5  A    between atoms: C_15  and  C_16
REMARK                            x       y       z     vdW  Elec       q    Type
REMARK                         _______ _______ _______ _____ _____    ______ ____
ROOT
ATOM      1  C   UNL     1       0.491   9.733  19.519  0.00  0.00    +0.000 C 
ATOM      2  O   UNL     1       1.493   9.993  18.846  0.00  0.00    +0.000 OA
ATOM      3  N   UNL     1       0.603   8.912  20.667  0.00  0.00    +0.000 N 
ATOM      4  C   UNL     1      -0.493   8.517  21.539  0.00  0.00    +0.000 C 
ENDROOT
BRANCH   1  14
ATOM      5  C   UNL     1      -3.735   9.881  13.993  0.00  0.00    +0.000 C 
ATOM      6  C   UNL     1      -3.352  10.571  15.271  0.00  0.00    +0.000 C 
ATOM      7  O   UNL     1      -3.345  11.797  15.340  0.00  0.00    +0.000 OA
ATOM      8  N   UNL     1      -3.021   9.705  16.303  0.00  0.00    +0.000 N 
ATOM      9  C   UNL     1      -2.600  10.200  17.544  0.00  0.00    +0.000 A 
ATOM     10  C   UNL     1      -3.231  11.295  18.112  0.00  0.00    +0.000 A 
ATOM     11  C   UNL     1      -2.598  11.956  19.152  0.00  0.00    +0.000 A 
ATOM     12  C   UNL     1      -1.348  11.508  19.591  0.00  0.00    +0.000 A 
ATOM     13 BR   UNL     1      -0.423  12.676  20.762  0.00  0.00    +0.000 Br
ATOM     14  C   UNL     1      -0.835  10.317  19.048  0.00  0.00    +0.000 A 
ATOM     15  N   UNL     1      -1.498   9.626  18.069  0.00  0.00    +0.000 NA
ATOM     16  H   UNL     1      -2.604   8.820  16.049  0.00  0.00    +0.000 HD
ENDBRANCH   1  14
BRANCH   3  17
ATOM     17  C   UNL     1       1.863   8.163  20.862  0.00  0.00    +0.000 C 
BRANCH  17  18
ATOM     18  C   UNL     1       2.010   6.824  20.149  0.00  0.00    +0.000 A 
ATOM     19  C   UNL     1       1.573   5.622  20.739  0.00  0.00    +0.000 A 
ATOM     20  C   UNL     1       1.864   4.370  20.164  0.00  0.00    +0.000 A 
ATOM     21  C   UNL     1       2.594   4.350  18.990  0.00  0.00    +0.000 A 
ATOM     22  C   UNL     1       3.023   5.509  18.393  0.00  0.00    +0.000 A 
ATOM     23  C   UNL     1       2.746   6.753  18.939  0.00  0.00    +0.000 A 
ATOM     24  O   UNL     1       3.745   5.272  17.267  0.00  0.00    +0.000 OA
ATOM     25  C   UNL     1       3.723   3.828  17.223  0.00  0.00    +0.000 C 
ATOM     26  O   UNL     1       2.989   3.240  18.316  0.00  0.00    +0.000 OA
ENDBRANCH  17  18
ENDBRANCH   3  17
TORSDOF 3
ENDMDL
MODEL 3
REMARK VINA RESULT:      -7.2      0.955      1.006
REMARK  Name = 
REMARK  5 active torsions:
REMARK  status: ('A' for Active; 'I' for Inactive)
REMARK    1  A    between atoms: C_1  and  C_2
REMARK    2  A    between atoms: C_10  and  C_11
REMARK    3  A    between atoms: N_13  and  C_14
REMARK    4  A    between atoms: N_13  and  C_15
REMARK    5  A    between atoms: C_15  and  C_16
REMARK                            x       y       z     vdW  Elec       q    Type
REMARK                         _______ _______ _______ _____ _____    ______ ____
ROOT
ATOM      1  C   UNL     1       1.223   9.375  18.540  0.00  0.00    +0.000 C 
ATOM      2  O   UNL     1       2.044   9.347  17.618  0.00  0.00    +0.000 OA
ATOM      3  N   UNL     1       1.503   8.704  19.755  0.00  0.00    +0.000 N 
ATOM      4  C   UNL     1       0.624   8.644  20.914  0.00  0.00    +0.000 C 
ENDROOT
BRANCH   1  14
ATOM      5  C   UNL     1      -4.097   9.786  14.075  0.00  0.00    +0.000 C 
ATOM      6  C   UNL     1      -3.329  10.504  15.147  0.00  0.00    +0.000 C 
ATOM      7  O   UNL     1      -3.122  11.712  15.064  0.00  0.00    +0.000 OA
ATOM      8  N   UNL     1      -2.902   9.685  16.182  0.00  0.00    +0.000 N 
ATOM      9  C   UNL     1      -2.135  10.203  17.234  0.00  0.00    +0.000 A 
ATOM     10  C   UNL     1      -2.445  11.434  17.786  0.00  0.00    +0.000 A 
ATOM     11  C   UNL     1      -1.497  12.061  18.578  0.00  0.00    +0.000 A 
ATOM     12  C   UNL     1      -0.261  11.442  18.789  0.00  0.00    +0.000 A 
ATOM     13 BR   UNL     1       1.075  12.526  19.584  0.00  0.00    +0.000 Br
ATOM     14  C   UNL     1      -0.072  10.138  18.298  0.00  0.00    +0.000 A 
ATOM     15  N   UNL     1      -1.040   9.493  17.576  0.00  0.00    +0.000 NA
ATOM     16  H   UNL     1      -2.692   8.722  15.954  0.00  0.00    +0.000 HD
ENDBRANCH   1  14
BRANCH   3  17
ATOM     17  C   UNL     1       2.639   7.758  19.778  0.00  0.00    +0.000 C 
BRANCH  17  18
ATOM     18  C   UNL     1       2.374   6.320  19.344  0.00  0.00    +0.000 A 
ATOM     19  C   UNL     1       2.446   5.933  17.992  0.00  0.00    +0.000 A 
ATOM     20  C   UNL     1       2.033   4.655  17.568  0.00  0.00    +0.000 A 
ATOM     21  C   UNL     1       1.555   3.779  18.524  0.00  0.00    +0.000 A 
ATOM     22  C   UNL     1       1.483   4.131  19.848  0.00  0.00    +0.000 A 
ATOM     23  C   UNL     1       1.886   5.383  20.290  0.00  0.00    +0.000 A 
ATOM     24  O   UNL     1       0.960   3.141  20.618  0.00  0.00    +0.000 OA
ATOM     25  C   UNL     1       0.709   2.122  19.626  0.00  0.00    +0.000 C 
ATOM     26  O   UNL     1       1.089   2.524  18.294  0.00  0.00    +0.000 OA
ENDBRANCH  17  18
ENDBRANCH   3  17
TORSDOF 3
ENDMDL
MODEL 4
REMARK VINA RESULT:      -6.7      2.789      3.778
REMARK  Name = 
REMARK  5 active torsions:
REMARK  status: ('A' for Active; 'I' for Inactive)
REMARK    1  A    between atoms: C_1  and  C_2
REMARK    2  A    between atoms: C_10  and  C_11
REMARK    3  A    between atoms: N_13  and  C_14
REMARK    4  A    between atoms: N_13  and  C_15
REMARK    5  A    between atoms: C_15  and  C_16
REMARK                            x       y       z     vdW  Elec       q    Type
REMARK                         _______ _______ _______ _____ _____    ______ ____
ROOT
ATOM      1  C   UNL     1       0.379  10.575  21.183  0.00  0.00    +0.000 C 
ATOM      2  O   UNL     1       1.449  11.191  21.188  0.00  0.00    +0.000 OA
ATOM      3  N   UNL     1       0.354   9.199  21.518  0.00  0.00    +0.000 N 
ATOM      4  C   UNL     1      -0.829   8.352  21.541  0.00  0.00    +0.000 C 
ENDROOT
BRANCH   1  14
ATOM      5  C   UNL     1      -5.479  13.167  23.898  0.00  0.00    +0.000 C 
ATOM      6  C   UNL     1      -4.793  12.732  22.635  0.00  0.00    +0.000 C 
ATOM      7  O   UNL     1      -5.420  12.150  21.753  0.00  0.00    +0.000 OA
ATOM      8  N   UNL     1      -3.442  13.044  22.590  0.00  0.00    +0.000 N 
ATOM      9  C   UNL     1      -2.657  12.662  21.494  0.00  0.00    +0.000 A 
ATOM     10  C   UNL     1      -3.150  12.780  20.205  0.00  0.00    +0.000 A 
ATOM     11  C   UNL     1      -2.501  12.101  19.186  0.00  0.00    +0.000 A 
ATOM     12  C   UNL     1      -1.382  11.318  19.486  0.00  0.00    +0.000 A 
ATOM     13 BR   UNL     1      -0.789  10.169  18.100  0.00  0.00    +0.000 Br
ATOM     14  C   UNL     1      -0.872  11.353  20.795  0.00  0.00    +0.000 A 
ATOM     15  N   UNL     1      -1.474  12.082  21.785  0.00  0.00    +0.000 NA
ATOM     16  H   UNL     1      -2.942  13.065  23.468  0.00  0.00    +0.000 HD
ENDBRANCH   1  14
BRANCH   3  17
ATOM     17  C   UNL     1       1.644   8.480  21.586  0.00  0.00    +0.000 C 
BRANCH  17  18
ATOM     18  C   UNL     1       1.959   7.482  20.477  0.00  0.00    +0.000 A 
ATOM     19  C   UNL     1       2.201   7.902  19.155  0.00  0.00    +0.000 A 
ATOM     20  C   UNL     1       2.319   6.978  18.098  0.00  0.00    +0.000 A 
ATOM     21  C   UNL     1       2.193   5.634  18.395  0.00  0.00    +0.000 A 
ATOM     22  C   UNL     1       1.965   5.202  19.677  0.00  0.00    +0.000 A 
ATOM     23  C   UNL     1       1.849   6.092  20.734  0.00  0.00    +0.000 A 
ATOM     24  O   UNL     1       1.845   3.850  19.752  0.00  0.00    +0.000 OA
ATOM     25  C   UNL     1       2.024   3.479  18.367  0.00  0.00    +0.000 C 
ATOM     26  O   UNL     1       2.249   4.612  17.503  0.00  0.00    +0.000 OA
ENDBRANCH  17  18
ENDBRANCH   3  17
TORSDOF 3
ENDMDL
MODEL 5
REMARK VINA RESULT:      -6.6      1.495      1.962
REMARK  Name = 
REMARK  5 active torsions:
REMARK  status: ('A' for Active; 'I' for Inactive)
REMARK    1  A    between atoms: C_1  and  C_2
REMARK    2  A    between atoms: C_10  and  C_11
REMARK    3  A    between atoms: N_13  and  C_14
REMARK    4  A    between atoms: N_13  and  C_15
REMARK    5  A    between atoms: C_15  and  C_16
REMARK                            x       y       z     vdW  Elec       q    Type
REMARK                         _______ _______ _______ _____ _____    ______ ____
ROOT
ATOM      1  C   UNL     1       0.154   9.184  20.005  0.00  0.00    +0.000 C 
ATOM      2  O   UNL     1      -0.113   8.902  21.178  0.00  0.00    +0.000 OA
ATOM      3  N   UNL     1       1.268   8.584  19.371  0.00  0.00    +0.000 N 
ATOM      4  C   UNL     1       1.704   8.833  18.005  0.00  0.00    +0.000 C 
ENDROOT
BRANCH   1  14
ATOM      5  C   UNL     1      -4.012   9.848  14.473  0.00  0.00    +0.000 C 
ATOM      6  C   UNL     1      -3.200  10.584  15.500  0.00  0.00    +0.000 C 
ATOM      7  O   UNL     1      -2.577  11.597  15.194  0.00  0.00    +0.000 OA
ATOM      8  N   UNL     1      -3.234  10.011  16.762  0.00  0.00    +0.000 N 
ATOM      9  C   UNL     1      -2.490  10.558  17.816  0.00  0.00    +0.000 A 
ATOM     10  C   UNL     1      -2.426  11.931  17.989  0.00  0.00    +0.000 A 
ATOM     11  C   UNL     1      -1.440  12.448  18.813  0.00  0.00    +0.000 A 
ATOM     12  C   UNL     1      -0.539  11.578  19.435  0.00  0.00    +0.000 A 
ATOM     13 BR   UNL     1       0.966  12.396  20.246  0.00  0.00    +0.000 Br
ATOM     14  C   UNL     1      -0.749  10.193  19.308  0.00  0.00    +0.000 A 
ATOM     15  N   UNL     1      -1.769   9.685  18.550  0.00  0.00    +0.000 NA
ATOM     16  H   UNL     1      -3.342   9.007  16.813  0.00  0.00    +0.000 HD
ENDBRANCH   1  14
BRANCH   3  17
ATOM     17  C   UNL     1       2.240   7.858  20.217  0.00  0.00    +0.000 C 
BRANCH  17  18
ATOM     18  C   UNL     1       2.297   6.340  20.089  0.00  0.00    +0.000 A 
ATOM     19  C   UNL     1       1.303   5.515  20.651  0.00  0.00    +0.000 A 
ATOM     20  C   UNL     1       1.442   4.114  20.687  0.00  0.00    +0.000 A 
ATOM     21  C   UNL     1       2.589   3.563  20.147  0.00  0.00    +0.000 A 
ATOM     22  C   UNL     1       3.566   4.347  19.587  0.00  0.00    +0.000 A 
ATOM     23  C   UNL     1       3.450   5.728  19.537  0.00  0.00    +0.000 A 
ATOM     24  O   UNL     1       4.621   3.615  19.140  0.00  0.00    +0.000 OA
ATOM     25  C   UNL     1       4.197   2.278  19.483  0.00  0.00    +0.000 C 
ATOM     26  O   UNL     1       2.903   2.242  20.121  0.00  0.00    +0.000 OA
ENDBRANCH  17  18
ENDBRANCH   3  17
TORSDOF 3
ENDMDL
MODEL 6
REMARK VINA RESULT:      -6.5      6.962      9.927
REMARK  Name = 
REMARK  5 active torsions:
REMARK  status: ('A' for Active; 'I' for Inactive)
REMARK    1  A    between atoms: C_1  and  C_2
REMARK    2  A    between atoms: C_10  and  C_11
REMARK    3  A    between atoms: N_13  and  C_14
REMARK    4  A    between atoms: N_13  and  C_15
REMARK    5  A    between atoms: C_15  and  C_16
REMARK                            x       y       z     vdW  Elec       q    Type
REMARK                         _______ _______ _______ _____ _____    ______ ____
ROOT
ATOM      1  C   UNL     1       7.307   6.169  18.602  0.00  0.00    +0.000 C 
ATOM      2  O   UNL     1       8.097   5.492  19.266  0.00  0.00    +0.000 OA
ATOM      3  N   UNL     1       7.665   7.478  18.197  0.00  0.00    +0.000 N 
ATOM      4  C   UNL     1       6.831   8.387  17.426  0.00  0.00    +0.000 C 
ENDROOT
BRANCH   1  14
ATOM      5  C   UNL     1       1.902   2.958  21.582  0.00  0.00    +0.000 C 
ATOM      6  C   UNL     1       2.639   3.194  20.295  0.00  0.00    +0.000 C 
ATOM      7  O   UNL     1       2.766   2.290  19.473  0.00  0.00    +0.000 OA
ATOM      8  N   UNL     1       3.134   4.483  20.156  0.00  0.00    +0.000 N 
ATOM      9  C   UNL     1       3.883   4.843  19.028  0.00  0.00    +0.000 A 
ATOM     10  C   UNL     1       3.502   4.411  17.768  0.00  0.00    +0.000 A 
ATOM     11  C   UNL     1       4.420   4.498  16.735  0.00  0.00    +0.000 A 
ATOM     12  C   UNL     1       5.697   5.008  16.991  0.00  0.00    +0.000 A 
ATOM     13 BR   UNL     1       6.972   4.760  15.611  0.00  0.00    +0.000 Br
ATOM     14  C   UNL     1       5.961   5.541  18.265  0.00  0.00    +0.000 A 
ATOM     15  N   UNL     1       5.027   5.518  19.265  0.00  0.00    +0.000 NA
ATOM     16  H   UNL     1       3.402   4.970  21.001  0.00  0.00    +0.000 HD
ENDBRANCH   1  14
BRANCH   3  17
ATOM     17  C   UNL     1       8.856   8.095  18.822  0.00  0.00    +0.000 C 
BRANCH  17  18
ATOM     18  C   UNL     1       8.893   9.615  18.930  0.00  0.00    +0.000 A 
ATOM     19  C   UNL     1       8.830  10.437  17.788  0.00  0.00    +0.000 A 
ATOM     20  C   UNL     1       9.038  11.828  17.868  0.00  0.00    +0.000 A 
ATOM     21  C   UNL     1       9.306  12.372  19.110  0.00  0.00    +0.000 A 
ATOM     22  C   UNL     1       9.365  11.591  20.237  0.00  0.00    +0.000 A 
ATOM     23  C   UNL     1       9.159  10.221  20.184  0.00  0.00    +0.000 A 
ATOM     24  O   UNL     1       9.667  12.312  21.349  0.00  0.00    +0.000 OA
ATOM     25  C   UNL     1       9.793  13.639  20.792  0.00  0.00    +0.000 C 
ATOM     26  O   UNL     1       9.561  13.680  19.369  0.00  0.00    +0.000 OA
ENDBRANCH  17  18
ENDBRANCH   3  17
TORSDOF 3
ENDMDL
MODEL 7
REMARK VINA RESULT:      -6.5      4.581      6.361
REMARK  Name = 
REMARK  5 active torsions:
REMARK  status: ('A' for Active; 'I' for Inactive)
REMARK    1  A    between atoms: C_1  and  C_2
REMARK    2  A    between atoms: C_10  and  C_11
REMARK    3  A    between atoms: N_13  and  C_14
REMARK    4  A    between atoms: N_13  and  C_15
REMARK    5  A    between atoms: C_15  and  C_16
REMARK                            x       y       z     vdW  Elec       q    Type
REMARK                         _______ _______ _______ _____ _____    ______ ____
ROOT
ATOM      1  C   UNL     1       0.959  13.247  20.092  0.00  0.00    +0.000 C 
ATOM      2  O   UNL     1       1.384  12.966  21.216  0.00  0.00    +0.000 OA
ATOM      3  N   UNL     1      -0.184  12.585  19.583  0.00  0.00    +0.000 N 
ATOM      4  C   UNL     1      -0.783  12.807  18.275  0.00  0.00    +0.000 C 
ENDROOT
BRANCH   1  14
ATOM      5  C   UNL     1       7.331  14.736  17.728  0.00  0.00    +0.000 C 
ATOM      6  C   UNL     1       5.983  15.299  18.077  0.00  0.00    +0.000 C 
ATOM      7  O   UNL     1       5.885  16.402  18.608  0.00  0.00    +0.000 OA
ATOM      8  N   UNL     1       4.922  14.467  17.751  0.00  0.00    +0.000 N 
ATOM      9  C   UNL     1       3.605  14.835  18.055  0.00  0.00    +0.000 A 
ATOM     10  C   UNL     1       3.180  16.139  17.862  0.00  0.00    +0.000 A 
ATOM     11  C   UNL     1       2.003  16.547  18.469  0.00  0.00    +0.000 A 
ATOM     12  C   UNL     1       1.288  15.641  19.259  0.00  0.00    +0.000 A 
ATOM     13 BR   UNL     1      -0.098  16.389  20.313  0.00  0.00    +0.000 Br
ATOM     14  C   UNL     1       1.720  14.304  19.302  0.00  0.00    +0.000 A 
ATOM     15  N   UNL     1       2.845  13.887  18.643  0.00  0.00    +0.000 NA
ATOM     16  H   UNL     1       5.089  13.470  17.780  0.00  0.00    +0.000 HD
ENDBRANCH   1  14
BRANCH   3  17
ATOM     17  C   UNL     1      -0.662  11.381  20.296  0.00  0.00    +0.000 C 
BRANCH  17  18
ATOM     18  C   UNL     1       0.121  10.086  20.107  0.00  0.00    +0.000 A 
ATOM     19  C   UNL     1       0.366   9.210  21.182  0.00  0.00    +0.000 A 
ATOM     20  C   UNL     1       1.232   8.107  21.051  0.00  0.00    +0.000 A 
ATOM     21  C   UNL     1       1.839   7.902  19.826  0.00  0.00    +0.000 A 
ATOM     22  C   UNL     1       1.609   8.739  18.763  0.00  0.00    +0.000 A 
ATOM     23  C   UNL     1       0.757   9.828  18.867  0.00  0.00    +0.000 A 
ATOM     24  O   UNL     1       2.320   8.381  17.662  0.00  0.00    +0.000 OA
ATOM     25  C   UNL     1       3.028   7.222  18.154  0.00  0.00    +0.000 C 
ATOM     26  O   UNL     1       2.721   6.914  19.529  0.00  0.00    +0.000 OA
ENDBRANCH  17  18
ENDBRANCH   3  17
TORSDOF 3
ENDMDL
MODEL 8
REMARK VINA RESULT:      -6.5      2.893      7.873
REMARK  Name = 
REMARK  5 active torsions:
REMARK  status: ('A' for Active; 'I' for Inactive)
REMARK    1  A    between atoms: C_1  and  C_2
REMARK    2  A    between atoms: C_10  and  C_11
REMARK    3  A    between atoms: N_13  and  C_14
REMARK    4  A    between atoms: N_13  and  C_15
REMARK    5  A    between atoms: C_15  and  C_16
REMARK                            x       y       z     vdW  Elec       q    Type
REMARK                         _______ _______ _______ _____ _____    ______ ____
ROOT
ATOM      1  C   UNL     1       2.381   7.800  18.060  0.00  0.00    +0.000 C 
ATOM      2  O   UNL     1       2.550   8.317  16.952  0.00  0.00    +0.000 OA
ATOM      3  N   UNL     1       1.809   8.556  19.112  0.00  0.00    +0.000 N 
ATOM      4  C   UNL     1       1.566   8.079  20.466  0.00  0.00    +0.000 C 
ENDROOT
BRANCH   1  14
ATOM      5  C   UNL     1       1.317   2.222  22.079  0.00  0.00    +0.000 C 
ATOM      6  C   UNL     1       2.255   2.882  21.110  0.00  0.00    +0.000 C 
ATOM      7  O   UNL     1       3.471   2.805  21.267  0.00  0.00    +0.000 OA
ATOM      8  N   UNL     1       1.619   3.555  20.078  0.00  0.00    +0.000 N 
ATOM      9  C   UNL     1       2.360   4.258  19.118  0.00  0.00    +0.000 A 
ATOM     10  C   UNL     1       3.525   3.718  18.600  0.00  0.00    +0.000 A 
ATOM     11  C   UNL     1       4.395   4.555  17.921  0.00  0.00    +0.000 A 
ATOM     12  C   UNL     1       4.079   5.910  17.785  0.00  0.00    +0.000 A 
ATOM     13 BR   UNL     1       5.481   7.020  17.156  0.00  0.00    +0.000 Br
ATOM     14  C   UNL     1       2.821   6.352  18.229  0.00  0.00    +0.000 A 
ATOM     15  N   UNL     1       1.933   5.507  18.836  0.00  0.00    +0.000 NA
ATOM     16  H   UNL     1       0.714   3.959  20.277  0.00  0.00    +0.000 HD
ENDBRANCH   1  14
BRANCH   3  17
ATOM     17  C   UNL     1       1.696  10.019  18.932  0.00  0.00    +0.000 C 
BRANCH  17  18
ATOM     18  C   UNL     1       0.301  10.606  18.748  0.00  0.00    +0.000 A 
ATOM     19  C   UNL     1      -0.135  11.719  19.494  0.00  0.00    +0.000 A 
ATOM     20  C   UNL     1      -1.474  12.154  19.455  0.00  0.00    +0.000 A 
ATOM     21  C   UNL     1      -2.359  11.455  18.655  0.00  0.00    +0.000 A 
ATOM     22  C   UNL     1      -1.955  10.373  17.914  0.00  0.00    +0.000 A 
ATOM     23  C   UNL     1      -0.641   9.929  17.933  0.00  0.00    +0.000 A 
ATOM     24  O   UNL     1      -2.979   9.812  17.220  0.00  0.00    +0.000 OA
ATOM     25  C   UNL     1      -4.078  10.666  17.609  0.00  0.00    +0.000 C 
ATOM     26  O   UNL     1      -3.685  11.713  18.519  0.00  0.00    +0.000 OA
ENDBRANCH  17  18
ENDBRANCH   3  17
TORSDOF 3
ENDMDL
MODEL 9
REMARK VINA RESULT:      -6.5      3.194      4.247
REMARK  Name = 
REMARK  5 active torsions:
REMARK  status: ('A' for Active; 'I' for Inactive)
REMARK    1  A    between atoms: C_1  and  C_2
REMARK    2  A    between atoms: C_10  and  C_11
REMARK    3  A    between atoms: N_13  and  C_14
REMARK    4  A    between atoms: N_13  and  C_15
REMARK    5  A    between atoms: C_15  and  C_16
REMARK                            x       y       z     vdW  Elec       q    Type
REMARK                         _______ _______ _______ _____ _____    ______ ____
ROOT
ATOM      1  C   UNL     1      -1.249  12.006  19.095  0.00  0.00    +0.000 C 
ATOM      2  O   UNL     1      -0.611  12.584  18.209  0.00  0.00    +0.000 OA
ATOM      3  N   UNL     1      -0.569  11.441  20.201  0.00  0.00    +0.000 N 
ATOM      4  C   UNL     1      -1.190  10.724  21.305  0.00  0.00    +0.000 C 
ENDROOT
BRANCH   1  14
ATOM      5  C   UNL     1      -7.169  12.749  22.673  0.00  0.00    +0.000 C 
ATOM      6  C   UNL     1      -6.534  12.149  21.451  0.00  0.00    +0.000 C 
ATOM      7  O   UNL     1      -6.876  11.039  21.051  0.00  0.00    +0.000 OA
ATOM      8  N   UNL     1      -5.566  12.952  20.866  0.00  0.00    +0.000 N 
ATOM      9  C   UNL     1      -4.853  12.510  19.744  0.00  0.00    +0.000 A 
ATOM     10  C   UNL     1      -5.503  11.837  18.722  0.00  0.00    +0.000 A 
ATOM     11  C   UNL     1      -4.740  11.134  17.805  0.00  0.00    +0.000 A 
ATOM     12  C   UNL     1      -3.348  11.116  17.939  0.00  0.00    +0.000 A 
ATOM     13 BR   UNL     1      -2.435   9.855  16.857  0.00  0.00    +0.000 Br
ATOM     14  C   UNL     1      -2.760  11.925  18.927  0.00  0.00    +0.000 A 
ATOM     15  N   UNL     1      -3.515  12.676  19.787  0.00  0.00    +0.000 NA
ATOM     16  H   UNL     1      -5.038  13.560  21.477  0.00  0.00    +0.000 HD
ENDBRANCH   1  14
BRANCH   3  17
ATOM     17  C   UNL     1       0.902  11.314  20.118  0.00  0.00    +0.000 C 
BRANCH  17  18
ATOM     18  C   UNL     1       1.472  10.017  19.557  0.00  0.00    +0.000 A 
ATOM     19  C   UNL     1       1.779   9.877  18.189  0.00  0.00    +0.000 A 
ATOM     20  C   UNL     1       2.139   8.632  17.637  0.00  0.00    +0.000 A 
ATOM     21  C   UNL     1       2.187   7.539  18.482  0.00  0.00    +0.000 A 
ATOM     22  C   UNL     1       1.900   7.653  19.819  0.00  0.00    +0.000 A 
ATOM     23  C   UNL     1       1.547   8.869  20.385  0.00  0.00    +0.000 A 
ATOM     24  O   UNL     1       1.977   6.461  20.466  0.00  0.00    +0.000 OA
ATOM     25  C   UNL     1       2.347   5.580  19.382  0.00  0.00    +0.000 C 
ATOM     26  O   UNL     1       2.484   6.265  18.120  0.00  0.00    +0.000 OA
ENDBRANCH  17  18
ENDBRANCH   3  17
TORSDOF 3
ENDMDL
