MODEL 1
REMARK VINA RESULT:      -8.1      0.000      0.000
REMARK  Name = 
REMARK  10 active torsions:
REMARK  status: ('A' for Active; 'I' for Inactive)
REMARK    1  A    between atoms: C_1  and  O_2
REMARK    2  A    between atoms: O_2  and  C_3
REMARK    3  A    between atoms: C_6  and  C_7
REMARK    4  A    between atoms: C_7  and  C_8
REMARK    5  A    between atoms: C_8  and  N_9
REMARK    6  A    between atoms: C_10  and  C_12
REMARK    7  A    between atoms: C_13  and  C_14
REMARK    8  A    between atoms: C_19  and  C_20
REMARK    9  A    between atoms: C_25  and  O_26
REMARK   10  A    between atoms: O_26  and  C_27
REMARK                            x       y       z     vdW  Elec       q    Type
REMARK                         _______ _______ _______ _____ _____    ______ ____
ROOT
ATOM      1  N   UNL     1       6.774   7.730  17.116  0.00  0.00    +0.000 N 
ATOM      2  C   UNL     1       7.833   7.987  17.956  0.00  0.00    +0.000 C 
ATOM      3  O   UNL     1       8.292   7.174  18.746  0.00  0.00    +0.000 OA
ATOM      4  H   UNL     1       6.381   8.462  16.542  0.00  0.00    +0.000 HD
ENDROOT
BRANCH   2   5
ATOM      5  C   UNL     1       8.371   9.371  17.843  0.00  0.00    +0.000 C 
ATOM      6  C   UNL     1       9.158   9.851  18.825  0.00  0.00    +0.000 C 
BRANCH   6   7
ATOM      7  C   UNL     1       9.703  11.213  18.823  0.00  0.00    +0.000 A 
ATOM      8  C   UNL     1      10.270  11.665  17.618  0.00  0.00    +0.000 A 
ATOM      9  C   UNL     1      10.785  12.956  17.503  0.00  0.00    +0.000 A 
ATOM     10  C   UNL     1      10.735  13.821  18.588  0.00  0.00    +0.000 A 
ATOM     11  C   UNL     1      10.178  13.386  19.790  0.00  0.00    +0.000 A 
ATOM     12  C   UNL     1       9.663  12.077  19.932  0.00  0.00    +0.000 A 
BRANCH  12  13
ATOM     13  C   UNL     1       9.115  11.697  21.288  0.00  0.00    +0.000 C 
ATOM     14  F   UNL     1       7.798  11.964  21.496  0.00  0.00    +0.000 F 
ATOM     15  F   UNL     1       9.251  10.357  21.523  0.00  0.00    +0.000 F 
ATOM     16  F   UNL     1       9.780  12.312  22.307  0.00  0.00    +0.000 F 
ENDBRANCH  12  13
ENDBRANCH   6   7
ENDBRANCH   2   5
BRANCH   1  17
ATOM     17  C   UNL     1       6.124   6.419  17.156  0.00  0.00    +0.000 C 
BRANCH  17  18
ATOM     18  C   UNL     1       4.653   6.447  16.731  0.00  0.00    +0.000 C 
BRANCH  18  22
ATOM     19  C   UNL     1       1.941   4.664  19.614  0.00  0.00    +0.000 A 
ATOM     20  C   UNL     1       2.343   6.006  19.726  0.00  0.00    +0.000 A 
ATOM     21  C   UNL     1       3.203   6.589  18.795  0.00  0.00    +0.000 A 
ATOM     22  C   UNL     1       3.750   5.821  17.770  0.00  0.00    +0.000 A 
ATOM     23  C   UNL     1       3.423   4.460  17.713  0.00  0.00    +0.000 A 
ATOM     24  C   UNL     1       2.524   3.866  18.619  0.00  0.00    +0.000 A 
BRANCH  19  26
ATOM     25  C   UNL     1       1.505   3.234  21.443  0.00  0.00    +0.000 C 
ATOM     26  O   UNL     1       0.998   4.147  20.464  0.00  0.00    +0.000 OA
ENDBRANCH  19  26
BRANCH  24  27
ATOM     27  O   UNL     1       2.346   2.538  18.341  0.00  0.00    +0.000 OA
ATOM     28  C   UNL     1       3.443   1.742  17.928  0.00  0.00    +0.000 C 
ENDBRANCH  24  27
ENDBRANCH  18  22
ENDBRANCH  17  18
ENDBRANCH   1  17
TORSDOF 8
ENDMDL
MODEL 2
REMARK VINA RESULT:      -8.0      3.494      9.749
REMARK  Name = 
REMARK  10 active torsions:
REMARK  status: ('A' for Active; 'I' for Inactive)
REMARK    1  A    between atoms: C_1  and  O_2
REMARK    2  A    between atoms: O_2  and  C_3
REMARK    3  A    between atoms: C_6  and  C_7
REMARK    4  A    between atoms: C_7  and  C_8
REMARK    5  A    between atoms: C_8  and  N_9
REMARK    6  A    between atoms: C_10  and  C_12
REMARK    7  A    between atoms: C_13  and  C_14
REMARK    8  A    between atoms: C_19  and  C_20
REMARK    9  A    between atoms: C_25  and  O_26
REMARK   10  A    between atoms: O_26  and  C_27
REMARK                            x       y       z     vdW  Elec       q    Type
REMARK                         _______ _______ _______ _____ _____    ______ ____
ROOT
ATOM      1  N   UNL     1       6.996   6.887  18.136  0.00  0.00    +0.000 N 
ATOM      2  C   UNL     1       6.764   6.188  16.974  0.00  0.00    +0.000 C 
ATOM      3  O   UNL     1       7.514   6.204  16.007  0.00  0.00    +0.000 OA
ATOM      4  H   UNL     1       6.305   6.906  18.873  0.00  0.00    +0.000 HD
ENDROOT
BRANCH   2   5
ATOM      5  C   UNL     1       5.491   5.416  16.976  0.00  0.00    +0.000 C 
ATOM      6  C   UNL     1       5.011   4.945  18.143  0.00  0.00    +0.000 C 
BRANCH   6   7
ATOM      7  C   UNL     1       3.787   4.142  18.240  0.00  0.00    +0.000 A 
ATOM      8  C   UNL     1       3.845   2.837  17.722  0.00  0.00    +0.000 A 
ATOM      9  C   UNL     1       2.746   1.981  17.797  0.00  0.00    +0.000 A 
ATOM     10  C   UNL     1       1.571   2.414  18.398  0.00  0.00    +0.000 A 
ATOM     11  C   UNL     1       1.498   3.708  18.914  0.00  0.00    +0.000 A 
ATOM     12  C   UNL     1       2.596   4.595  18.837  0.00  0.00    +0.000 A 
BRANCH  12  13
ATOM     13  C   UNL     1       2.398   5.985  19.395  0.00  0.00    +0.000 C 
ATOM     14  F   UNL     1       2.025   6.939  18.502  0.00  0.00    +0.000 F 
ATOM     15  F   UNL     1       1.433   6.000  20.363  0.00  0.00    +0.000 F 
ATOM     16  F   UNL     1       3.522   6.466  19.999  0.00  0.00    +0.000 F 
ENDBRANCH  12  13
ENDBRANCH   6   7
ENDBRANCH   2   5
BRANCH   1  17
ATOM     17  C   UNL     1       8.193   7.721  18.250  0.00  0.00    +0.000 C 
BRANCH  17  18
ATOM     18  C   UNL     1       8.048   9.099  17.598  0.00  0.00    +0.000 C 
BRANCH  18  22
ATOM     19  C   UNL     1      10.292  12.128  19.751  0.00  0.00    +0.000 A 
ATOM     20  C   UNL     1       9.809  10.980  20.402  0.00  0.00    +0.000 A 
ATOM     21  C   UNL     1       9.100   9.995  19.712  0.00  0.00    +0.000 A 
ATOM     22  C   UNL     1       8.783  10.173  18.369  0.00  0.00    +0.000 A 
ATOM     23  C   UNL     1       9.183  11.361  17.742  0.00  0.00    +0.000 A 
ATOM     24  C   UNL     1       9.935  12.345  18.412  0.00  0.00    +0.000 A 
BRANCH  19  26
ATOM     25  C   UNL     1      10.395  14.066  21.097  0.00  0.00    +0.000 C 
ATOM     26  O   UNL     1      11.094  13.018  20.417  0.00  0.00    +0.000 OA
ENDBRANCH  19  26
BRANCH  24  27
ATOM     27  O   UNL     1      10.227  13.394  17.584  0.00  0.00    +0.000 OA
ATOM     28  C   UNL     1      11.502  13.488  16.973  0.00  0.00    +0.000 C 
ENDBRANCH  24  27
ENDBRANCH  18  22
ENDBRANCH  17  18
ENDBRANCH   1  17
TORSDOF 8
ENDMDL
MODEL 3
REMARK VINA RESULT:      -7.9      0.954      1.252
REMARK  Name = 
REMARK  10 active torsions:
REMARK  status: ('A' for Active; 'I' for Inactive)
REMARK    1  A    between atoms: C_1  and  O_2
REMARK    2  A    between atoms: O_2  and  C_3
REMARK    3  A    between atoms: C_6  and  C_7
REMARK    4  A    between atoms: C_7  and  C_8
REMARK    5  A    between atoms: C_8  and  N_9
REMARK    6  A    between atoms: C_10  and  C_12
REMARK    7  A    between atoms: C_13  and  C_14
REMARK    8  A    between atoms: C_19  and  C_20
REMARK    9  A    between atoms: C_25  and  O_26
REMARK   10  A    between atoms: O_26  and  C_27
REMARK                            x       y       z     vdW  Elec       q    Type
REMARK                         _______ _______ _______ _____ _____    ______ ____
ROOT
ATOM      1  N   UNL     1       7.128   7.707  16.929  0.00  0.00    +0.000 N 
ATOM      2  C   UNL     1       7.987   8.100  17.929  0.00  0.00    +0.000 C 
ATOM      3  O   UNL     1       8.399   7.355  18.807  0.00  0.00    +0.000 OA
ATOM      4  H   UNL     1       6.753   8.381  16.277  0.00  0.00    +0.000 HD
ENDROOT
BRANCH   2   5
ATOM      5  C   UNL     1       8.364   9.540  17.872  0.00  0.00    +0.000 C 
ATOM      6  C   UNL     1       9.143  10.053  18.844  0.00  0.00    +0.000 C 
BRANCH   6   7
ATOM      7  C   UNL     1       9.534  11.465  18.895  0.00  0.00    +0.000 A 
ATOM      8  C   UNL     1       9.964  12.047  17.689  0.00  0.00    +0.000 A 
ATOM      9  C   UNL     1      10.326  13.393  17.626  0.00  0.00    +0.000 A 
ATOM     10  C   UNL     1      10.255  14.183  18.765  0.00  0.00    +0.000 A 
ATOM     11  C   UNL     1       9.834  13.620  19.969  0.00  0.00    +0.000 A 
ATOM     12  C   UNL     1       9.475  12.255  20.058  0.00  0.00    +0.000 A 
BRANCH  12  13
ATOM     13  C   UNL     1       9.066  11.738  21.418  0.00  0.00    +0.000 C 
ATOM     14  F   UNL     1       9.320  10.425  21.658  0.00  0.00    +0.000 F 
ATOM     15  F   UNL     1       9.701  12.417  22.420  0.00  0.00    +0.000 F 
ATOM     16  F   UNL     1       7.734  11.906  21.657  0.00  0.00    +0.000 F 
ENDBRANCH  12  13
ENDBRANCH   6   7
ENDBRANCH   2   5
BRANCH   1  17
ATOM     17  C   UNL     1       6.646   6.326  16.893  0.00  0.00    +0.000 C 
BRANCH  17  18
ATOM     18  C   UNL     1       5.233   6.181  16.323  0.00  0.00    +0.000 C 
BRANCH  18  22
ATOM     19  C   UNL     1       2.466   4.194  19.015  0.00  0.00    +0.000 A 
ATOM     20  C   UNL     1       2.262   5.526  18.614  0.00  0.00    +0.000 A 
ATOM     21  C   UNL     1       3.139   6.165  17.738  0.00  0.00    +0.000 A 
ATOM     22  C   UNL     1       4.291   5.516  17.303  0.00  0.00    +0.000 A 
ATOM     23  C   UNL     1       4.544   4.221  17.777  0.00  0.00    +0.000 A 
ATOM     24  C   UNL     1       3.648   3.546  18.627  0.00  0.00    +0.000 A 
BRANCH  19  26
ATOM     25  C   UNL     1       0.678   2.650  19.044  0.00  0.00    +0.000 C 
ATOM     26  O   UNL     1       1.526   3.545  19.773  0.00  0.00    +0.000 OA
ENDBRANCH  19  26
BRANCH  24  27
ATOM     27  O   UNL     1       4.100   2.290  18.927  0.00  0.00    +0.000 OA
ATOM     28  C   UNL     1       4.521   1.979  20.243  0.00  0.00    +0.000 C 
ENDBRANCH  24  27
ENDBRANCH  18  22
ENDBRANCH  17  18
ENDBRANCH   1  17
TORSDOF 8
ENDMDL
MODEL 4
REMARK VINA RESULT:      -7.8      3.418      9.772
REMARK  Name = 
REMARK  10 active torsions:
REMARK  status: ('A' for Active; 'I' for Inactive)
REMARK    1  A    between atoms: C_1  and  O_2
REMARK    2  A    between atoms: O_2  and  C_3
REMARK    3  A    between atoms: C_6  and  C_7
REMARK    4  A    between atoms: C_7  and  C_8
REMARK    5  A    between atoms: C_8  and  N_9
REMARK    6  A    between atoms: C_10  and  C_12
REMARK    7  A    between atoms: C_13  and  C_14
REMARK    8  A    between atoms: C_19  and  C_20
REMARK    9  A    between atoms: C_25  and  O_26
REMARK   10  A    between atoms: O_26  and  C_27
REMARK                            x       y       z     vdW  Elec       q    Type
REMARK                         _______ _______ _______ _____ _____    ______ ____
ROOT
ATOM      1  N   UNL     1       6.913   7.597  17.998  0.00  0.00    +0.000 N 
ATOM      2  C   UNL     1       6.879   6.490  17.182  0.00  0.00    +0.000 C 
ATOM      3  O   UNL     1       7.588   6.347  16.195  0.00  0.00    +0.000 OA
ATOM      4  H   UNL     1       6.250   7.703  18.752  0.00  0.00    +0.000 HD
ENDROOT
BRANCH   2   5
ATOM      5  C   UNL     1       5.873   5.470  17.588  0.00  0.00    +0.000 C 
ATOM      6  C   UNL     1       4.580   5.658  17.262  0.00  0.00    +0.000 C 
BRANCH   6   7
ATOM      7  C   UNL     1       3.512   4.731  17.650  0.00  0.00    +0.000 A 
ATOM      8  C   UNL     1       3.519   3.466  17.036  0.00  0.00    +0.000 A 
ATOM      9  C   UNL     1       2.567   2.500  17.362  0.00  0.00    +0.000 A 
ATOM     10  C   UNL     1       1.595   2.780  18.314  0.00  0.00    +0.000 A 
ATOM     11  C   UNL     1       1.574   4.031  18.929  0.00  0.00    +0.000 A 
ATOM     12  C   UNL     1       2.522   5.028  18.604  0.00  0.00    +0.000 A 
BRANCH  12  13
ATOM     13  C   UNL     1       2.387   6.360  19.304  0.00  0.00    +0.000 C 
ATOM     14  F   UNL     1       3.519   6.853  19.873  0.00  0.00    +0.000 F 
ATOM     15  F   UNL     1       1.961   7.334  18.445  0.00  0.00    +0.000 F 
ATOM     16  F   UNL     1       1.458   6.329  20.303  0.00  0.00    +0.000 F 
ENDBRANCH  12  13
ENDBRANCH   6   7
ENDBRANCH   2   5
BRANCH   1  17
ATOM     17  C   UNL     1       7.830   8.695  17.686  0.00  0.00    +0.000 C 
BRANCH  17  18
ATOM     18  C   UNL     1       8.964   8.857  18.702  0.00  0.00    +0.000 C 
BRANCH  18  22
ATOM     19  C   UNL     1       9.921  12.999  19.586  0.00  0.00    +0.000 A 
ATOM     20  C   UNL     1       9.523  12.111  20.601  0.00  0.00    +0.000 A 
ATOM     21  C   UNL     1       9.228  10.775  20.326  0.00  0.00    +0.000 A 
ATOM     22  C   UNL     1       9.244  10.311  19.013  0.00  0.00    +0.000 A 
ATOM     23  C   UNL     1       9.549  11.219  17.990  0.00  0.00    +0.000 A 
ATOM     24  C   UNL     1       9.890  12.559  18.255  0.00  0.00    +0.000 A 
BRANCH  19  26
ATOM     25  C   UNL     1       9.272  15.229  20.014  0.00  0.00    +0.000 C 
ATOM     26  O   UNL     1      10.328  14.270  19.896  0.00  0.00    +0.000 OA
ENDBRANCH  19  26
BRANCH  24  27
ATOM     27  O   UNL     1      10.173  13.236  17.099  0.00  0.00    +0.000 OA
ATOM     28  C   UNL     1      11.514  13.374  16.664  0.00  0.00    +0.000 C 
ENDBRANCH  24  27
ENDBRANCH  18  22
ENDBRANCH  17  18
ENDBRANCH   1  17
TORSDOF 8
ENDMDL
MODEL 5
REMARK VINA RESULT:      -7.8      4.238      9.986
REMARK  Name = 
REMARK  10 active torsions:
REMARK  status: ('A' for Active; 'I' for Inactive)
REMARK    1  A    between atoms: C_1  and  O_2
REMARK    2  A    between atoms: O_2  and  C_3
REMARK    3  A    between atoms: C_6  and  C_7
REMARK    4  A    between atoms: C_7  and  C_8
REMARK    5  A    between atoms: C_8  and  N_9
REMARK    6  A    between atoms: C_10  and  C_12
REMARK    7  A    between atoms: C_13  and  C_14
REMARK    8  A    between atoms: C_19  and  C_20
REMARK    9  A    between atoms: C_25  and  O_26
REMARK   10  A    between atoms: O_26  and  C_27
REMARK                            x       y       z     vdW  Elec       q    Type
REMARK                         _______ _______ _______ _____ _____    ______ ____
ROOT
ATOM      1  N   UNL     1       6.351   7.256  17.758  0.00  0.00    +0.000 N 
ATOM      2  C   UNL     1       5.466   6.814  16.802  0.00  0.00    +0.000 C 
ATOM      3  O   UNL     1       5.667   6.890  15.598  0.00  0.00    +0.000 OA
ATOM      4  H   UNL     1       6.102   7.246  18.736  0.00  0.00    +0.000 HD
ENDROOT
BRANCH   2   5
ATOM      5  C   UNL     1       4.207   6.248  17.360  0.00  0.00    +0.000 C 
ATOM      6  C   UNL     1       4.259   5.526  18.496  0.00  0.00    +0.000 C 
BRANCH   6   7
ATOM      7  C   UNL     1       3.080   4.896  19.100  0.00  0.00    +0.000 A 
ATOM      8  C   UNL     1       2.476   5.581  20.169  0.00  0.00    +0.000 A 
ATOM      9  C   UNL     1       1.330   5.082  20.790  0.00  0.00    +0.000 A 
ATOM     10  C   UNL     1       0.764   3.894  20.346  0.00  0.00    +0.000 A 
ATOM     11  C   UNL     1       1.354   3.203  19.289  0.00  0.00    +0.000 A 
ATOM     12  C   UNL     1       2.522   3.684  18.655  0.00  0.00    +0.000 A 
BRANCH  12  13
ATOM     13  C   UNL     1       3.099   2.839  17.543  0.00  0.00    +0.000 C 
ATOM     14  F   UNL     1       2.621   1.570  17.448  0.00  0.00    +0.000 F 
ATOM     15  F   UNL     1       2.870   3.403  16.319  0.00  0.00    +0.000 F 
ATOM     16  F   UNL     1       4.454   2.715  17.635  0.00  0.00    +0.000 F 
ENDBRANCH  12  13
ENDBRANCH   6   7
ENDBRANCH   2   5
BRANCH   1  17
ATOM     17  C   UNL     1       7.612   7.874  17.343  0.00  0.00    +0.000 C 
BRANCH  17  18
ATOM     18  C   UNL     1       8.531   8.242  18.511  0.00  0.00    +0.000 C 
BRANCH  18  22
ATOM     19  C   UNL     1       9.129  12.531  18.819  0.00  0.00    +0.000 A 
ATOM     20  C   UNL     1       8.586  11.953  17.659  0.00  0.00    +0.000 A 
ATOM     21  C   UNL     1       8.377  10.577  17.560  0.00  0.00    +0.000 A 
ATOM     22  C   UNL     1       8.784   9.731  18.588  0.00  0.00    +0.000 A 
ATOM     23  C   UNL     1       9.412  10.297  19.705  0.00  0.00    +0.000 A 
ATOM     24  C   UNL     1       9.591  11.688  19.840  0.00  0.00    +0.000 A 
BRANCH  19  26
ATOM     25  C   UNL     1      10.327  14.497  18.289  0.00  0.00    +0.000 C 
ATOM     26  O   UNL     1       9.207  13.894  18.946  0.00  0.00    +0.000 OA
ENDBRANCH  19  26
BRANCH  24  27
ATOM     27  O   UNL     1      10.201  11.996  21.026  0.00  0.00    +0.000 OA
ATOM     28  C   UNL     1       9.487  12.686  22.036  0.00  0.00    +0.000 C 
ENDBRANCH  24  27
ENDBRANCH  18  22
ENDBRANCH  17  18
ENDBRANCH   1  17
TORSDOF 8
ENDMDL
MODEL 6
REMARK VINA RESULT:      -7.8      3.444      9.705
REMARK  Name = 
REMARK  10 active torsions:
REMARK  status: ('A' for Active; 'I' for Inactive)
REMARK    1  A    between atoms: C_1  and  O_2
REMARK    2  A    between atoms: O_2  and  C_3
REMARK    3  A    between atoms: C_6  and  C_7
REMARK    4  A    between atoms: C_7  and  C_8
REMARK    5  A    between atoms: C_8  and  N_9
REMARK    6  A    between atoms: C_10  and  C_12
REMARK    7  A    between atoms: C_13  and  C_14
REMARK    8  A    between atoms: C_19  and  C_20
REMARK    9  A    between atoms: C_25  and  O_26
REMARK   10  A    between atoms: O_26  and  C_27
REMARK                            x       y       z     vdW  Elec       q    Type
REMARK                         _______ _______ _______ _____ _____    ______ ____
ROOT
ATOM      1  N   UNL     1       6.642   7.057  17.895  0.00  0.00    +0.000 N 
ATOM      2  C   UNL     1       6.769   5.794  17.365  0.00  0.00    +0.000 C 
ATOM      3  O   UNL     1       7.651   5.467  16.583  0.00  0.00    +0.000 OA
ATOM      4  H   UNL     1       5.849   7.298  18.471  0.00  0.00    +0.000 HD
ENDROOT
BRANCH   2   5
ATOM      5  C   UNL     1       5.711   4.844  17.807  0.00  0.00    +0.000 C 
ATOM      6  C   UNL     1       4.421   5.129  17.544  0.00  0.00    +0.000 C 
BRANCH   6   7
ATOM      7  C   UNL     1       3.308   4.276  17.972  0.00  0.00    +0.000 A 
ATOM      8  C   UNL     1       3.241   2.992  17.404  0.00  0.00    +0.000 A 
ATOM      9  C   UNL     1       2.240   2.092  17.770  0.00  0.00    +0.000 A 
ATOM     10  C   UNL     1       1.293   2.458  18.718  0.00  0.00    +0.000 A 
ATOM     11  C   UNL     1       1.345   3.730  19.288  0.00  0.00    +0.000 A 
ATOM     12  C   UNL     1       2.343   4.661  18.921  0.00  0.00    +0.000 A 
BRANCH  12  13
ATOM     13  C   UNL     1       2.287   6.023  19.573  0.00  0.00    +0.000 C 
ATOM     14  F   UNL     1       3.442   6.461  20.140  0.00  0.00    +0.000 F 
ATOM     15  F   UNL     1       1.935   6.991  18.675  0.00  0.00    +0.000 F 
ATOM     16  F   UNL     1       1.346   6.087  20.559  0.00  0.00    +0.000 F 
ENDBRANCH  12  13
ENDBRANCH   6   7
ENDBRANCH   2   5
BRANCH   1  17
ATOM     17  C   UNL     1       7.594   8.100  17.509  0.00  0.00    +0.000 C 
BRANCH  17  18
ATOM     18  C   UNL     1       8.632   8.417  18.590  0.00  0.00    +0.000 C 
BRANCH  18  22
ATOM     19  C   UNL     1       9.222  12.696  19.024  0.00  0.00    +0.000 A 
ATOM     20  C   UNL     1       8.806  12.139  17.803  0.00  0.00    +0.000 A 
ATOM     21  C   UNL     1       8.599  10.767  17.661  0.00  0.00    +0.000 A 
ATOM     22  C   UNL     1       8.885   9.903  18.715  0.00  0.00    +0.000 A 
ATOM     23  C   UNL     1       9.390  10.448  19.903  0.00  0.00    +0.000 A 
ATOM     24  C   UNL     1       9.564  11.835  20.077  0.00  0.00    +0.000 A 
BRANCH  19  26
ATOM     25  C   UNL     1      10.559  14.635  18.835  0.00  0.00    +0.000 C 
ATOM     26  O   UNL     1       9.295  14.056  19.179  0.00  0.00    +0.000 OA
ENDBRANCH  19  26
BRANCH  24  27
ATOM     27  O   UNL     1      10.041  12.121  21.327  0.00  0.00    +0.000 OA
ATOM     28  C   UNL     1       9.167  12.606  22.331  0.00  0.00    +0.000 C 
ENDBRANCH  24  27
ENDBRANCH  18  22
ENDBRANCH  17  18
ENDBRANCH   1  17
TORSDOF 8
ENDMDL
MODEL 7
REMARK VINA RESULT:      -7.8      4.482      7.505
REMARK  Name = 
REMARK  10 active torsions:
REMARK  status: ('A' for Active; 'I' for Inactive)
REMARK    1  A    between atoms: C_1  and  O_2
REMARK    2  A    between atoms: O_2  and  C_3
REMARK    3  A    between atoms: C_6  and  C_7
REMARK    4  A    between atoms: C_7  and  C_8
REMARK    5  A    between atoms: C_8  and  N_9
REMARK    6  A    between atoms: C_10  and  C_12
REMARK    7  A    between atoms: C_13  and  C_14
REMARK    8  A    between atoms: C_19  and  C_20
REMARK    9  A    between atoms: C_25  and  O_26
REMARK   10  A    between atoms: O_26  and  C_27
REMARK                            x       y       z     vdW  Elec       q    Type
REMARK                         _______ _______ _______ _____ _____    ______ ____
ROOT
ATOM      1  N   UNL     1       1.883   3.708  19.166  0.00  0.00    +0.000 N 
ATOM      2  C   UNL     1       1.941   4.370  20.371  0.00  0.00    +0.000 C 
ATOM      3  O   UNL     1       2.472   3.916  21.375  0.00  0.00    +0.000 OA
ATOM      4  H   UNL     1       1.361   4.092  18.392  0.00  0.00    +0.000 HD
ENDROOT
BRANCH   2   5
ATOM      5  C   UNL     1       1.269   5.699  20.364  0.00  0.00    +0.000 C 
ATOM      6  C   UNL     1       2.002   6.806  20.591  0.00  0.00    +0.000 C 
BRANCH   6   7
ATOM      7  C   UNL     1       1.424   8.153  20.643  0.00  0.00    +0.000 A 
ATOM      8  C   UNL     1       0.888   8.564  21.876  0.00  0.00    +0.000 A 
ATOM      9  C   UNL     1       0.346   9.839  22.038  0.00  0.00    +0.000 A 
ATOM     10  C   UNL     1       0.338  10.729  20.972  0.00  0.00    +0.000 A 
ATOM     11  C   UNL     1       0.863  10.334  19.742  0.00  0.00    +0.000 A 
ATOM     12  C   UNL     1       1.405   9.042  19.553  0.00  0.00    +0.000 A 
BRANCH  12  13
ATOM     13  C   UNL     1       1.915   8.706  18.171  0.00  0.00    +0.000 C 
ATOM     14  F   UNL     1       1.974   9.739  17.289  0.00  0.00    +0.000 F 
ATOM     15  F   UNL     1       3.184   8.199  18.217  0.00  0.00    +0.000 F 
ATOM     16  F   UNL     1       1.165   7.744  17.561  0.00  0.00    +0.000 F 
ENDBRANCH  12  13
ENDBRANCH   6   7
ENDBRANCH   2   5
BRANCH   1  17
ATOM     17  C   UNL     1       2.469   2.372  19.049  0.00  0.00    +0.000 C 
BRANCH  17  18
ATOM     18  C   UNL     1       3.589   2.281  18.008  0.00  0.00    +0.000 C 
BRANCH  18  22
ATOM     19  C   UNL     1       5.642   6.094  17.699  0.00  0.00    +0.000 A 
ATOM     20  C   UNL     1       4.816   5.626  16.663  0.00  0.00    +0.000 A 
ATOM     21  C   UNL     1       4.141   4.409  16.762  0.00  0.00    +0.000 A 
ATOM     22  C   UNL     1       4.341   3.586  17.868  0.00  0.00    +0.000 A 
ATOM     23  C   UNL     1       5.238   4.009  18.858  0.00  0.00    +0.000 A 
ATOM     24  C   UNL     1       5.893   5.253  18.793  0.00  0.00    +0.000 A 
BRANCH  19  26
ATOM     25  C   UNL     1       7.520   7.397  17.102  0.00  0.00    +0.000 C 
ATOM     26  O   UNL     1       6.193   7.347  17.636  0.00  0.00    +0.000 OA
ENDBRANCH  19  26
BRANCH  24  27
ATOM     27  O   UNL     1       6.692   5.450  19.887  0.00  0.00    +0.000 OA
ATOM     28  C   UNL     1       8.101   5.388  19.761  0.00  0.00    +0.000 C 
ENDBRANCH  24  27
ENDBRANCH  18  22
ENDBRANCH  17  18
ENDBRANCH   1  17
TORSDOF 8
ENDMDL
MODEL 8
REMARK VINA RESULT:      -7.8      3.479      9.723
REMARK  Name = 
REMARK  10 active torsions:
REMARK  status: ('A' for Active; 'I' for Inactive)
REMARK    1  A    between atoms: C_1  and  O_2
REMARK    2  A    between atoms: O_2  and  C_3
REMARK    3  A    between atoms: C_6  and  C_7
REMARK    4  A    between atoms: C_7  and  C_8
REMARK    5  A    between atoms: C_8  and  N_9
REMARK    6  A    between atoms: C_10  and  C_12
REMARK    7  A    between atoms: C_13  and  C_14
REMARK    8  A    between atoms: C_19  and  C_20
REMARK    9  A    between atoms: C_25  and  O_26
REMARK   10  A    between atoms: O_26  and  C_27
REMARK                            x       y       z     vdW  Elec       q    Type
REMARK                         _______ _______ _______ _____ _____    ______ ____
ROOT
ATOM      1  N   UNL     1       7.091   6.487  18.376  0.00  0.00    +0.000 N 
ATOM      2  C   UNL     1       7.002   5.319  17.654  0.00  0.00    +0.000 C 
ATOM      3  O   UNL     1       7.786   5.000  16.771  0.00  0.00    +0.000 OA
ATOM      4  H   UNL     1       6.372   6.741  19.037  0.00  0.00    +0.000 HD
ENDROOT
BRANCH   2   5
ATOM      5  C   UNL     1       5.837   4.467  18.023  0.00  0.00    +0.000 C 
ATOM      6  C   UNL     1       4.597   4.871  17.688  0.00  0.00    +0.000 C 
BRANCH   6   7
ATOM      7  C   UNL     1       3.387   4.122  18.042  0.00  0.00    +0.000 A 
ATOM      8  C   UNL     1       3.278   2.818  17.527  0.00  0.00    +0.000 A 
ATOM      9  C   UNL     1       2.182   2.010  17.832  0.00  0.00    +0.000 A 
ATOM     10  C   UNL     1       1.179   2.490  18.664  0.00  0.00    +0.000 A 
ATOM     11  C   UNL     1       1.271   3.783  19.179  0.00  0.00    +0.000 A 
ATOM     12  C   UNL     1       2.367   4.622  18.872  0.00  0.00    +0.000 A 
BRANCH  12  13
ATOM     13  C   UNL     1       2.351   6.016  19.454  0.00  0.00    +0.000 C 
ATOM     14  F   UNL     1       2.022   7.017  18.596  0.00  0.00    +0.000 F 
ATOM     15  F   UNL     1       1.457   6.115  20.484  0.00  0.00    +0.000 F 
ATOM     16  F   UNL     1       3.555   6.370  19.987  0.00  0.00    +0.000 F 
ENDBRANCH  12  13
ENDBRANCH   6   7
ENDBRANCH   2   5
BRANCH   1  17
ATOM     17  C   UNL     1       8.168   7.434  18.083  0.00  0.00    +0.000 C 
BRANCH  17  18
ATOM     18  C   UNL     1       7.670   8.820  17.662  0.00  0.00    +0.000 C 
BRANCH  18  22
ATOM     19  C   UNL     1      10.088  11.982  19.395  0.00  0.00    +0.000 A 
ATOM     20  C   UNL     1       9.989  10.721  20.009  0.00  0.00    +0.000 A 
ATOM     21  C   UNL     1       9.226   9.696  19.449  0.00  0.00    +0.000 A 
ATOM     22  C   UNL     1       8.473   9.930  18.302  0.00  0.00    +0.000 A 
ATOM     23  C   UNL     1       8.498  11.215  17.741  0.00  0.00    +0.000 A 
ATOM     24  C   UNL     1       9.296  12.248  18.269  0.00  0.00    +0.000 A 
BRANCH  19  26
ATOM     25  C   UNL     1      12.260  12.908  19.331  0.00  0.00    +0.000 C 
ATOM     26  O   UNL     1      10.943  12.931  19.891  0.00  0.00    +0.000 OA
ENDBRANCH  19  26
BRANCH  24  27
ATOM     27  O   UNL     1       9.171  13.395  17.533  0.00  0.00    +0.000 OA
ATOM     28  C   UNL     1       8.271  14.409  17.941  0.00  0.00    +0.000 C 
ENDBRANCH  24  27
ENDBRANCH  18  22
ENDBRANCH  17  18
ENDBRANCH   1  17
TORSDOF 8
ENDMDL
MODEL 9
REMARK VINA RESULT:      -7.7      4.517      8.218
REMARK  Name = 
REMARK  10 active torsions:
REMARK  status: ('A' for Active; 'I' for Inactive)
REMARK    1  A    between atoms: C_1  and  O_2
REMARK    2  A    between atoms: O_2  and  C_3
REMARK    3  A    between atoms: C_6  and  C_7
REMARK    4  A    between atoms: C_7  and  C_8
REMARK    5  A    between atoms: C_8  and  N_9
REMARK    6  A    between atoms: C_10  and  C_12
REMARK    7  A    between atoms: C_13  and  C_14
REMARK    8  A    between atoms: C_19  and  C_20
REMARK    9  A    between atoms: C_25  and  O_26
REMARK   10  A    between atoms: O_26  and  C_27
REMARK                            x       y       z     vdW  Elec       q    Type
REMARK                         _______ _______ _______ _____ _____    ______ ____
ROOT
ATOM      1  N   UNL     1       3.192   5.816  20.034  0.00  0.00    +0.000 N 
ATOM      2  C   UNL     1       1.949   5.733  20.618  0.00  0.00    +0.000 C 
ATOM      3  O   UNL     1       1.253   4.727  20.602  0.00  0.00    +0.000 OA
ATOM      4  H   UNL     1       3.690   6.693  20.004  0.00  0.00    +0.000 HD
ENDROOT
BRANCH   2   5
ATOM      5  C   UNL     1       1.497   6.998  21.261  0.00  0.00    +0.000 C 
ATOM      6  C   UNL     1       0.625   7.790  20.609  0.00  0.00    +0.000 C 
BRANCH   6   7
ATOM      7  C   UNL     1       0.153   9.072  21.143  0.00  0.00    +0.000 A 
ATOM      8  C   UNL     1      -0.308   9.072  22.471  0.00  0.00    +0.000 A 
ATOM      9  C   UNL     1      -0.747  10.246  23.083  0.00  0.00    +0.000 A 
ATOM     10  C   UNL     1      -0.725  11.443  22.379  0.00  0.00    +0.000 A 
ATOM     11  C   UNL     1      -0.274  11.458  21.060  0.00  0.00    +0.000 A 
ATOM     12  C   UNL     1       0.163  10.277  20.417  0.00  0.00    +0.000 A 
BRANCH  12  13
ATOM     13  C   UNL     1       0.598  10.399  18.975  0.00  0.00    +0.000 C 
ATOM     14  F   UNL     1       0.744  11.664  18.501  0.00  0.00    +0.000 F 
ATOM     15  F   UNL     1       1.806   9.794  18.766  0.00  0.00    +0.000 F 
ATOM     16  F   UNL     1      -0.267   9.783  18.119  0.00  0.00    +0.000 F 
ENDBRANCH  12  13
ENDBRANCH   6   7
ENDBRANCH   2   5
BRANCH   1  17
ATOM     17  C   UNL     1       3.738   4.654  19.330  0.00  0.00    +0.000 C 
BRANCH  17  18
ATOM     18  C   UNL     1       3.408   4.629  17.835  0.00  0.00    +0.000 C 
BRANCH  18  22
ATOM     19  C   UNL     1       6.905   5.092  15.305  0.00  0.00    +0.000 A 
ATOM     20  C   UNL     1       5.939   4.107  15.038  0.00  0.00    +0.000 A 
ATOM     21  C   UNL     1       4.805   3.963  15.838  0.00  0.00    +0.000 A 
ATOM     22  C   UNL     1       4.649   4.747  16.978  0.00  0.00    +0.000 A 
ATOM     23  C   UNL     1       5.658   5.665  17.298  0.00  0.00    +0.000 A 
ATOM     24  C   UNL     1       6.787   5.853  16.478  0.00  0.00    +0.000 A 
BRANCH  19  26
ATOM     25  C   UNL     1       7.620   5.110  13.054  0.00  0.00    +0.000 C 
ATOM     26  O   UNL     1       7.944   5.301  14.435  0.00  0.00    +0.000 OA
ENDBRANCH  19  26
BRANCH  24  27
ATOM     27  O   UNL     1       7.612   6.820  16.984  0.00  0.00    +0.000 OA
ATOM     28  C   UNL     1       7.845   6.900  18.379  0.00  0.00    +0.000 C 
ENDBRANCH  24  27
ENDBRANCH  18  22
ENDBRANCH  17  18
ENDBRANCH   1  17
TORSDOF 8
ENDMDL
