MODEL 1
REMARK VINA RESULT:      -8.7      0.000      0.000
REMARK  Name = 
REMARK  6 active torsions:
REMARK  status: ('A' for Active; 'I' for Inactive)
REMARK    1  A    between atoms: C_1  and  C_2
REMARK    2  A    between atoms: C_6  and  S_7
REMARK    3  A    between atoms: S_7  and  C_8
REMARK    4  A    between atoms: C_18  and  N_19
REMARK    5  A    between atoms: C_20  and  C_22
REMARK    6  A    between atoms: C_26  and  C_27
REMARK                            x       y       z     vdW  Elec       q    Type
REMARK                         _______ _______ _______ _____ _____    ______ ____
ROOT
ATOM      1  C   UNL     1       0.423  12.220  18.356  0.00  0.00    +0.000 C 
ATOM      2  C   UNL     1       0.638  10.920  19.076  0.00  0.00    +0.000 A 
ATOM      3  N   UNL     1       1.403  10.030  18.385  0.00  0.00    +0.000 NA
ATOM      4  C   UNL     1       1.684   8.838  18.917  0.00  0.00    +0.000 A 
ATOM      5  N   UNL     1       2.416   7.976  18.203  0.00  0.00    +0.000 NA
ATOM      6  C   UNL     1       2.689   6.771  18.756  0.00  0.00    +0.000 A 
ATOM      7  C   UNL     1       2.236   6.436  20.020  0.00  0.00    +0.000 A 
ATOM      8  N   UNL     1       1.494   7.282  20.765  0.00  0.00    +0.000 NA
ATOM      9  C   UNL     1       1.218   8.476  20.197  0.00  0.00    +0.000 A 
ATOM     10  C   UNL     1       0.439   9.397  20.880  0.00  0.00    +0.000 A 
ATOM     11  C   UNL     1       0.116  10.648  20.347  0.00  0.00    +0.000 A 
ENDROOT
BRANCH  11  12
ATOM     12  N   UNL     1      -0.711  11.586  21.044  0.00  0.00    +0.000 N 
ATOM     13  C   UNL     1      -0.904  11.614  22.422  0.00  0.00    +0.000 C 
ATOM     14  O   UNL     1      -0.339  10.898  23.240  0.00  0.00    +0.000 OA
ATOM     15  H   UNL     1      -1.148  12.315  20.495  0.00  0.00    +0.000 HD
BRANCH  13  16
ATOM     16  C   UNL     1      -1.867  12.598  22.986  0.00  0.00    +0.000 A 
ATOM     17  C   UNL     1      -1.325  13.711  23.651  0.00  0.00    +0.000 A 
ATOM     18  C   UNL     1      -2.144  14.601  24.341  0.00  0.00    +0.000 A 
ATOM     19  C   UNL     1      -3.517  14.375  24.389  0.00  0.00    +0.000 A 
ATOM     20  C   UNL     1      -4.081  13.259  23.747  0.00  0.00    +0.000 A 
ATOM     21  C   UNL     1      -3.248  12.379  23.022  0.00  0.00    +0.000 A 
BRANCH  20  22
ATOM     22  C   UNL     1      -5.558  12.967  23.879  0.00  0.00    +0.000 C 
ATOM     23  F   UNL     1      -6.126  12.483  22.740  0.00  0.00    +0.000 F 
ATOM     24  F   UNL     1      -5.816  12.049  24.849  0.00  0.00    +0.000 F 
ATOM     25  F   UNL     1      -6.273  14.077  24.213  0.00  0.00    +0.000 F 
ENDBRANCH  20  22
ENDBRANCH  13  16
ENDBRANCH  11  12
BRANCH   6  26
ATOM     26  S   UNL     1       3.563   5.586  17.765  0.00  0.00    +0.000 S 
BRANCH  26  27
ATOM     27  C   UNL     1       5.263   6.021  18.077  0.00  0.00    +0.000 A 
ATOM     28  C   UNL     1       5.942   5.381  19.120  0.00  0.00    +0.000 A 
ATOM     29  C   UNL     1       7.296   5.642  19.349  0.00  0.00    +0.000 A 
ATOM     30  C   UNL     1       7.979   6.542  18.535  0.00  0.00    +0.000 A 
ATOM     31  C   UNL     1       7.310   7.186  17.495  0.00  0.00    +0.000 A 
ATOM     32  C   UNL     1       5.957   6.924  17.265  0.00  0.00    +0.000 A 
ENDBRANCH  26  27
ENDBRANCH   6  26
TORSDOF 5
ENDMDL
MODEL 2
REMARK VINA RESULT:      -8.7      5.429      9.799
REMARK  Name = 
REMARK  6 active torsions:
REMARK  status: ('A' for Active; 'I' for Inactive)
REMARK    1  A    between atoms: C_1  and  C_2
REMARK    2  A    between atoms: C_6  and  S_7
REMARK    3  A    between atoms: S_7  and  C_8
REMARK    4  A    between atoms: C_18  and  N_19
REMARK    5  A    between atoms: C_20  and  C_22
REMARK    6  A    between atoms: C_26  and  C_27
REMARK                            x       y       z     vdW  Elec       q    Type
REMARK                         _______ _______ _______ _____ _____    ______ ____
ROOT
ATOM      1  C   UNL     1      -0.911   9.772  17.728  0.00  0.00    +0.000 C 
ATOM      2  C   UNL     1      -0.333  10.704  18.753  0.00  0.00    +0.000 A 
ATOM      3  N   UNL     1      -0.892  11.946  18.744  0.00  0.00    +0.000 NA
ATOM      4  C   UNL     1      -0.479  12.870  19.616  0.00  0.00    +0.000 A 
ATOM      5  N   UNL     1      -1.029  14.087  19.565  0.00  0.00    +0.000 NA
ATOM      6  C   UNL     1      -0.596  15.013  20.453  0.00  0.00    +0.000 A 
ATOM      7  C   UNL     1       0.377  14.715  21.390  0.00  0.00    +0.000 A 
ATOM      8  N   UNL     1       0.953  13.497  21.467  0.00  0.00    +0.000 NA
ATOM      9  C   UNL     1       0.522  12.587  20.567  0.00  0.00    +0.000 A 
ATOM     10  C   UNL     1       1.079  11.317  20.554  0.00  0.00    +0.000 A 
ATOM     11  C   UNL     1       0.678  10.331  19.649  0.00  0.00    +0.000 A 
ENDROOT
BRANCH  11  12
ATOM     12  N   UNL     1       1.274   9.030  19.622  0.00  0.00    +0.000 N 
ATOM     13  C   UNL     1       2.107   8.552  18.616  0.00  0.00    +0.000 C 
ATOM     14  O   UNL     1       2.515   9.194  17.655  0.00  0.00    +0.000 OA
ATOM     15  H   UNL     1       1.116   8.432  20.423  0.00  0.00    +0.000 HD
BRANCH  13  16
ATOM     16  C   UNL     1       2.576   7.141  18.690  0.00  0.00    +0.000 A 
ATOM     17  C   UNL     1       3.404   6.688  17.648  0.00  0.00    +0.000 A 
ATOM     18  C   UNL     1       3.763   5.347  17.553  0.00  0.00    +0.000 A 
ATOM     19  C   UNL     1       3.282   4.437  18.491  0.00  0.00    +0.000 A 
ATOM     20  C   UNL     1       2.440   4.863  19.533  0.00  0.00    +0.000 A 
ATOM     21  C   UNL     1       2.105   6.230  19.642  0.00  0.00    +0.000 A 
BRANCH  20  22
ATOM     22  C   UNL     1       1.846   3.859  20.493  0.00  0.00    +0.000 C 
ATOM     23  F   UNL     1       0.495   3.965  20.631  0.00  0.00    +0.000 F 
ATOM     24  F   UNL     1       2.087   2.576  20.111  0.00  0.00    +0.000 F 
ATOM     25  F   UNL     1       2.361   3.981  21.747  0.00  0.00    +0.000 F 
ENDBRANCH  20  22
ENDBRANCH  13  16
ENDBRANCH  11  12
BRANCH   6  26
ATOM     26  S   UNL     1      -1.244  16.659  20.313  0.00  0.00    +0.000 S 
BRANCH  26  27
ATOM     27  C   UNL     1      -0.396  17.272  18.871  0.00  0.00    +0.000 A 
ATOM     28  C   UNL     1      -1.100  18.072  17.963  0.00  0.00    +0.000 A 
ATOM     29  C   UNL     1      -0.451  18.631  16.859  0.00  0.00    +0.000 A 
ATOM     30  C   UNL     1       0.907  18.397  16.658  0.00  0.00    +0.000 A 
ATOM     31  C   UNL     1       1.616  17.601  17.555  0.00  0.00    +0.000 A 
ATOM     32  C   UNL     1       0.968  17.042  18.660  0.00  0.00    +0.000 A 
ENDBRANCH  26  27
ENDBRANCH   6  26
TORSDOF 5
ENDMDL
MODEL 3
REMARK VINA RESULT:      -8.7      5.526      9.801
REMARK  Name = 
REMARK  6 active torsions:
REMARK  status: ('A' for Active; 'I' for Inactive)
REMARK    1  A    between atoms: C_1  and  C_2
REMARK    2  A    between atoms: C_6  and  S_7
REMARK    3  A    between atoms: S_7  and  C_8
REMARK    4  A    between atoms: C_18  and  N_19
REMARK    5  A    between atoms: C_20  and  C_22
REMARK    6  A    between atoms: C_26  and  C_27
REMARK                            x       y       z     vdW  Elec       q    Type
REMARK                         _______ _______ _______ _____ _____    ______ ____
ROOT
ATOM      1  C   UNL     1      -1.080   9.936  17.681  0.00  0.00    +0.000 C 
ATOM      2  C   UNL     1      -0.333  10.787  18.667  0.00  0.00    +0.000 A 
ATOM      3  N   UNL     1      -0.841  12.044  18.802  0.00  0.00    +0.000 NA
ATOM      4  C   UNL     1      -0.279  12.902  19.658  0.00  0.00    +0.000 A 
ATOM      5  N   UNL     1      -0.784  14.136  19.749  0.00  0.00    +0.000 NA
ATOM      6  C   UNL     1      -0.200  14.994  20.619  0.00  0.00    +0.000 A 
ATOM      7  C   UNL     1       0.878  14.612  21.397  0.00  0.00    +0.000 A 
ATOM      8  N   UNL     1       1.412  13.374  21.328  0.00  0.00    +0.000 NA
ATOM      9  C   UNL     1       0.829  12.532  20.447  0.00  0.00    +0.000 A 
ATOM     10  C   UNL     1       1.330  11.250  20.289  0.00  0.00    +0.000 A 
ATOM     11  C   UNL     1       0.774  10.331  19.394  0.00  0.00    +0.000 A 
ENDROOT
BRANCH  11  12
ATOM     12  N   UNL     1       1.310   9.016  19.215  0.00  0.00    +0.000 N 
ATOM     13  C   UNL     1       1.504   8.086  20.231  0.00  0.00    +0.000 C 
ATOM     14  O   UNL     1       1.174   8.224  21.403  0.00  0.00    +0.000 OA
ATOM     15  H   UNL     1       1.515   8.725  18.268  0.00  0.00    +0.000 HD
BRANCH  13  16
ATOM     16  C   UNL     1       2.155   6.790  19.896  0.00  0.00    +0.000 A 
ATOM     17  C   UNL     1       2.941   6.754  18.731  0.00  0.00    +0.000 A 
ATOM     18  C   UNL     1       3.461   5.552  18.258  0.00  0.00    +0.000 A 
ATOM     19  C   UNL     1       3.185   4.368  18.936  0.00  0.00    +0.000 A 
ATOM     20  C   UNL     1       2.388   4.377  20.094  0.00  0.00    +0.000 A 
ATOM     21  C   UNL     1       1.890   5.603  20.587  0.00  0.00    +0.000 A 
BRANCH  20  22
ATOM     22  C   UNL     1       2.014   3.080  20.773  0.00  0.00    +0.000 C 
ATOM     23  F   UNL     1       0.924   3.180  21.584  0.00  0.00    +0.000 F 
ATOM     24  F   UNL     1       1.731   2.094  19.880  0.00  0.00    +0.000 F 
ATOM     25  F   UNL     1       3.020   2.601  21.555  0.00  0.00    +0.000 F 
ENDBRANCH  20  22
ENDBRANCH  13  16
ENDBRANCH  11  12
BRANCH   6  26
ATOM     26  S   UNL     1      -0.798  16.665  20.659  0.00  0.00    +0.000 S 
BRANCH  26  27
ATOM     27  C   UNL     1      -0.255  17.293  19.083  0.00  0.00    +0.000 A 
ATOM     28  C   UNL     1      -1.160  18.012  18.294  0.00  0.00    +0.000 A 
ATOM     29  C   UNL     1      -0.750  18.582  17.087  0.00  0.00    +0.000 A 
ATOM     30  C   UNL     1       0.568  18.440  16.660  0.00  0.00    +0.000 A 
ATOM     31  C   UNL     1       1.476  17.724  17.438  0.00  0.00    +0.000 A 
ATOM     32  C   UNL     1       1.068  17.154  18.647  0.00  0.00    +0.000 A 
ENDBRANCH  26  27
ENDBRANCH   6  26
TORSDOF 5
ENDMDL
MODEL 4
REMARK VINA RESULT:      -8.6      2.074      3.150
REMARK  Name = 
REMARK  6 active torsions:
REMARK  status: ('A' for Active; 'I' for Inactive)
REMARK    1  A    between atoms: C_1  and  C_2
REMARK    2  A    between atoms: C_6  and  S_7
REMARK    3  A    between atoms: S_7  and  C_8
REMARK    4  A    between atoms: C_18  and  N_19
REMARK    5  A    between atoms: C_20  and  C_22
REMARK    6  A    between atoms: C_26  and  C_27
REMARK                            x       y       z     vdW  Elec       q    Type
REMARK                         _______ _______ _______ _____ _____    ______ ____
ROOT
ATOM      1  C   UNL     1      -0.195   9.378  23.544  0.00  0.00    +0.000 C 
ATOM      2  C   UNL     1       0.107   9.566  22.086  0.00  0.00    +0.000 A 
ATOM      3  N   UNL     1       0.930   8.612  21.569  0.00  0.00    +0.000 NA
ATOM      4  C   UNL     1       1.269   8.652  20.277  0.00  0.00    +0.000 A 
ATOM      5  N   UNL     1       2.099   7.717  19.805  0.00  0.00    +0.000 NA
ATOM      6  C   UNL     1       2.435   7.775  18.495  0.00  0.00    +0.000 A 
ATOM      7  C   UNL     1       1.935   8.761  17.663  0.00  0.00    +0.000 A 
ATOM      8  N   UNL     1       1.097   9.720  18.109  0.00  0.00    +0.000 NA
ATOM      9  C   UNL     1       0.780   9.659  19.421  0.00  0.00    +0.000 A 
ATOM     10  C   UNL     1      -0.053  10.621  19.971  0.00  0.00    +0.000 A 
ATOM     11  C   UNL     1      -0.418  10.615  21.320  0.00  0.00    +0.000 A 
ENDROOT
BRANCH  11  12
ATOM     12  N   UNL     1      -1.257  11.624  21.890  0.00  0.00    +0.000 N 
ATOM     13  C   UNL     1      -0.810  12.826  22.431  0.00  0.00    +0.000 C 
ATOM     14  O   UNL     1       0.348  13.228  22.427  0.00  0.00    +0.000 OA
ATOM     15  H   UNL     1      -2.257  11.473  21.849  0.00  0.00    +0.000 HD
BRANCH  13  16
ATOM     16  C   UNL     1      -1.803  13.734  23.067  0.00  0.00    +0.000 A 
ATOM     17  C   UNL     1      -1.309  14.678  23.982  0.00  0.00    +0.000 A 
ATOM     18  C   UNL     1      -2.176  15.463  24.738  0.00  0.00    +0.000 A 
ATOM     19  C   UNL     1      -3.551  15.298  24.598  0.00  0.00    +0.000 A 
ATOM     20  C   UNL     1      -4.070  14.348  23.701  0.00  0.00    +0.000 A 
ATOM     21  C   UNL     1      -3.185  13.579  22.914  0.00  0.00    +0.000 A 
BRANCH  20  22
ATOM     22  C   UNL     1      -5.559  14.107  23.620  0.00  0.00    +0.000 C 
ATOM     23  F   UNL     1      -5.972  12.996  24.292  0.00  0.00    +0.000 F 
ATOM     24  F   UNL     1      -6.277  15.145  24.129  0.00  0.00    +0.000 F 
ATOM     25  F   UNL     1      -5.985  13.950  22.337  0.00  0.00    +0.000 F 
ENDBRANCH  20  22
ENDBRANCH  13  16
ENDBRANCH  11  12
BRANCH   6  26
ATOM     26  S   UNL     1       3.624   6.601  17.894  0.00  0.00    +0.000 S 
BRANCH  26  27
ATOM     27  C   UNL     1       2.973   5.062  18.512  0.00  0.00    +0.000 A 
ATOM     28  C   UNL     1       1.808   4.543  17.937  0.00  0.00    +0.000 A 
ATOM     29  C   UNL     1       1.308   3.303  18.345  0.00  0.00    +0.000 A 
ATOM     30  C   UNL     1       1.972   2.574  19.327  0.00  0.00    +0.000 A 
ATOM     31  C   UNL     1       3.133   3.083  19.907  0.00  0.00    +0.000 A 
ATOM     32  C   UNL     1       3.634   4.322  19.499  0.00  0.00    +0.000 A 
ENDBRANCH  26  27
ENDBRANCH   6  26
TORSDOF 5
ENDMDL
MODEL 5
REMARK VINA RESULT:      -8.6      2.511      3.738
REMARK  Name = 
REMARK  6 active torsions:
REMARK  status: ('A' for Active; 'I' for Inactive)
REMARK    1  A    between atoms: C_1  and  C_2
REMARK    2  A    between atoms: C_6  and  S_7
REMARK    3  A    between atoms: S_7  and  C_8
REMARK    4  A    between atoms: C_18  and  N_19
REMARK    5  A    between atoms: C_20  and  C_22
REMARK    6  A    between atoms: C_26  and  C_27
REMARK                            x       y       z     vdW  Elec       q    Type
REMARK                         _______ _______ _______ _____ _____    ______ ____
ROOT
ATOM      1  C   UNL     1      -0.127   9.452  23.155  0.00  0.00    +0.000 C 
ATOM      2  C   UNL     1       0.357   9.512  21.735  0.00  0.00    +0.000 A 
ATOM      3  N   UNL     1       1.061   8.412  21.349  0.00  0.00    +0.000 NA
ATOM      4  C   UNL     1       1.539   8.329  20.104  0.00  0.00    +0.000 A 
ATOM      5  N   UNL     1       2.248   7.249  19.763  0.00  0.00    +0.000 NA
ATOM      6  C   UNL     1       2.728   7.183  18.498  0.00  0.00    +0.000 A 
ATOM      7  C   UNL     1       2.490   8.191  17.581  0.00  0.00    +0.000 A 
ATOM      8  N   UNL     1       1.780   9.294  17.895  0.00  0.00    +0.000 NA
ATOM      9  C   UNL     1       1.317   9.354  19.163  0.00  0.00    +0.000 A 
ATOM     10  C   UNL     1       0.601  10.465  19.580  0.00  0.00    +0.000 A 
ATOM     11  C   UNL     1       0.098  10.589  20.879  0.00  0.00    +0.000 A 
ENDROOT
BRANCH  11  12
ATOM     12  N   UNL     1      -0.619  11.749  21.313  0.00  0.00    +0.000 N 
ATOM     13  C   UNL     1      -0.037  12.957  21.686  0.00  0.00    +0.000 C 
ATOM     14  O   UNL     1       1.155  13.229  21.621  0.00  0.00    +0.000 OA
ATOM     15  H   UNL     1      -1.630  11.701  21.299  0.00  0.00    +0.000 HD
BRANCH  13  16
ATOM     16  C   UNL     1      -0.916  14.042  22.200  0.00  0.00    +0.000 A 
ATOM     17  C   UNL     1      -0.944  15.241  21.469  0.00  0.00    +0.000 A 
ATOM     18  C   UNL     1      -1.615  16.360  21.956  0.00  0.00    +0.000 A 
ATOM     19  C   UNL     1      -2.251  16.297  23.193  0.00  0.00    +0.000 A 
ATOM     20  C   UNL     1      -2.223  15.113  23.951  0.00  0.00    +0.000 A 
ATOM     21  C   UNL     1      -1.568  13.973  23.437  0.00  0.00    +0.000 A 
BRANCH  20  22
ATOM     22  C   UNL     1      -2.834  15.077  25.333  0.00  0.00    +0.000 C 
ATOM     23  F   UNL     1      -1.921  15.174  26.339  0.00  0.00    +0.000 F 
ATOM     24  F   UNL     1      -3.722  16.089  25.529  0.00  0.00    +0.000 F 
ATOM     25  F   UNL     1      -3.521  13.924  25.560  0.00  0.00    +0.000 F 
ENDBRANCH  20  22
ENDBRANCH  13  16
ENDBRANCH  11  12
BRANCH   6  26
ATOM     26  S   UNL     1       3.764   5.804  18.078  0.00  0.00    +0.000 S 
BRANCH  26  27
ATOM     27  C   UNL     1       2.861   4.434  18.774  0.00  0.00    +0.000 A 
ATOM     28  C   UNL     1       1.784   3.901  18.056  0.00  0.00    +0.000 A 
ATOM     29  C   UNL     1       1.099   2.782  18.534  0.00  0.00    +0.000 A 
ATOM     30  C   UNL     1       1.486   2.186  19.732  0.00  0.00    +0.000 A 
ATOM     31  C   UNL     1       2.556   2.711  20.455  0.00  0.00    +0.000 A 
ATOM     32  C   UNL     1       3.244   3.830  19.977  0.00  0.00    +0.000 A 
ENDBRANCH  26  27
ENDBRANCH   6  26
TORSDOF 5
ENDMDL
MODEL 6
REMARK VINA RESULT:      -8.6      0.666      1.292
REMARK  Name = 
REMARK  6 active torsions:
REMARK  status: ('A' for Active; 'I' for Inactive)
REMARK    1  A    between atoms: C_1  and  C_2
REMARK    2  A    between atoms: C_6  and  S_7
REMARK    3  A    between atoms: S_7  and  C_8
REMARK    4  A    between atoms: C_18  and  N_19
REMARK    5  A    between atoms: C_20  and  C_22
REMARK    6  A    between atoms: C_26  and  C_27
REMARK                            x       y       z     vdW  Elec       q    Type
REMARK                         _______ _______ _______ _____ _____    ______ ____
ROOT
ATOM      1  C   UNL     1      -0.249  11.777  18.286  0.00  0.00    +0.000 C 
ATOM      2  C   UNL     1       0.249  10.575  19.035  0.00  0.00    +0.000 A 
ATOM      3  N   UNL     1       1.015   9.738  18.281  0.00  0.00    +0.000 NA
ATOM      4  C   UNL     1       1.534   8.635  18.827  0.00  0.00    +0.000 A 
ATOM      5  N   UNL     1       2.260   7.820  18.055  0.00  0.00    +0.000 NA
ATOM      6  C   UNL     1       2.776   6.706  18.624  0.00  0.00    +0.000 A 
ATOM      7  C   UNL     1       2.572   6.416  19.962  0.00  0.00    +0.000 A 
ATOM      8  N   UNL     1       1.843   7.216  20.767  0.00  0.00    +0.000 NA
ATOM      9  C   UNL     1       1.323   8.319  20.184  0.00  0.00    +0.000 A 
ATOM     10  C   UNL     1       0.537   9.183  20.930  0.00  0.00    +0.000 A 
ATOM     11  C   UNL     1      -0.031  10.339  20.387  0.00  0.00    +0.000 A 
ENDROOT
BRANCH  11  12
ATOM     12  N   UNL     1      -0.863  11.216  21.154  0.00  0.00    +0.000 N 
ATOM     13  C   UNL     1      -0.423  12.354  21.823  0.00  0.00    +0.000 C 
ATOM     14  O   UNL     1       0.712  12.812  21.790  0.00  0.00    +0.000 OA
ATOM     15  H   UNL     1      -1.855  11.019  21.166  0.00  0.00    +0.000 HD
BRANCH  13  16
ATOM     16  C   UNL     1      -1.399  13.113  22.652  0.00  0.00    +0.000 A 
ATOM     17  C   UNL     1      -0.883  14.131  23.472  0.00  0.00    +0.000 A 
ATOM     18  C   UNL     1      -1.695  14.789  24.391  0.00  0.00    +0.000 A 
ATOM     19  C   UNL     1      -3.032  14.421  24.515  0.00  0.00    +0.000 A 
ATOM     20  C   UNL     1      -3.567  13.395  23.718  0.00  0.00    +0.000 A 
ATOM     21  C   UNL     1      -2.746  12.754  22.764  0.00  0.00    +0.000 A 
BRANCH  20  22
ATOM     22  C   UNL     1      -4.993  12.936  23.920  0.00  0.00    +0.000 C 
ATOM     23  F   UNL     1      -5.144  12.050  24.944  0.00  0.00    +0.000 F 
ATOM     24  F   UNL     1      -5.834  13.971  24.188  0.00  0.00    +0.000 F 
ATOM     25  F   UNL     1      -5.496  12.320  22.815  0.00  0.00    +0.000 F 
ENDBRANCH  20  22
ENDBRANCH  13  16
ENDBRANCH  11  12
BRANCH   6  26
ATOM     26  S   UNL     1       3.644   5.567  17.574  0.00  0.00    +0.000 S 
BRANCH  26  27
ATOM     27  C   UNL     1       5.346   5.938  17.949  0.00  0.00    +0.000 A 
ATOM     28  C   UNL     1       6.005   6.916  17.197  0.00  0.00    +0.000 A 
ATOM     29  C   UNL     1       7.316   7.285  17.508  0.00  0.00    +0.000 A 
ATOM     30  C   UNL     1       7.976   6.681  18.575  0.00  0.00    +0.000 A 
ATOM     31  C   UNL     1       7.328   5.703  19.329  0.00  0.00    +0.000 A 
ATOM     32  C   UNL     1       6.016   5.335  19.019  0.00  0.00    +0.000 A 
ENDBRANCH  26  27
ENDBRANCH   6  26
TORSDOF 5
ENDMDL
MODEL 7
REMARK VINA RESULT:      -8.6      5.434      9.961
REMARK  Name = 
REMARK  6 active torsions:
REMARK  status: ('A' for Active; 'I' for Inactive)
REMARK    1  A    between atoms: C_1  and  C_2
REMARK    2  A    between atoms: C_6  and  S_7
REMARK    3  A    between atoms: S_7  and  C_8
REMARK    4  A    between atoms: C_18  and  N_19
REMARK    5  A    between atoms: C_20  and  C_22
REMARK    6  A    between atoms: C_26  and  C_27
REMARK                            x       y       z     vdW  Elec       q    Type
REMARK                         _______ _______ _______ _____ _____    ______ ____
ROOT
ATOM      1  C   UNL     1       1.636   9.248  22.487  0.00  0.00    +0.000 C 
ATOM      2  C   UNL     1       1.191   9.992  21.261  0.00  0.00    +0.000 A 
ATOM      3  N   UNL     1       0.807  11.275  21.508  0.00  0.00    +0.000 NA
ATOM      4  C   UNL     1       0.400  12.054  20.502  0.00  0.00    +0.000 A 
ATOM      5  N   UNL     1       0.005  13.301  20.779  0.00  0.00    +0.000 NA
ATOM      6  C   UNL     1      -0.407  14.076  19.748  0.00  0.00    +0.000 A 
ATOM      7  C   UNL     1      -0.415  13.605  18.447  0.00  0.00    +0.000 A 
ATOM      8  N   UNL     1      -0.024  12.352  18.135  0.00  0.00    +0.000 NA
ATOM      9  C   UNL     1       0.373  11.584  19.173  0.00  0.00    +0.000 A 
ATOM     10  C   UNL     1       0.765  10.274  18.948  0.00  0.00    +0.000 A 
ATOM     11  C   UNL     1       1.185   9.428  19.979  0.00  0.00    +0.000 A 
ENDROOT
BRANCH  11  12
ATOM     12  N   UNL     1       1.564   8.068  19.746  0.00  0.00    +0.000 N 
ATOM     13  C   UNL     1       2.405   7.635  18.726  0.00  0.00    +0.000 C 
ATOM     14  O   UNL     1       3.002   8.355  17.934  0.00  0.00    +0.000 OA
ATOM     15  H   UNL     1       1.235   7.376  20.406  0.00  0.00    +0.000 HD
BRANCH  13  16
ATOM     16  C   UNL     1       2.633   6.173  18.562  0.00  0.00    +0.000 A 
ATOM     17  C   UNL     1       3.580   5.779  17.602  0.00  0.00    +0.000 A 
ATOM     18  C   UNL     1       3.747   4.436  17.273  0.00  0.00    +0.000 A 
ATOM     19  C   UNL     1       2.953   3.473  17.889  0.00  0.00    +0.000 A 
ATOM     20  C   UNL     1       1.988   3.844  18.841  0.00  0.00    +0.000 A 
ATOM     21  C   UNL     1       1.846   5.204  19.194  0.00  0.00    +0.000 A 
BRANCH  20  22
ATOM     22  C   UNL     1       1.066   2.807  19.439  0.00  0.00    +0.000 C 
ATOM     23  F   UNL     1       1.719   1.797  20.079  0.00  0.00    +0.000 F 
ATOM     24  F   UNL     1       0.211   3.342  20.350  0.00  0.00    +0.000 F 
ATOM     25  F   UNL     1       0.286   2.209  18.496  0.00  0.00    +0.000 F 
ENDBRANCH  20  22
ENDBRANCH  13  16
ENDBRANCH  11  12
BRANCH   6  26
ATOM     26  S   UNL     1      -1.038  15.691  20.129  0.00  0.00    +0.000 S 
BRANCH  26  27
ATOM     27  C   UNL     1      -0.279  16.694  18.868  0.00  0.00    +0.000 A 
ATOM     28  C   UNL     1      -1.082  17.572  18.130  0.00  0.00    +0.000 A 
ATOM     29  C   UNL     1      -0.512  18.427  17.183  0.00  0.00    +0.000 A 
ATOM     30  C   UNL     1       0.864  18.413  16.970  0.00  0.00    +0.000 A 
ATOM     31  C   UNL     1       1.671  17.541  17.698  0.00  0.00    +0.000 A 
ATOM     32  C   UNL     1       1.103  16.686  18.646  0.00  0.00    +0.000 A 
ENDBRANCH  26  27
ENDBRANCH   6  26
TORSDOF 5
ENDMDL
MODEL 8
REMARK VINA RESULT:      -8.6      0.483      1.192
REMARK  Name = 
REMARK  6 active torsions:
REMARK  status: ('A' for Active; 'I' for Inactive)
REMARK    1  A    between atoms: C_1  and  C_2
REMARK    2  A    between atoms: C_6  and  S_7
REMARK    3  A    between atoms: S_7  and  C_8
REMARK    4  A    between atoms: C_18  and  N_19
REMARK    5  A    between atoms: C_20  and  C_22
REMARK    6  A    between atoms: C_26  and  C_27
REMARK                            x       y       z     vdW  Elec       q    Type
REMARK                         _______ _______ _______ _____ _____    ______ ____
ROOT
ATOM      1  C   UNL     1       1.142  11.861  18.514  0.00  0.00    +0.000 C 
ATOM      2  C   UNL     1       1.125  10.535  19.218  0.00  0.00    +0.000 A 
ATOM      3  N   UNL     1       1.886   9.582  18.612  0.00  0.00    +0.000 NA
ATOM      4  C   UNL     1       1.970   8.359  19.142  0.00  0.00    +0.000 A 
ATOM      5  N   UNL     1       2.704   7.437  18.510  0.00  0.00    +0.000 NA
ATOM      6  C   UNL     1       2.775   6.202  19.059  0.00  0.00    +0.000 A 
ATOM      7  C   UNL     1       2.121   5.897  20.239  0.00  0.00    +0.000 A 
ATOM      8  N   UNL     1       1.371   6.803  20.901  0.00  0.00    +0.000 NA
ATOM      9  C   UNL     1       1.297   8.028  20.336  0.00  0.00    +0.000 A 
ATOM     10  C   UNL     1       0.526   9.013  20.932  0.00  0.00    +0.000 A 
ATOM     11  C   UNL     1       0.406  10.299  20.398  0.00  0.00    +0.000 A 
ENDROOT
BRANCH  11  12
ATOM     12  N   UNL     1      -0.411  11.306  21.002  0.00  0.00    +0.000 N 
ATOM     13  C   UNL     1      -0.671  11.415  22.365  0.00  0.00    +0.000 C 
ATOM     14  O   UNL     1      -0.180  10.720  23.247  0.00  0.00    +0.000 OA
ATOM     15  H   UNL     1      -0.786  12.024  20.395  0.00  0.00    +0.000 HD
BRANCH  13  16
ATOM     16  C   UNL     1      -1.616  12.467  22.828  0.00  0.00    +0.000 A 
ATOM     17  C   UNL     1      -1.055  13.672  23.286  0.00  0.00    +0.000 A 
ATOM     18  C   UNL     1      -1.848  14.650  23.879  0.00  0.00    +0.000 A 
ATOM     19  C   UNL     1      -3.213  14.425  24.038  0.00  0.00    +0.000 A 
ATOM     20  C   UNL     1      -3.795  13.222  23.604  0.00  0.00    +0.000 A 
ATOM     21  C   UNL     1      -2.990  12.248  22.974  0.00  0.00    +0.000 A 
BRANCH  20  22
ATOM     22  C   UNL     1      -5.257  12.944  23.863  0.00  0.00    +0.000 C 
ATOM     23  F   UNL     1      -5.967  14.045  24.237  0.00  0.00    +0.000 F 
ATOM     24  F   UNL     1      -5.888  12.442  22.767  0.00  0.00    +0.000 F 
ATOM     25  F   UNL     1      -5.438  12.028  24.853  0.00  0.00    +0.000 F 
ENDBRANCH  20  22
ENDBRANCH  13  16
ENDBRANCH  11  12
BRANCH   6  26
ATOM     26  S   UNL     1       3.656   4.949  18.163  0.00  0.00    +0.000 S 
BRANCH  26  27
ATOM     27  C   UNL     1       5.327   5.567  18.202  0.00  0.00    +0.000 A 
ATOM     28  C   UNL     1       5.724   6.498  17.236  0.00  0.00    +0.000 A 
ATOM     29  C   UNL     1       7.003   7.060  17.277  0.00  0.00    +0.000 A 
ATOM     30  C   UNL     1       7.891   6.698  18.286  0.00  0.00    +0.000 A 
ATOM     31  C   UNL     1       7.505   5.770  19.252  0.00  0.00    +0.000 A 
ATOM     32  C   UNL     1       6.226   5.208  19.212  0.00  0.00    +0.000 A 
ENDBRANCH  26  27
ENDBRANCH   6  26
TORSDOF 5
ENDMDL
MODEL 9
REMARK VINA RESULT:      -8.5      1.702      2.254
REMARK  Name = 
REMARK  6 active torsions:
REMARK  status: ('A' for Active; 'I' for Inactive)
REMARK    1  A    between atoms: C_1  and  C_2
REMARK    2  A    between atoms: C_6  and  S_7
REMARK    3  A    between atoms: S_7  and  C_8
REMARK    4  A    between atoms: C_18  and  N_19
REMARK    5  A    between atoms: C_20  and  C_22
REMARK    6  A    between atoms: C_26  and  C_27
REMARK                            x       y       z     vdW  Elec       q    Type
REMARK                         _______ _______ _______ _____ _____    ______ ____
ROOT
ATOM      1  C   UNL     1       1.870  10.354  17.975  0.00  0.00    +0.000 C 
ATOM      2  C   UNL     1       1.772   9.155  18.875  0.00  0.00    +0.000 A 
ATOM      3  N   UNL     1       2.442   8.064  18.409  0.00  0.00    +0.000 NA
ATOM      4  C   UNL     1       2.448   6.933  19.119  0.00  0.00    +0.000 A 
ATOM      5  N   UNL     1       3.092   5.871  18.624  0.00  0.00    +0.000 NA
ATOM      6  C   UNL     1       3.085   4.732  19.355  0.00  0.00    +0.000 A 
ATOM      7  C   UNL     1       2.443   4.661  20.578  0.00  0.00    +0.000 A 
ATOM      8  N   UNL     1       1.783   5.714  21.105  0.00  0.00    +0.000 NA
ATOM      9  C   UNL     1       1.786   6.841  20.360  0.00  0.00    +0.000 A 
ATOM     10  C   UNL     1       1.109   7.963  20.811  0.00  0.00    +0.000 A 
ATOM     11  C   UNL     1       1.072   9.159  20.088  0.00  0.00    +0.000 A 
ENDROOT
BRANCH  11  12
ATOM     12  N   UNL     1       0.350  10.307  20.544  0.00  0.00    +0.000 N 
ATOM     13  C   UNL     1       0.187  10.672  21.877  0.00  0.00    +0.000 C 
ATOM     14  O   UNL     1       0.697  10.115  22.842  0.00  0.00    +0.000 OA
ATOM     15  H   UNL     1      -0.026  10.928  19.839  0.00  0.00    +0.000 HD
BRANCH  13  16
ATOM     16  C   UNL     1      -0.669  11.848  22.193  0.00  0.00    +0.000 A 
ATOM     17  C   UNL     1      -0.130  13.119  21.928  0.00  0.00    +0.000 A 
ATOM     18  C   UNL     1      -0.792  14.274  22.333  0.00  0.00    +0.000 A 
ATOM     19  C   UNL     1      -1.995  14.171  23.025  0.00  0.00    +0.000 A 
ATOM     20  C   UNL     1      -2.546  12.911  23.317  0.00  0.00    +0.000 A 
ATOM     21  C   UNL     1      -1.886  11.744  22.876  0.00  0.00    +0.000 A 
BRANCH  20  22
ATOM     22  C   UNL     1      -3.803  12.802  24.149  0.00  0.00    +0.000 C 
ATOM     23  F   UNL     1      -3.842  13.667  25.201  0.00  0.00    +0.000 F 
ATOM     24  F   UNL     1      -4.926  13.043  23.420  0.00  0.00    +0.000 F 
ATOM     25  F   UNL     1      -3.960  11.558  24.680  0.00  0.00    +0.000 F 
ENDBRANCH  20  22
ENDBRANCH  13  16
ENDBRANCH  11  12
BRANCH   6  26
ATOM     26  S   UNL     1       3.843   3.291  18.647  0.00  0.00    +0.000 S 
BRANCH  26  27
ATOM     27  C   UNL     1       5.048   4.007  17.546  0.00  0.00    +0.000 A 
ATOM     28  C   UNL     1       6.266   4.449  18.074  0.00  0.00    +0.000 A 
ATOM     29  C   UNL     1       7.264   4.948  17.234  0.00  0.00    +0.000 A 
ATOM     30  C   UNL     1       7.051   5.006  15.859  0.00  0.00    +0.000 A 
ATOM     31  C   UNL     1       5.840   4.571  15.323  0.00  0.00    +0.000 A 
ATOM     32  C   UNL     1       4.842   4.069  16.163  0.00  0.00    +0.000 A 
ENDBRANCH  26  27
ENDBRANCH   6  26
TORSDOF 5
ENDMDL
