MODEL 1
REMARK VINA RESULT:      -7.5      0.000      0.000
REMARK  Name = 
REMARK  6 active torsions:
REMARK  status: ('A' for Active; 'I' for Inactive)
REMARK    1  A    between atoms: C_1  and  C_2
REMARK    2  A    between atoms: C_4  and  O_5
REMARK    3  A    between atoms: C_7  and  C_8
REMARK    4  A    between atoms: C_8  and  C_10
REMARK    5  A    between atoms: C_13  and  N_14
REMARK    6  A    between atoms: C_18  and  C_19
REMARK                            x       y       z     vdW  Elec       q    Type
REMARK                         _______ _______ _______ _____ _____    ______ ____
ROOT
ATOM      1  C   UNL     1       2.413   7.176  19.381  0.00  0.00    +0.000 A 
ATOM      2  C   UNL     1       1.710   7.763  20.437  0.00  0.00    +0.000 A 
ATOM      3  C   UNL     1       1.047   8.987  20.250  0.00  0.00    +0.000 A 
ATOM      4  C   UNL     1       1.054   9.610  18.991  0.00  0.00    +0.000 A 
ATOM      5  C   UNL     1       1.738   9.004  17.933  0.00  0.00    +0.000 A 
ATOM      6  C   UNL     1       2.403   7.793  18.124  0.00  0.00    +0.000 A 
ENDROOT
BRANCH   4   7
ATOM      7  N   UNL     1       0.416  10.869  18.812  0.00  0.00    +0.000 N 
ATOM      8  C   UNL     1       0.987  12.094  19.087  0.00  0.00    +0.000 A 
ATOM      9  C   UNL     1       0.080  13.041  18.682  0.00  0.00    +0.000 A 
ATOM     10  N   UNL     1      -1.057  12.449  18.218  0.00  0.00    +0.000 NA
ATOM     11  C   UNL     1      -0.863  11.147  18.333  0.00  0.00    +0.000 A 
ATOM     12  C   UNL     1      -1.939  10.140  18.125  0.00  0.00    +0.000 C 
ENDBRANCH   4   7
BRANCH   1  13
ATOM     13  C   UNL     1       3.153   5.898  19.602  0.00  0.00    +0.000 C 
ATOM     14  O   UNL     1       4.376   5.880  19.462  0.00  0.00    +0.000 OA
BRANCH  13  20
ATOM     15  C   UNL     1       1.339   3.927  17.696  0.00  0.00    +0.000 C 
ATOM     16  C   UNL     1       1.608   3.904  19.151  0.00  0.00    +0.000 A 
ATOM     17  N   UNL     1       1.084   2.940  19.982  0.00  0.00    +0.000 N 
ATOM     18  C   UNL     1       1.549   3.184  21.242  0.00  0.00    +0.000 A 
ATOM     19  N   UNL     1       2.319   4.235  21.278  0.00  0.00    +0.000 NA
ATOM     20  C   UNL     1       2.377   4.713  19.978  0.00  0.00    +0.000 A 
ATOM     21  H   UNL     1       0.480   2.181  19.703  0.00  0.00    +0.000 HD
BRANCH  18  22
ATOM     22  O   UNL     1       1.280   2.452  22.306  0.00  0.00    +0.000 OA
ATOM     23  H   UNL     1       1.258   1.514  22.050  0.00  0.00    +0.000 HD
ENDBRANCH  18  22
ENDBRANCH  13  20
ENDBRANCH   1  13
TORSDOF 4
ENDMDL
MODEL 2
REMARK VINA RESULT:      -7.5      0.214      1.076
REMARK  Name = 
REMARK  6 active torsions:
REMARK  status: ('A' for Active; 'I' for Inactive)
REMARK    1  A    between atoms: C_1  and  C_2
REMARK    2  A    between atoms: C_4  and  O_5
REMARK    3  A    between atoms: C_7  and  C_8
REMARK    4  A    between atoms: C_8  and  C_10
REMARK    5  A    between atoms: C_13  and  N_14
REMARK    6  A    between atoms: C_18  and  C_19
REMARK                            x       y       z     vdW  Elec       q    Type
REMARK                         _______ _______ _______ _____ _____    ______ ____
ROOT
ATOM      1  C   UNL     1       2.413   7.253  19.365  0.00  0.00    +0.000 A 
ATOM      2  C   UNL     1       2.412   7.886  18.119  0.00  0.00    +0.000 A 
ATOM      3  C   UNL     1       1.686   9.073  17.931  0.00  0.00    +0.000 A 
ATOM      4  C   UNL     1       0.986   9.652  19.003  0.00  0.00    +0.000 A 
ATOM      5  C   UNL     1       1.013   9.026  20.253  0.00  0.00    +0.000 A 
ATOM      6  C   UNL     1       1.728   7.843  20.434  0.00  0.00    +0.000 A 
ENDROOT
BRANCH   4   7
ATOM      7  N   UNL     1       0.219  10.833  18.803  0.00  0.00    +0.000 N 
ATOM      8  C   UNL     1       0.588  12.098  19.212  0.00  0.00    +0.000 A 
ATOM      9  C   UNL     1      -0.375  12.952  18.738  0.00  0.00    +0.000 A 
ATOM     10  N   UNL     1      -1.359  12.258  18.098  0.00  0.00    +0.000 NA
ATOM     11  C   UNL     1      -1.015  10.985  18.172  0.00  0.00    +0.000 A 
ATOM     12  C   UNL     1      -1.917   9.870  17.773  0.00  0.00    +0.000 C 
ENDBRANCH   4   7
BRANCH   1  13
ATOM     13  C   UNL     1       3.151   5.967  19.544  0.00  0.00    +0.000 C 
ATOM     14  O   UNL     1       4.369   5.944  19.373  0.00  0.00    +0.000 OA
BRANCH  13  20
ATOM     15  C   UNL     1       1.329   4.004  17.637  0.00  0.00    +0.000 C 
ATOM     16  C   UNL     1       1.604   3.974  19.091  0.00  0.00    +0.000 A 
ATOM     17  N   UNL     1       1.085   3.007  19.920  0.00  0.00    +0.000 N 
ATOM     18  C   UNL     1       1.555   3.245  21.178  0.00  0.00    +0.000 A 
ATOM     19  N   UNL     1       2.325   4.296  21.216  0.00  0.00    +0.000 NA
ATOM     20  C   UNL     1       2.376   4.779  19.918  0.00  0.00    +0.000 A 
ATOM     21  H   UNL     1       0.479   2.248  19.639  0.00  0.00    +0.000 HD
BRANCH  18  22
ATOM     22  O   UNL     1       1.290   2.508  22.241  0.00  0.00    +0.000 OA
ATOM     23  H   UNL     1       0.632   1.833  22.003  0.00  0.00    +0.000 HD
ENDBRANCH  18  22
ENDBRANCH  13  20
ENDBRANCH   1  13
TORSDOF 4
ENDMDL
MODEL 3
REMARK VINA RESULT:      -7.4      0.450      1.689
REMARK  Name = 
REMARK  6 active torsions:
REMARK  status: ('A' for Active; 'I' for Inactive)
REMARK    1  A    between atoms: C_1  and  C_2
REMARK    2  A    between atoms: C_4  and  O_5
REMARK    3  A    between atoms: C_7  and  C_8
REMARK    4  A    between atoms: C_8  and  C_10
REMARK    5  A    between atoms: C_13  and  N_14
REMARK    6  A    between atoms: C_18  and  C_19
REMARK                            x       y       z     vdW  Elec       q    Type
REMARK                         _______ _______ _______ _____ _____    ______ ____
ROOT
ATOM      1  C   UNL     1       2.456   7.174  19.357  0.00  0.00    +0.000 A 
ATOM      2  C   UNL     1       2.491   7.794  18.105  0.00  0.00    +0.000 A 
ATOM      3  C   UNL     1       1.776   8.982  17.886  0.00  0.00    +0.000 A 
ATOM      4  C   UNL     1       1.050   9.575  18.932  0.00  0.00    +0.000 A 
ATOM      5  C   UNL     1       1.041   8.963  20.189  0.00  0.00    +0.000 A 
ATOM      6  C   UNL     1       1.745   7.778  20.402  0.00  0.00    +0.000 A 
ENDROOT
BRANCH   4   7
ATOM      7  N   UNL     1       0.294  10.757  18.699  0.00  0.00    +0.000 N 
ATOM      8  C   UNL     1      -1.059  10.793  18.430  0.00  0.00    +0.000 A 
ATOM      9  C   UNL     1      -1.405  12.119  18.372  0.00  0.00    +0.000 A 
ATOM     10  N   UNL     1      -0.306  12.910  18.538  0.00  0.00    +0.000 NA
ATOM     11  C   UNL     1       0.714  12.086  18.698  0.00  0.00    +0.000 A 
ATOM     12  C   UNL     1       2.133  12.536  18.710  0.00  0.00    +0.000 C 
ENDBRANCH   4   7
BRANCH   1  13
ATOM     13  C   UNL     1       3.182   5.887  19.569  0.00  0.00    +0.000 C 
ATOM     14  O   UNL     1       4.403   5.852  19.415  0.00  0.00    +0.000 OA
BRANCH  13  20
ATOM     15  C   UNL     1       1.314   3.944  17.686  0.00  0.00    +0.000 C 
ATOM     16  C   UNL     1       1.603   3.915  19.137  0.00  0.00    +0.000 A 
ATOM     17  N   UNL     1       1.078   2.957  19.974  0.00  0.00    +0.000 N 
ATOM     18  C   UNL     1       1.564   3.192  21.227  0.00  0.00    +0.000 A 
ATOM     19  N   UNL     1       2.349   4.232  21.254  0.00  0.00    +0.000 NA
ATOM     20  C   UNL     1       2.395   4.711  19.954  0.00  0.00    +0.000 A 
ATOM     21  H   UNL     1       0.459   2.206  19.702  0.00  0.00    +0.000 HD
BRANCH  18  22
ATOM     22  O   UNL     1       1.299   2.461  22.294  0.00  0.00    +0.000 OA
ATOM     23  H   UNL     1       1.325   3.030  23.082  0.00  0.00    +0.000 HD
ENDBRANCH  18  22
ENDBRANCH  13  20
ENDBRANCH   1  13
TORSDOF 4
ENDMDL
MODEL 4
REMARK VINA RESULT:      -7.3      0.535      1.328
REMARK  Name = 
REMARK  6 active torsions:
REMARK  status: ('A' for Active; 'I' for Inactive)
REMARK    1  A    between atoms: C_1  and  C_2
REMARK    2  A    between atoms: C_4  and  O_5
REMARK    3  A    between atoms: C_7  and  C_8
REMARK    4  A    between atoms: C_8  and  C_10
REMARK    5  A    between atoms: C_13  and  N_14
REMARK    6  A    between atoms: C_18  and  C_19
REMARK                            x       y       z     vdW  Elec       q    Type
REMARK                         _______ _______ _______ _____ _____    ______ ____
ROOT
ATOM      1  C   UNL     1       2.397   7.211  19.367  0.00  0.00    +0.000 A 
ATOM      2  C   UNL     1       1.719   7.821  20.426  0.00  0.00    +0.000 A 
ATOM      3  C   UNL     1       1.039   9.032  20.224  0.00  0.00    +0.000 A 
ATOM      4  C   UNL     1       1.005   9.621  18.950  0.00  0.00    +0.000 A 
ATOM      5  C   UNL     1       1.664   8.992  17.889  0.00  0.00    +0.000 A 
ATOM      6  C   UNL     1       2.346   7.793  18.094  0.00  0.00    +0.000 A 
ENDROOT
BRANCH   4   7
ATOM      7  N   UNL     1       0.349  10.868  18.754  0.00  0.00    +0.000 N 
ATOM      8  C   UNL     1      -1.016  11.039  18.645  0.00  0.00    +0.000 A 
ATOM      9  C   UNL     1      -1.230  12.391  18.567  0.00  0.00    +0.000 A 
ATOM     10  N   UNL     1      -0.045  13.066  18.566  0.00  0.00    +0.000 NA
ATOM     11  C   UNL     1       0.899  12.144  18.641  0.00  0.00    +0.000 A 
ATOM     12  C   UNL     1       2.347  12.441  18.465  0.00  0.00    +0.000 C 
ENDBRANCH   4   7
BRANCH   1  13
ATOM     13  C   UNL     1       3.156   5.946  19.601  0.00  0.00    +0.000 C 
ATOM     14  O   UNL     1       4.380   5.947  19.474  0.00  0.00    +0.000 OA
BRANCH  13  20
ATOM     15  C   UNL     1       1.351   3.968  17.694  0.00  0.00    +0.000 C 
ATOM     16  C   UNL     1       1.630   3.938  19.148  0.00  0.00    +0.000 A 
ATOM     17  N   UNL     1       1.122   2.963  19.976  0.00  0.00    +0.000 N 
ATOM     18  C   UNL     1       1.593   3.204  21.234  0.00  0.00    +0.000 A 
ATOM     19  N   UNL     1       2.351   4.263  21.272  0.00  0.00    +0.000 NA
ATOM     20  C   UNL     1       2.395   4.750  19.974  0.00  0.00    +0.000 A 
ATOM     21  H   UNL     1       0.524   2.199  19.695  0.00  0.00    +0.000 HD
BRANCH  18  22
ATOM     22  O   UNL     1       1.338   2.462  22.295  0.00  0.00    +0.000 OA
ATOM     23  H   UNL     1       0.457   2.688  22.636  0.00  0.00    +0.000 HD
ENDBRANCH  18  22
ENDBRANCH  13  20
ENDBRANCH   1  13
TORSDOF 4
ENDMDL
MODEL 5
REMARK VINA RESULT:      -7.2      3.086      7.324
REMARK  Name = 
REMARK  6 active torsions:
REMARK  status: ('A' for Active; 'I' for Inactive)
REMARK    1  A    between atoms: C_1  and  C_2
REMARK    2  A    between atoms: C_4  and  O_5
REMARK    3  A    between atoms: C_7  and  C_8
REMARK    4  A    between atoms: C_8  and  C_10
REMARK    5  A    between atoms: C_13  and  N_14
REMARK    6  A    between atoms: C_18  and  C_19
REMARK                            x       y       z     vdW  Elec       q    Type
REMARK                         _______ _______ _______ _____ _____    ______ ____
ROOT
ATOM      1  C   UNL     1       1.213   9.347  19.543  0.00  0.00    +0.000 A 
ATOM      2  C   UNL     1       1.621   9.306  18.207  0.00  0.00    +0.000 A 
ATOM      3  C   UNL     1       2.342   8.203  17.722  0.00  0.00    +0.000 A 
ATOM      4  C   UNL     1       2.627   7.118  18.567  0.00  0.00    +0.000 A 
ATOM      5  C   UNL     1       2.193   7.154  19.896  0.00  0.00    +0.000 A 
ATOM      6  C   UNL     1       1.484   8.255  20.376  0.00  0.00    +0.000 A 
ENDROOT
BRANCH   4   7
ATOM      7  N   UNL     1       3.391   6.018  18.087  0.00  0.00    +0.000 N 
ATOM      8  C   UNL     1       4.744   6.051  17.815  0.00  0.00    +0.000 A 
ATOM      9  C   UNL     1       5.100   4.771  17.476  0.00  0.00    +0.000 A 
ATOM     10  N   UNL     1       4.008   3.955  17.470  0.00  0.00    +0.000 NA
ATOM     11  C   UNL     1       2.981   4.717  17.803  0.00  0.00    +0.000 A 
ATOM     12  C   UNL     1       1.566   4.264  17.720  0.00  0.00    +0.000 C 
ENDBRANCH   4   7
BRANCH   1  13
ATOM     13  C   UNL     1       0.486  10.544  20.061  0.00  0.00    +0.000 C 
ATOM     14  O   UNL     1       0.557  10.819  21.258  0.00  0.00    +0.000 OA
BRANCH  13  20
ATOM     15  C   UNL     1       1.274  13.402  18.641  0.00  0.00    +0.000 C 
ATOM     16  C   UNL     1       0.065  12.556  18.530  0.00  0.00    +0.000 A 
ATOM     17  N   UNL     1      -0.995  12.887  17.718  0.00  0.00    +0.000 N 
ATOM     18  C   UNL     1      -1.920  11.890  17.818  0.00  0.00    +0.000 A 
ATOM     19  N   UNL     1      -1.535  10.954  18.640  0.00  0.00    +0.000 NA
ATOM     20  C   UNL     1      -0.289  11.342  19.105  0.00  0.00    +0.000 A 
ATOM     21  H   UNL     1      -1.065  13.713  17.141  0.00  0.00    +0.000 HD
BRANCH  18  22
ATOM     22  O   UNL     1      -3.066  11.846  17.163  0.00  0.00    +0.000 OA
ATOM     23  H   UNL     1      -2.984  12.367  16.347  0.00  0.00    +0.000 HD
ENDBRANCH  18  22
ENDBRANCH  13  20
ENDBRANCH   1  13
TORSDOF 4
ENDMDL
MODEL 6
REMARK VINA RESULT:      -7.2      3.104      7.234
REMARK  Name = 
REMARK  6 active torsions:
REMARK  status: ('A' for Active; 'I' for Inactive)
REMARK    1  A    between atoms: C_1  and  C_2
REMARK    2  A    between atoms: C_4  and  O_5
REMARK    3  A    between atoms: C_7  and  C_8
REMARK    4  A    between atoms: C_8  and  C_10
REMARK    5  A    between atoms: C_13  and  N_14
REMARK    6  A    between atoms: C_18  and  C_19
REMARK                            x       y       z     vdW  Elec       q    Type
REMARK                         _______ _______ _______ _____ _____    ______ ____
ROOT
ATOM      1  C   UNL     1       1.109   9.273  19.559  0.00  0.00    +0.000 A 
ATOM      2  C   UNL     1       1.477   8.227  20.408  0.00  0.00    +0.000 A 
ATOM      3  C   UNL     1       2.231   7.150  19.914  0.00  0.00    +0.000 A 
ATOM      4  C   UNL     1       2.650   7.135  18.574  0.00  0.00    +0.000 A 
ATOM      5  C   UNL     1       2.299   8.198  17.737  0.00  0.00    +0.000 A 
ATOM      6  C   UNL     1       1.543   9.262  18.228  0.00  0.00    +0.000 A 
ENDROOT
BRANCH   4   7
ATOM      7  N   UNL     1       3.380   6.025  18.064  0.00  0.00    +0.000 N 
ATOM      8  C   UNL     1       4.727   6.031  17.766  0.00  0.00    +0.000 A 
ATOM      9  C   UNL     1       5.047   4.747  17.402  0.00  0.00    +0.000 A 
ATOM     10  N   UNL     1       3.936   3.957  17.407  0.00  0.00    +0.000 NA
ATOM     11  C   UNL     1       2.934   4.737  17.770  0.00  0.00    +0.000 A 
ATOM     12  C   UNL     1       1.507   4.318  17.709  0.00  0.00    +0.000 C 
ENDBRANCH   4   7
BRANCH   1  13
ATOM     13  C   UNL     1       0.269  10.392  20.081  0.00  0.00    +0.000 C 
ATOM     14  O   UNL     1       0.206  10.581  21.295  0.00  0.00    +0.000 OA
BRANCH  13  20
ATOM     15  C   UNL     1       1.173  13.253  18.736  0.00  0.00    +0.000 C 
ATOM     16  C   UNL     1      -0.048  12.434  18.565  0.00  0.00    +0.000 A 
ATOM     17  N   UNL     1      -1.068  12.801  17.717  0.00  0.00    +0.000 N 
ATOM     18  C   UNL     1      -2.018  11.823  17.766  0.00  0.00    +0.000 A 
ATOM     19  N   UNL     1      -1.685  10.867  18.588  0.00  0.00    +0.000 NA
ATOM     20  C   UNL     1      -0.450  11.221  19.108  0.00  0.00    +0.000 A 
ATOM     21  H   UNL     1      -1.097  13.637  17.150  0.00  0.00    +0.000 HD
BRANCH  18  22
ATOM     22  O   UNL     1      -3.137  11.813  17.066  0.00  0.00    +0.000 OA
ATOM     23  H   UNL     1      -2.920  11.742  16.122  0.00  0.00    +0.000 HD
ENDBRANCH  18  22
ENDBRANCH  13  20
ENDBRANCH   1  13
TORSDOF 4
ENDMDL
MODEL 7
REMARK VINA RESULT:      -7.2      2.996      4.193
REMARK  Name = 
REMARK  6 active torsions:
REMARK  status: ('A' for Active; 'I' for Inactive)
REMARK    1  A    between atoms: C_1  and  C_2
REMARK    2  A    between atoms: C_4  and  O_5
REMARK    3  A    between atoms: C_7  and  C_8
REMARK    4  A    between atoms: C_8  and  C_10
REMARK    5  A    between atoms: C_13  and  N_14
REMARK    6  A    between atoms: C_18  and  C_19
REMARK                            x       y       z     vdW  Elec       q    Type
REMARK                         _______ _______ _______ _____ _____    ______ ____
ROOT
ATOM      1  C   UNL     1       3.495   6.095  18.460  0.00  0.00    +0.000 A 
ATOM      2  C   UNL     1       3.435   7.259  17.689  0.00  0.00    +0.000 A 
ATOM      3  C   UNL     1       2.606   8.323  18.080  0.00  0.00    +0.000 A 
ATOM      4  C   UNL     1       1.860   8.240  19.267  0.00  0.00    +0.000 A 
ATOM      5  C   UNL     1       1.945   7.082  20.047  0.00  0.00    +0.000 A 
ATOM      6  C   UNL     1       2.762   6.024  19.651  0.00  0.00    +0.000 A 
ENDROOT
BRANCH   4   7
ATOM      7  N   UNL     1       0.991   9.301  19.642  0.00  0.00    +0.000 N 
ATOM      8  C   UNL     1       0.335  10.138  18.763  0.00  0.00    +0.000 A 
ATOM      9  C   UNL     1      -0.469  10.945  19.526  0.00  0.00    +0.000 A 
ATOM     10  N   UNL     1      -0.295  10.680  20.852  0.00  0.00    +0.000 NA
ATOM     11  C   UNL     1       0.608   9.718  20.916  0.00  0.00    +0.000 A 
ATOM     12  C   UNL     1       1.235   9.269  22.189  0.00  0.00    +0.000 C 
ENDBRANCH   4   7
BRANCH   1  13
ATOM     13  C   UNL     1       4.344   4.951  18.013  0.00  0.00    +0.000 C 
ATOM     14  O   UNL     1       3.828   4.030  17.382  0.00  0.00    +0.000 OA
BRANCH  13  20
ATOM     15  C   UNL     1       6.946   4.484  16.058  0.00  0.00    +0.000 C 
ATOM     16  C   UNL     1       6.850   4.768  17.508  0.00  0.00    +0.000 A 
ATOM     17  N   UNL     1       7.962   4.900  18.308  0.00  0.00    +0.000 N 
ATOM     18  C   UNL     1       7.530   5.191  19.569  0.00  0.00    +0.000 A 
ATOM     19  N   UNL     1       6.230   5.244  19.635  0.00  0.00    +0.000 NA
ATOM     20  C   UNL     1       5.770   4.982  18.354  0.00  0.00    +0.000 A 
ATOM     21  H   UNL     1       8.922   4.813  18.008  0.00  0.00    +0.000 HD
BRANCH  18  22
ATOM     22  O   UNL     1       8.314   5.412  20.609  0.00  0.00    +0.000 OA
ATOM     23  H   UNL     1       8.732   4.576  20.874  0.00  0.00    +0.000 HD
ENDBRANCH  18  22
ENDBRANCH  13  20
ENDBRANCH   1  13
TORSDOF 4
ENDMDL
MODEL 8
REMARK VINA RESULT:      -7.2      1.937      2.344
REMARK  Name = 
REMARK  6 active torsions:
REMARK  status: ('A' for Active; 'I' for Inactive)
REMARK    1  A    between atoms: C_1  and  C_2
REMARK    2  A    between atoms: C_4  and  O_5
REMARK    3  A    between atoms: C_7  and  C_8
REMARK    4  A    between atoms: C_8  and  C_10
REMARK    5  A    between atoms: C_13  and  N_14
REMARK    6  A    between atoms: C_18  and  C_19
REMARK                            x       y       z     vdW  Elec       q    Type
REMARK                         _______ _______ _______ _____ _____    ______ ____
ROOT
ATOM      1  C   UNL     1       2.998   6.873  18.377  0.00  0.00    +0.000 A 
ATOM      2  C   UNL     1       2.754   8.026  17.627  0.00  0.00    +0.000 A 
ATOM      3  C   UNL     1       1.960   9.057  18.155  0.00  0.00    +0.000 A 
ATOM      4  C   UNL     1       1.436   8.952  19.453  0.00  0.00    +0.000 A 
ATOM      5  C   UNL     1       1.704   7.806  20.207  0.00  0.00    +0.000 A 
ATOM      6  C   UNL     1       2.486   6.780  19.678  0.00  0.00    +0.000 A 
ENDROOT
BRANCH   4   7
ATOM      7  N   UNL     1       0.599   9.979  19.972  0.00  0.00    +0.000 N 
ATOM      8  C   UNL     1       0.734  10.559  21.217  0.00  0.00    +0.000 A 
ATOM      9  C   UNL     1      -0.200  11.561  21.279  0.00  0.00    +0.000 A 
ATOM     10  N   UNL     1      -0.951  11.588  20.141  0.00  0.00    +0.000 NA
ATOM     11  C   UNL     1      -0.490  10.613  19.377  0.00  0.00    +0.000 A 
ATOM     12  C   UNL     1      -1.163  10.168  18.126  0.00  0.00    +0.000 C 
ENDBRANCH   4   7
BRANCH   1  13
ATOM     13  C   UNL     1       3.805   5.762  17.791  0.00  0.00    +0.000 C 
ATOM     14  O   UNL     1       4.479   5.975  16.784  0.00  0.00    +0.000 OA
BRANCH  13  20
ATOM     15  C   UNL     1       1.316   3.619  17.938  0.00  0.00    +0.000 C 
ATOM     16  C   UNL     1       2.681   3.573  18.508  0.00  0.00    +0.000 A 
ATOM     17  N   UNL     1       3.137   2.503  19.244  0.00  0.00    +0.000 N 
ATOM     18  C   UNL     1       4.433   2.760  19.587  0.00  0.00    +0.000 A 
ATOM     19  N   UNL     1       4.832   3.916  19.136  0.00  0.00    +0.000 NA
ATOM     20  C   UNL     1       3.753   4.454  18.452  0.00  0.00    +0.000 A 
ATOM     21  H   UNL     1       2.610   1.672  19.472  0.00  0.00    +0.000 HD
BRANCH  18  22
ATOM     22  O   UNL     1       5.212   1.948  20.278  0.00  0.00    +0.000 OA
ATOM     23  H   UNL     1       4.819   1.802  21.155  0.00  0.00    +0.000 HD
ENDBRANCH  18  22
ENDBRANCH  13  20
ENDBRANCH   1  13
TORSDOF 4
ENDMDL
MODEL 9
REMARK VINA RESULT:      -7.2      1.955      2.125
REMARK  Name = 
REMARK  6 active torsions:
REMARK  status: ('A' for Active; 'I' for Inactive)
REMARK    1  A    between atoms: C_1  and  C_2
REMARK    2  A    between atoms: C_4  and  O_5
REMARK    3  A    between atoms: C_7  and  C_8
REMARK    4  A    between atoms: C_8  and  C_10
REMARK    5  A    between atoms: C_13  and  N_14
REMARK    6  A    between atoms: C_18  and  C_19
REMARK                            x       y       z     vdW  Elec       q    Type
REMARK                         _______ _______ _______ _____ _____    ______ ____
ROOT
ATOM      1  C   UNL     1       2.974   7.133  18.402  0.00  0.00    +0.000 A 
ATOM      2  C   UNL     1       2.442   6.979  19.685  0.00  0.00    +0.000 A 
ATOM      3  C   UNL     1       1.598   7.965  20.222  0.00  0.00    +0.000 A 
ATOM      4  C   UNL     1       1.256   9.094  19.461  0.00  0.00    +0.000 A 
ATOM      5  C   UNL     1       1.772   9.229  18.169  0.00  0.00    +0.000 A 
ATOM      6  C   UNL     1       2.616   8.253  17.641  0.00  0.00    +0.000 A 
ENDROOT
BRANCH   4   7
ATOM      7  N   UNL     1       0.433  10.112  20.020  0.00  0.00    +0.000 N 
ATOM      8  C   UNL     1       0.646  10.724  21.238  0.00  0.00    +0.000 A 
ATOM      9  C   UNL     1      -0.307  11.704  21.348  0.00  0.00    +0.000 A 
ATOM     10  N   UNL     1      -1.140  11.686  20.270  0.00  0.00    +0.000 NA
ATOM     11  C   UNL     1      -0.713  10.706  19.494  0.00  0.00    +0.000 A 
ATOM     12  C   UNL     1      -1.465  10.216  18.307  0.00  0.00    +0.000 C 
ENDBRANCH   4   7
BRANCH   1  13
ATOM     13  C   UNL     1       3.907   6.102  17.856  0.00  0.00    +0.000 C 
ATOM     14  O   UNL     1       4.715   6.423  16.986  0.00  0.00    +0.000 OA
BRANCH  13  20
ATOM     15  C   UNL     1       1.406   3.976  17.654  0.00  0.00    +0.000 C 
ATOM     16  C   UNL     1       2.734   3.867  18.300  0.00  0.00    +0.000 A 
ATOM     17  N   UNL     1       3.140   2.730  18.961  0.00  0.00    +0.000 N 
ATOM     18  C   UNL     1       4.413   2.943  19.404  0.00  0.00    +0.000 A 
ATOM     19  N   UNL     1       4.843   4.132  19.086  0.00  0.00    +0.000 NA
ATOM     20  C   UNL     1       3.810   4.740  18.390  0.00  0.00    +0.000 A 
ATOM     21  H   UNL     1       2.598   1.886  19.079  0.00  0.00    +0.000 HD
BRANCH  18  22
ATOM     22  O   UNL     1       5.145   2.065  20.063  0.00  0.00    +0.000 OA
ATOM     23  H   UNL     1       5.982   1.929  19.587  0.00  0.00    +0.000 HD
ENDBRANCH  18  22
ENDBRANCH  13  20
ENDBRANCH   1  13
TORSDOF 4
ENDMDL
