MODEL 1
REMARK VINA RESULT:      -7.2      0.000      0.000
REMARK  Name = 
REMARK  8 active torsions:
REMARK  status: ('A' for Active; 'I' for Inactive)
REMARK    1  A    between atoms: C_1  and  C_2
REMARK    2  A    between atoms: C_2  and  C_3
REMARK    3  A    between atoms: C_3  and  N_4
REMARK    4  A    between atoms: C_5  and  C_6
REMARK    5  A    between atoms: C_6  and  C_8
REMARK    6  A    between atoms: C_14  and  O_15
REMARK    7  A    between atoms: O_15  and  C_16
REMARK    8  A    between atoms: C_16  and  C_18
REMARK                            x       y       z     vdW  Elec       q    Type
REMARK                         _______ _______ _______ _____ _____    ______ ____
ROOT
ATOM      1  N   UNL     1       4.888   4.212  17.476  0.00  0.00    +0.000 N 
ATOM      2  C   UNL     1       4.564   5.610  17.806  0.00  0.00    +0.000 C 
ATOM      3  C   UNL     1       3.620   5.855  18.760  0.00  0.00    +0.000 C 
ATOM      4  C   UNL     1       2.715   4.851  19.383  0.00  0.00    +0.000 A 
ATOM      5  C   UNL     1       1.635   5.232  20.205  0.00  0.00    +0.000 A 
ATOM      6  C   UNL     1       0.734   4.296  20.739  0.00  0.00    +0.000 A 
ATOM      7  C   UNL     1       0.883   2.945  20.466  0.00  0.00    +0.000 A 
ATOM      8  C   UNL     1       1.944   2.538  19.680  0.00  0.00    +0.000 A 
ATOM      9  C   UNL     1       2.841   3.492  19.162  0.00  0.00    +0.000 A 
ATOM     10  S   UNL     1       4.141   2.889  18.195  0.00  0.00    +0.000 S 
ATOM     11  O   UNL     1       5.083   2.274  19.108  0.00  0.00    +0.000 OA
ATOM     12  O   UNL     1       3.526   2.112  17.136  0.00  0.00    +0.000 OA
ENDROOT
BRANCH   2  13
ATOM     13  C   UNL     1       5.319   6.692  17.031  0.00  0.00    +0.000 C 
ATOM     14  O   UNL     1       4.945   7.080  15.923  0.00  0.00    +0.000 OA
BRANCH  13  15
ATOM     15  C   UNL     1       6.543   7.373  17.529  0.00  0.00    +0.000 A 
ATOM     16  C   UNL     1       7.400   6.617  18.348  0.00  0.00    +0.000 A 
ATOM     17  C   UNL     1       8.512   7.202  18.951  0.00  0.00    +0.000 A 
ATOM     18  C   UNL     1       8.786   8.547  18.729  0.00  0.00    +0.000 A 
ATOM     19  C   UNL     1       7.988   9.286  17.853  0.00  0.00    +0.000 A 
ATOM     20  C   UNL     1       6.887   8.694  17.223  0.00  0.00    +0.000 A 
ENDBRANCH  13  15
ENDBRANCH   2  13
BRANCH   1  21
ATOM     21  C   UNL     1       6.042   3.779  16.624  0.00  0.00    +0.000 C 
BRANCH  21  23
ATOM     22  C   UNL     1       6.701   4.538  14.304  0.00  0.00    +0.000 C 
ATOM     23  C   UNL     1       5.659   3.813  15.144  0.00  0.00    +0.000 C 
ENDBRANCH  21  23
ENDBRANCH   1  21
BRANCH   3  24
ATOM     24  O   UNL     1       3.243   7.182  19.169  0.00  0.00    +0.000 OA
BRANCH  24  25
ATOM     25  C   UNL     1       2.266   7.869  18.503  0.00  0.00    +0.000 C 
ATOM     26  O   UNL     1       1.928   7.696  17.344  0.00  0.00    +0.000 OA
BRANCH  25  27
ATOM     27  C   UNL     1       1.558   8.791  19.456  0.00  0.00    +0.000 A 
ATOM     28  C   UNL     1       1.050  10.003  18.955  0.00  0.00    +0.000 A 
ATOM     29  C   UNL     1       0.243  10.821  19.757  0.00  0.00    +0.000 A 
ATOM     30  C   UNL     1      -0.038  10.439  21.063  0.00  0.00    +0.000 A 
ATOM     31  F   UNL     1      -0.854  11.194  21.813  0.00  0.00    +0.000 F 
ATOM     32  C   UNL     1       0.487   9.265  21.592  0.00  0.00    +0.000 A 
ATOM     33  C   UNL     1       1.291   8.441  20.793  0.00  0.00    +0.000 A 
ENDBRANCH  25  27
ENDBRANCH  24  25
ENDBRANCH   3  24
TORSDOF 7
ENDMDL
MODEL 2
REMARK VINA RESULT:      -7.2      7.384     10.451
REMARK  Name = 
REMARK  8 active torsions:
REMARK  status: ('A' for Active; 'I' for Inactive)
REMARK    1  A    between atoms: C_1  and  C_2
REMARK    2  A    between atoms: C_2  and  C_3
REMARK    3  A    between atoms: C_3  and  N_4
REMARK    4  A    between atoms: C_5  and  C_6
REMARK    5  A    between atoms: C_6  and  C_8
REMARK    6  A    between atoms: C_14  and  O_15
REMARK    7  A    between atoms: O_15  and  C_16
REMARK    8  A    between atoms: C_16  and  C_18
REMARK                            x       y       z     vdW  Elec       q    Type
REMARK                         _______ _______ _______ _____ _____    ______ ____
ROOT
ATOM      1  N   UNL     1      -3.674  11.418  18.517  0.00  0.00    +0.000 N 
ATOM      2  C   UNL     1      -3.062  12.195  19.607  0.00  0.00    +0.000 C 
ATOM      3  C   UNL     1      -3.854  13.027  20.343  0.00  0.00    +0.000 C 
ATOM      4  C   UNL     1      -5.263  13.400  20.038  0.00  0.00    +0.000 A 
ATOM      5  C   UNL     1      -5.930  14.424  20.740  0.00  0.00    +0.000 A 
ATOM      6  C   UNL     1      -7.234  14.831  20.412  0.00  0.00    +0.000 A 
ATOM      7  C   UNL     1      -7.916  14.224  19.369  0.00  0.00    +0.000 A 
ATOM      8  C   UNL     1      -7.296  13.201  18.675  0.00  0.00    +0.000 A 
ATOM      9  C   UNL     1      -5.992  12.804  19.025  0.00  0.00    +0.000 A 
ATOM     10  S   UNL     1      -5.300  11.514  18.106  0.00  0.00    +0.000 S 
ATOM     11  O   UNL     1      -5.954  10.298  18.547  0.00  0.00    +0.000 OA
ATOM     12  O   UNL     1      -5.373  11.927  16.718  0.00  0.00    +0.000 OA
ENDROOT
BRANCH   2  13
ATOM     13  C   UNL     1      -1.558  12.011  19.824  0.00  0.00    +0.000 C 
ATOM     14  O   UNL     1      -0.724  12.648  19.178  0.00  0.00    +0.000 OA
BRANCH  13  15
ATOM     15  C   UNL     1      -0.968  11.074  20.815  0.00  0.00    +0.000 A 
ATOM     16  C   UNL     1      -0.343   9.922  20.304  0.00  0.00    +0.000 A 
ATOM     17  C   UNL     1       0.140   8.933  21.159  0.00  0.00    +0.000 A 
ATOM     18  C   UNL     1       0.015   9.093  22.535  0.00  0.00    +0.000 A 
ATOM     19  C   UNL     1      -0.529  10.269  23.054  0.00  0.00    +0.000 A 
ATOM     20  C   UNL     1      -0.989  11.277  22.199  0.00  0.00    +0.000 A 
ENDBRANCH  13  15
ENDBRANCH   2  13
BRANCH   1  21
ATOM     21  C   UNL     1      -2.996  10.310  17.770  0.00  0.00    +0.000 C 
BRANCH  21  23
ATOM     22  C   UNL     1      -2.885   9.984  15.266  0.00  0.00    +0.000 C 
ATOM     23  C   UNL     1      -2.425  10.824  16.448  0.00  0.00    +0.000 C 
ENDBRANCH  21  23
ENDBRANCH   1  21
BRANCH   3  24
ATOM     24  O   UNL     1      -3.360  13.816  21.440  0.00  0.00    +0.000 OA
BRANCH  24  25
ATOM     25  C   UNL     1      -3.521  13.399  22.732  0.00  0.00    +0.000 C 
ATOM     26  O   UNL     1      -4.104  12.391  23.095  0.00  0.00    +0.000 OA
BRANCH  25  27
ATOM     27  C   UNL     1      -2.748  14.300  23.654  0.00  0.00    +0.000 A 
ATOM     28  C   UNL     1      -3.248  14.513  24.950  0.00  0.00    +0.000 A 
ATOM     29  C   UNL     1      -2.489  15.208  25.901  0.00  0.00    +0.000 A 
ATOM     30  C   UNL     1      -1.240  15.708  25.550  0.00  0.00    +0.000 A 
ATOM     31  F   UNL     1      -0.491  16.325  26.474  0.00  0.00    +0.000 F 
ATOM     32  C   UNL     1      -0.743  15.544  24.262  0.00  0.00    +0.000 A 
ATOM     33  C   UNL     1      -1.497  14.846  23.308  0.00  0.00    +0.000 A 
ENDBRANCH  25  27
ENDBRANCH  24  25
ENDBRANCH   3  24
TORSDOF 7
ENDMDL
MODEL 3
REMARK VINA RESULT:      -7.1      8.621     11.922
REMARK  Name = 
REMARK  8 active torsions:
REMARK  status: ('A' for Active; 'I' for Inactive)
REMARK    1  A    between atoms: C_1  and  C_2
REMARK    2  A    between atoms: C_2  and  C_3
REMARK    3  A    between atoms: C_3  and  N_4
REMARK    4  A    between atoms: C_5  and  C_6
REMARK    5  A    between atoms: C_6  and  C_8
REMARK    6  A    between atoms: C_14  and  O_15
REMARK    7  A    between atoms: O_15  and  C_16
REMARK    8  A    between atoms: C_16  and  C_18
REMARK                            x       y       z     vdW  Elec       q    Type
REMARK                         _______ _______ _______ _____ _____    ______ ____
ROOT
ATOM      1  N   UNL     1      -5.597  12.361  20.038  0.00  0.00    +0.000 N 
ATOM      2  C   UNL     1      -4.361  12.657  20.780  0.00  0.00    +0.000 C 
ATOM      3  C   UNL     1      -3.161  12.407  20.180  0.00  0.00    +0.000 C 
ATOM      4  C   UNL     1      -2.951  11.665  18.907  0.00  0.00    +0.000 A 
ATOM      5  C   UNL     1      -1.666  11.277  18.475  0.00  0.00    +0.000 A 
ATOM      6  C   UNL     1      -1.465  10.516  17.312  0.00  0.00    +0.000 A 
ATOM      7  C   UNL     1      -2.545  10.116  16.540  0.00  0.00    +0.000 A 
ATOM      8  C   UNL     1      -3.817  10.498  16.926  0.00  0.00    +0.000 A 
ATOM      9  C   UNL     1      -3.995  11.268  18.091  0.00  0.00    +0.000 A 
ATOM     10  S   UNL     1      -5.619  11.704  18.491  0.00  0.00    +0.000 S 
ATOM     11  O   UNL     1      -6.009  12.742  17.559  0.00  0.00    +0.000 OA
ATOM     12  O   UNL     1      -6.363  10.460  18.560  0.00  0.00    +0.000 OA
ENDROOT
BRANCH   2  13
ATOM     13  C   UNL     1      -4.525  13.224  22.192  0.00  0.00    +0.000 C 
ATOM     14  O   UNL     1      -4.462  12.508  23.193  0.00  0.00    +0.000 OA
BRANCH  13  15
ATOM     15  C   UNL     1      -4.763  14.660  22.491  0.00  0.00    +0.000 A 
ATOM     16  C   UNL     1      -4.914  15.009  23.846  0.00  0.00    +0.000 A 
ATOM     17  C   UNL     1      -5.251  16.309  24.215  0.00  0.00    +0.000 A 
ATOM     18  C   UNL     1      -5.427  17.279  23.234  0.00  0.00    +0.000 A 
ATOM     19  C   UNL     1      -5.200  16.963  21.893  0.00  0.00    +0.000 A 
ATOM     20  C   UNL     1      -4.834  15.664  21.520  0.00  0.00    +0.000 A 
ENDBRANCH  13  15
ENDBRANCH   2  13
BRANCH   1  21
ATOM     21  C   UNL     1      -6.972  12.779  20.462  0.00  0.00    +0.000 C 
BRANCH  21  23
ATOM     22  C   UNL     1      -7.917  12.324  22.762  0.00  0.00    +0.000 C 
ATOM     23  C   UNL     1      -7.586  11.738  21.398  0.00  0.00    +0.000 C 
ENDBRANCH  21  23
ENDBRANCH   1  21
BRANCH   3  24
ATOM     24  O   UNL     1      -1.897  12.677  20.810  0.00  0.00    +0.000 OA
BRANCH  24  25
ATOM     25  C   UNL     1      -1.263  13.874  20.625  0.00  0.00    +0.000 C 
ATOM     26  O   UNL     1      -0.882  14.329  19.560  0.00  0.00    +0.000 OA
BRANCH  25  27
ATOM     27  C   UNL     1      -1.221  14.629  21.924  0.00  0.00    +0.000 A 
ATOM     28  C   UNL     1      -1.346  16.029  21.884  0.00  0.00    +0.000 A 
ATOM     29  C   UNL     1      -1.478  16.766  23.069  0.00  0.00    +0.000 A 
ATOM     30  C   UNL     1      -1.464  16.107  24.292  0.00  0.00    +0.000 A 
ATOM     31  F   UNL     1      -1.644  16.805  25.422  0.00  0.00    +0.000 F 
ATOM     32  C   UNL     1      -1.301  14.727  24.357  0.00  0.00    +0.000 A 
ATOM     33  C   UNL     1      -1.172  13.985  23.175  0.00  0.00    +0.000 A 
ENDBRANCH  25  27
ENDBRANCH  24  25
ENDBRANCH   3  24
TORSDOF 7
ENDMDL
MODEL 4
REMARK VINA RESULT:      -6.9      5.895     11.068
REMARK  Name = 
REMARK  8 active torsions:
REMARK  status: ('A' for Active; 'I' for Inactive)
REMARK    1  A    between atoms: C_1  and  C_2
REMARK    2  A    between atoms: C_2  and  C_3
REMARK    3  A    between atoms: C_3  and  N_4
REMARK    4  A    between atoms: C_5  and  C_6
REMARK    5  A    between atoms: C_6  and  C_8
REMARK    6  A    between atoms: C_14  and  O_15
REMARK    7  A    between atoms: O_15  and  C_16
REMARK    8  A    between atoms: C_16  and  C_18
REMARK                            x       y       z     vdW  Elec       q    Type
REMARK                         _______ _______ _______ _____ _____    ______ ____
ROOT
ATOM      1  N   UNL     1      -1.413  15.066  20.146  0.00  0.00    +0.000 N 
ATOM      2  C   UNL     1      -1.373  13.602  19.996  0.00  0.00    +0.000 C 
ATOM      3  C   UNL     1      -0.196  13.014  19.635  0.00  0.00    +0.000 C 
ATOM      4  C   UNL     1       1.033  13.714  19.170  0.00  0.00    +0.000 A 
ATOM      5  C   UNL     1       2.127  13.012  18.622  0.00  0.00    +0.000 A 
ATOM      6  C   UNL     1       3.260  13.670  18.116  0.00  0.00    +0.000 A 
ATOM      7  C   UNL     1       3.337  15.053  18.141  0.00  0.00    +0.000 A 
ATOM      8  C   UNL     1       2.290  15.769  18.691  0.00  0.00    +0.000 A 
ATOM      9  C   UNL     1       1.167  15.090  19.200  0.00  0.00    +0.000 A 
ATOM     10  S   UNL     1      -0.091  16.066  19.873  0.00  0.00    +0.000 S 
ATOM     11  O   UNL     1       0.396  16.539  21.153  0.00  0.00    +0.000 OA
ATOM     12  O   UNL     1      -0.467  17.007  18.835  0.00  0.00    +0.000 OA
ENDROOT
BRANCH   2  13
ATOM     13  C   UNL     1      -2.679  12.847  20.253  0.00  0.00    +0.000 C 
ATOM     14  O   UNL     1      -3.298  12.289  19.346  0.00  0.00    +0.000 OA
BRANCH  13  15
ATOM     15  C   UNL     1      -3.312  12.710  21.590  0.00  0.00    +0.000 A 
ATOM     16  C   UNL     1      -4.706  12.892  21.653  0.00  0.00    +0.000 A 
ATOM     17  C   UNL     1      -5.372  12.892  22.877  0.00  0.00    +0.000 A 
ATOM     18  C   UNL     1      -4.652  12.696  24.051  0.00  0.00    +0.000 A 
ATOM     19  C   UNL     1      -3.282  12.433  23.994  0.00  0.00    +0.000 A 
ATOM     20  C   UNL     1      -2.614  12.404  22.763  0.00  0.00    +0.000 A 
ENDBRANCH  13  15
ENDBRANCH   2  13
BRANCH   1  21
ATOM     21  C   UNL     1      -2.552  15.834  20.744  0.00  0.00    +0.000 C 
BRANCH  21  23
ATOM     22  C   UNL     1      -3.649  16.196  22.993  0.00  0.00    +0.000 C 
ATOM     23  C   UNL     1      -2.335  16.037  22.244  0.00  0.00    +0.000 C 
ENDBRANCH  21  23
ENDBRANCH   1  21
BRANCH   3  24
ATOM     24  O   UNL     1      -0.045  11.592  19.478  0.00  0.00    +0.000 OA
BRANCH  24  25
ATOM     25  C   UNL     1       0.525  10.834  20.464  0.00  0.00    +0.000 C 
ATOM     26  O   UNL     1       0.510  11.081  21.658  0.00  0.00    +0.000 OA
BRANCH  25  27
ATOM     27  C   UNL     1       1.063   9.560  19.876  0.00  0.00    +0.000 A 
ATOM     28  C   UNL     1       1.363   9.537  18.502  0.00  0.00    +0.000 A 
ATOM     29  C   UNL     1       2.017   8.435  17.935  0.00  0.00    +0.000 A 
ATOM     30  C   UNL     1       2.353   7.350  18.736  0.00  0.00    +0.000 A 
ATOM     31  F   UNL     1       3.026   6.319  18.206  0.00  0.00    +0.000 F 
ATOM     32  C   UNL     1       2.030   7.334  20.088  0.00  0.00    +0.000 A 
ATOM     33  C   UNL     1       1.379   8.436  20.661  0.00  0.00    +0.000 A 
ENDBRANCH  25  27
ENDBRANCH  24  25
ENDBRANCH   3  24
TORSDOF 7
ENDMDL
MODEL 5
REMARK VINA RESULT:      -6.9      6.448      9.776
REMARK  Name = 
REMARK  8 active torsions:
REMARK  status: ('A' for Active; 'I' for Inactive)
REMARK    1  A    between atoms: C_1  and  C_2
REMARK    2  A    between atoms: C_2  and  C_3
REMARK    3  A    between atoms: C_3  and  N_4
REMARK    4  A    between atoms: C_5  and  C_6
REMARK    5  A    between atoms: C_6  and  C_8
REMARK    6  A    between atoms: C_14  and  O_15
REMARK    7  A    between atoms: O_15  and  C_16
REMARK    8  A    between atoms: C_16  and  C_18
REMARK                            x       y       z     vdW  Elec       q    Type
REMARK                         _______ _______ _______ _____ _____    ______ ____
ROOT
ATOM      1  N   UNL     1      -3.352  11.287  18.193  0.00  0.00    +0.000 N 
ATOM      2  C   UNL     1      -2.497  11.956  19.188  0.00  0.00    +0.000 C 
ATOM      3  C   UNL     1      -3.092  12.639  20.208  0.00  0.00    +0.000 C 
ATOM      4  C   UNL     1      -4.541  12.962  20.325  0.00  0.00    +0.000 A 
ATOM      5  C   UNL     1      -5.028  13.848  21.308  0.00  0.00    +0.000 A 
ATOM      6  C   UNL     1      -6.382  14.213  21.381  0.00  0.00    +0.000 A 
ATOM      7  C   UNL     1      -7.296  13.703  20.472  0.00  0.00    +0.000 A 
ATOM      8  C   UNL     1      -6.853  12.816  19.509  0.00  0.00    +0.000 A 
ATOM      9  C   UNL     1      -5.492  12.457  19.459  0.00  0.00    +0.000 A 
ATOM     10  S   UNL     1      -5.031  11.336  18.226  0.00  0.00    +0.000 S 
ATOM     11  O   UNL     1      -5.517  10.037  18.647  0.00  0.00    +0.000 OA
ATOM     12  O   UNL     1      -5.472  11.916  16.972  0.00  0.00    +0.000 OA
ENDROOT
BRANCH   2  13
ATOM     13  C   UNL     1      -0.985  11.836  18.988  0.00  0.00    +0.000 C 
ATOM     14  O   UNL     1      -0.312  12.763  18.533  0.00  0.00    +0.000 OA
BRANCH  13  15
ATOM     15  C   UNL     1      -0.194  10.622  19.321  0.00  0.00    +0.000 A 
ATOM     16  C   UNL     1      -0.373  10.082  20.607  0.00  0.00    +0.000 A 
ATOM     17  C   UNL     1       0.406   9.014  21.048  0.00  0.00    +0.000 A 
ATOM     18  C   UNL     1       1.363   8.466  20.201  0.00  0.00    +0.000 A 
ATOM     19  C   UNL     1       1.493   8.941  18.894  0.00  0.00    +0.000 A 
ATOM     20  C   UNL     1       0.693   9.996  18.439  0.00  0.00    +0.000 A 
ENDBRANCH  13  15
ENDBRANCH   2  13
BRANCH   1  21
ATOM     21  C   UNL     1      -2.863  10.325  17.153  0.00  0.00    +0.000 C 
BRANCH  21  23
ATOM     22  C   UNL     1      -3.174  10.170  14.650  0.00  0.00    +0.000 C 
ATOM     23  C   UNL     1      -2.691  11.029  15.808  0.00  0.00    +0.000 C 
ENDBRANCH  21  23
ENDBRANCH   1  21
BRANCH   3  24
ATOM     24  O   UNL     1      -2.350  13.312  21.241  0.00  0.00    +0.000 OA
BRANCH  24  25
ATOM     25  C   UNL     1      -2.234  12.766  22.490  0.00  0.00    +0.000 C 
ATOM     26  O   UNL     1      -2.125  11.579  22.748  0.00  0.00    +0.000 OA
BRANCH  25  27
ATOM     27  C   UNL     1      -2.118  13.862  23.511  0.00  0.00    +0.000 A 
ATOM     28  C   UNL     1      -0.990  14.700  23.463  0.00  0.00    +0.000 A 
ATOM     29  C   UNL     1      -0.910  15.834  24.282  0.00  0.00    +0.000 A 
ATOM     30  C   UNL     1      -1.946  16.118  25.163  0.00  0.00    +0.000 A 
ATOM     31  F   UNL     1      -1.895  17.232  25.908  0.00  0.00    +0.000 F 
ATOM     32  C   UNL     1      -3.053  15.282  25.256  0.00  0.00    +0.000 A 
ATOM     33  C   UNL     1      -3.140  14.148  24.436  0.00  0.00    +0.000 A 
ENDBRANCH  25  27
ENDBRANCH  24  25
ENDBRANCH   3  24
TORSDOF 7
ENDMDL
MODEL 6
REMARK VINA RESULT:      -6.9      7.063     10.439
REMARK  Name = 
REMARK  8 active torsions:
REMARK  status: ('A' for Active; 'I' for Inactive)
REMARK    1  A    between atoms: C_1  and  C_2
REMARK    2  A    between atoms: C_2  and  C_3
REMARK    3  A    between atoms: C_3  and  N_4
REMARK    4  A    between atoms: C_5  and  C_6
REMARK    5  A    between atoms: C_6  and  C_8
REMARK    6  A    between atoms: C_14  and  O_15
REMARK    7  A    between atoms: O_15  and  C_16
REMARK    8  A    between atoms: C_16  and  C_18
REMARK                            x       y       z     vdW  Elec       q    Type
REMARK                         _______ _______ _______ _____ _____    ______ ____
ROOT
ATOM      1  N   UNL     1      -0.800  11.592  20.364  0.00  0.00    +0.000 N 
ATOM      2  C   UNL     1      -1.937  12.514  20.523  0.00  0.00    +0.000 C 
ATOM      3  C   UNL     1      -3.001  12.393  19.676  0.00  0.00    +0.000 C 
ATOM      4  C   UNL     1      -3.062  11.546  18.454  0.00  0.00    +0.000 A 
ATOM      5  C   UNL     1      -4.124  11.645  17.532  0.00  0.00    +0.000 A 
ATOM      6  C   UNL     1      -4.154  10.901  16.342  0.00  0.00    +0.000 A 
ATOM      7  C   UNL     1      -3.121  10.030  16.033  0.00  0.00    +0.000 A 
ATOM      8  C   UNL     1      -2.075   9.895  16.926  0.00  0.00    +0.000 A 
ATOM      9  C   UNL     1      -2.068  10.645  18.118  0.00  0.00    +0.000 A 
ATOM     10  S   UNL     1      -0.723  10.405  19.178  0.00  0.00    +0.000 S 
ATOM     11  O   UNL     1      -0.921   9.116  19.808  0.00  0.00    +0.000 OA
ATOM     12  O   UNL     1       0.463  10.663  18.384  0.00  0.00    +0.000 OA
ENDROOT
BRANCH   2  13
ATOM     13  C   UNL     1      -1.828  13.557  21.637  0.00  0.00    +0.000 C 
ATOM     14  O   UNL     1      -1.126  14.564  21.521  0.00  0.00    +0.000 OA
BRANCH  13  15
ATOM     15  C   UNL     1      -2.545  13.468  22.936  0.00  0.00    +0.000 A 
ATOM     16  C   UNL     1      -3.135  12.230  23.250  0.00  0.00    +0.000 A 
ATOM     17  C   UNL     1      -3.921  12.083  24.391  0.00  0.00    +0.000 A 
ATOM     18  C   UNL     1      -4.113  13.169  25.238  0.00  0.00    +0.000 A 
ATOM     19  C   UNL     1      -3.466  14.378  24.979  0.00  0.00    +0.000 A 
ATOM     20  C   UNL     1      -2.652  14.522  23.849  0.00  0.00    +0.000 A 
ENDBRANCH  13  15
ENDBRANCH   2  13
BRANCH   1  21
ATOM     21  C   UNL     1       0.329  11.450  21.339  0.00  0.00    +0.000 C 
BRANCH  21  23
ATOM     22  C   UNL     1       0.863   9.351  22.641  0.00  0.00    +0.000 C 
ATOM     23  C   UNL     1      -0.074  10.541  22.499  0.00  0.00    +0.000 C 
ENDBRANCH  21  23
ENDBRANCH   1  21
BRANCH   3  24
ATOM     24  O   UNL     1      -4.167  13.231  19.757  0.00  0.00    +0.000 OA
BRANCH  24  25
ATOM     25  C   UNL     1      -5.221  12.891  20.560  0.00  0.00    +0.000 C 
ATOM     26  O   UNL     1      -5.691  11.774  20.694  0.00  0.00    +0.000 OA
BRANCH  25  27
ATOM     27  C   UNL     1      -5.639  14.082  21.376  0.00  0.00    +0.000 A 
ATOM     28  C   UNL     1      -6.529  13.877  22.445  0.00  0.00    +0.000 A 
ATOM     29  C   UNL     1      -6.823  14.918  23.336  0.00  0.00    +0.000 A 
ATOM     30  C   UNL     1      -6.245  16.168  23.145  0.00  0.00    +0.000 A 
ATOM     31  F   UNL     1      -6.484  17.148  24.027  0.00  0.00    +0.000 F 
ATOM     32  C   UNL     1      -5.394  16.404  22.071  0.00  0.00    +0.000 A 
ATOM     33  C   UNL     1      -5.094  15.365  21.180  0.00  0.00    +0.000 A 
ENDBRANCH  25  27
ENDBRANCH  24  25
ENDBRANCH   3  24
TORSDOF 7
ENDMDL
MODEL 7
REMARK VINA RESULT:      -6.9      6.967     10.511
REMARK  Name = 
REMARK  8 active torsions:
REMARK  status: ('A' for Active; 'I' for Inactive)
REMARK    1  A    between atoms: C_1  and  C_2
REMARK    2  A    between atoms: C_2  and  C_3
REMARK    3  A    between atoms: C_3  and  N_4
REMARK    4  A    between atoms: C_5  and  C_6
REMARK    5  A    between atoms: C_6  and  C_8
REMARK    6  A    between atoms: C_14  and  O_15
REMARK    7  A    between atoms: O_15  and  C_16
REMARK    8  A    between atoms: C_16  and  C_18
REMARK                            x       y       z     vdW  Elec       q    Type
REMARK                         _______ _______ _______ _____ _____    ______ ____
ROOT
ATOM      1  N   UNL     1      -0.550  13.451  19.822  0.00  0.00    +0.000 N 
ATOM      2  C   UNL     1      -1.197  13.757  21.108  0.00  0.00    +0.000 C 
ATOM      3  C   UNL     1      -1.117  12.840  22.116  0.00  0.00    +0.000 C 
ATOM      4  C   UNL     1      -0.610  11.445  21.999  0.00  0.00    +0.000 A 
ATOM      5  C   UNL     1      -0.760  10.509  23.042  0.00  0.00    +0.000 A 
ATOM      6  C   UNL     1      -0.347   9.173  22.914  0.00  0.00    +0.000 A 
ATOM      7  C   UNL     1       0.230   8.727  21.736  0.00  0.00    +0.000 A 
ATOM      8  C   UNL     1       0.409   9.626  20.701  0.00  0.00    +0.000 A 
ATOM      9  C   UNL     1      -0.004  10.963  20.853  0.00  0.00    +0.000 A 
ATOM     10  S   UNL     1       0.267  12.016  19.509  0.00  0.00    +0.000 S 
ATOM     11  O   UNL     1       1.688  12.296  19.485  0.00  0.00    +0.000 OA
ATOM     12  O   UNL     1      -0.379  11.389  18.372  0.00  0.00    +0.000 OA
ENDROOT
BRANCH   2  13
ATOM     13  C   UNL     1      -1.926  15.098  21.210  0.00  0.00    +0.000 C 
ATOM     14  O   UNL     1      -3.039  15.275  20.710  0.00  0.00    +0.000 OA
BRANCH  13  15
ATOM     15  C   UNL     1      -1.384  16.291  21.912  0.00  0.00    +0.000 A 
ATOM     16  C   UNL     1      -0.129  16.146  22.531  0.00  0.00    +0.000 A 
ATOM     17  C   UNL     1       0.409  17.172  23.305  0.00  0.00    +0.000 A 
ATOM     18  C   UNL     1      -0.298  18.360  23.458  0.00  0.00    +0.000 A 
ATOM     19  C   UNL     1      -1.506  18.545  22.783  0.00  0.00    +0.000 A 
ATOM     20  C   UNL     1      -2.035  17.526  21.981  0.00  0.00    +0.000 A 
ENDBRANCH  13  15
ENDBRANCH   2  13
BRANCH   1  21
ATOM     21  C   UNL     1      -0.358  14.432  18.705  0.00  0.00    +0.000 C 
BRANCH  21  23
ATOM     22  C   UNL     1       0.413  16.839  18.746  0.00  0.00    +0.000 C 
ATOM     23  C   UNL     1       0.789  15.391  19.025  0.00  0.00    +0.000 C 
ENDBRANCH  21  23
ENDBRANCH   1  21
BRANCH   3  24
ATOM     24  O   UNL     1      -1.699  13.048  23.415  0.00  0.00    +0.000 OA
BRANCH  24  25
ATOM     25  C   UNL     1      -3.056  13.088  23.577  0.00  0.00    +0.000 C 
ATOM     26  O   UNL     1      -3.834  12.173  23.360  0.00  0.00    +0.000 OA
BRANCH  25  27
ATOM     27  C   UNL     1      -3.452  14.396  24.202  0.00  0.00    +0.000 A 
ATOM     28  C   UNL     1      -2.546  15.013  25.084  0.00  0.00    +0.000 A 
ATOM     29  C   UNL     1      -2.791  16.306  25.565  0.00  0.00    +0.000 A 
ATOM     30  C   UNL     1      -3.948  16.973  25.183  0.00  0.00    +0.000 A 
ATOM     31  F   UNL     1      -4.156  18.230  25.600  0.00  0.00    +0.000 F 
ATOM     32  C   UNL     1      -4.877  16.367  24.344  0.00  0.00    +0.000 A 
ATOM     33  C   UNL     1      -4.635  15.075  23.856  0.00  0.00    +0.000 A 
ENDBRANCH  25  27
ENDBRANCH  24  25
ENDBRANCH   3  24
TORSDOF 7
ENDMDL
MODEL 8
REMARK VINA RESULT:      -6.8      7.668     10.996
REMARK  Name = 
REMARK  8 active torsions:
REMARK  status: ('A' for Active; 'I' for Inactive)
REMARK    1  A    between atoms: C_1  and  C_2
REMARK    2  A    between atoms: C_2  and  C_3
REMARK    3  A    between atoms: C_3  and  N_4
REMARK    4  A    between atoms: C_5  and  C_6
REMARK    5  A    between atoms: C_6  and  C_8
REMARK    6  A    between atoms: C_14  and  O_15
REMARK    7  A    between atoms: O_15  and  C_16
REMARK    8  A    between atoms: C_16  and  C_18
REMARK                            x       y       z     vdW  Elec       q    Type
REMARK                         _______ _______ _______ _____ _____    ______ ____
ROOT
ATOM      1  N   UNL     1      -1.467  11.840  20.830  0.00  0.00    +0.000 N 
ATOM      2  C   UNL     1      -2.775  12.514  20.870  0.00  0.00    +0.000 C 
ATOM      3  C   UNL     1      -3.646  12.315  19.838  0.00  0.00    +0.000 C 
ATOM      4  C   UNL     1      -3.343  11.636  18.548  0.00  0.00    +0.000 A 
ATOM      5  C   UNL     1      -4.244  11.661  17.465  0.00  0.00    +0.000 A 
ATOM      6  C   UNL     1      -3.937  11.084  16.222  0.00  0.00    +0.000 A 
ATOM      7  C   UNL     1      -2.715  10.460  16.021  0.00  0.00    +0.000 A 
ATOM      8  C   UNL     1      -1.818  10.401  17.071  0.00  0.00    +0.000 A 
ATOM      9  C   UNL     1      -2.149  10.979  18.311  0.00  0.00    +0.000 A 
ATOM     10  S   UNL     1      -0.969  10.850  19.568  0.00  0.00    +0.000 S 
ATOM     11  O   UNL     1      -1.002   9.475  20.025  0.00  0.00    +0.000 OA
ATOM     12  O   UNL     1       0.253  11.417  19.029  0.00  0.00    +0.000 OA
ENDROOT
BRANCH   2  13
ATOM     13  C   UNL     1      -3.053  13.407  22.081  0.00  0.00    +0.000 C 
ATOM     14  O   UNL     1      -3.317  12.938  23.190  0.00  0.00    +0.000 OA
BRANCH  13  15
ATOM     15  C   UNL     1      -3.028  14.893  22.045  0.00  0.00    +0.000 A 
ATOM     16  C   UNL     1      -3.375  15.562  23.232  0.00  0.00    +0.000 A 
ATOM     17  C   UNL     1      -3.487  16.950  23.264  0.00  0.00    +0.000 A 
ATOM     18  C   UNL     1      -3.239  17.686  22.110  0.00  0.00    +0.000 A 
ATOM     19  C   UNL     1      -2.815  17.038  20.948  0.00  0.00    +0.000 A 
ATOM     20  C   UNL     1      -2.674  15.646  20.921  0.00  0.00    +0.000 A 
ENDBRANCH  13  15
ENDBRANCH   2  13
BRANCH   1  21
ATOM     21  C   UNL     1      -0.501  11.779  21.974  0.00  0.00    +0.000 C 
BRANCH  21  23
ATOM     22  C   UNL     1       0.049   9.627  23.181  0.00  0.00    +0.000 C 
ATOM     23  C   UNL     1      -0.959  10.753  23.010  0.00  0.00    +0.000 C 
ENDBRANCH  21  23
ENDBRANCH   1  21
BRANCH   3  24
ATOM     24  O   UNL     1      -4.954  12.912  19.787  0.00  0.00    +0.000 OA
BRANCH  24  25
ATOM     25  C   UNL     1      -5.920  12.561  20.690  0.00  0.00    +0.000 C 
ATOM     26  O   UNL     1      -6.258  11.425  20.976  0.00  0.00    +0.000 OA
BRANCH  25  27
ATOM     27  C   UNL     1      -6.422  13.790  21.395  0.00  0.00    +0.000 A 
ATOM     28  C   UNL     1      -6.794  13.676  22.746  0.00  0.00    +0.000 A 
ATOM     29  C   UNL     1      -7.112  14.816  23.496  0.00  0.00    +0.000 A 
ATOM     30  C   UNL     1      -7.078  16.067  22.890  0.00  0.00    +0.000 A 
ATOM     31  F   UNL     1      -7.329  17.163  23.620  0.00  0.00    +0.000 F 
ATOM     32  C   UNL     1      -6.751  16.199  21.545  0.00  0.00    +0.000 A 
ATOM     33  C   UNL     1      -6.428  15.062  20.792  0.00  0.00    +0.000 A 
ENDBRANCH  25  27
ENDBRANCH  24  25
ENDBRANCH   3  24
TORSDOF 7
ENDMDL
MODEL 9
REMARK VINA RESULT:      -6.8      6.884     11.223
REMARK  Name = 
REMARK  8 active torsions:
REMARK  status: ('A' for Active; 'I' for Inactive)
REMARK    1  A    between atoms: C_1  and  C_2
REMARK    2  A    between atoms: C_2  and  C_3
REMARK    3  A    between atoms: C_3  and  N_4
REMARK    4  A    between atoms: C_5  and  C_6
REMARK    5  A    between atoms: C_6  and  C_8
REMARK    6  A    between atoms: C_14  and  O_15
REMARK    7  A    between atoms: O_15  and  C_16
REMARK    8  A    between atoms: C_16  and  C_18
REMARK                            x       y       z     vdW  Elec       q    Type
REMARK                         _______ _______ _______ _____ _____    ______ ____
ROOT
ATOM      1  N   UNL     1      -3.632  11.910  18.845  0.00  0.00    +0.000 N 
ATOM      2  C   UNL     1      -3.451  12.613  20.126  0.00  0.00    +0.000 C 
ATOM      3  C   UNL     1      -2.253  12.502  20.769  0.00  0.00    +0.000 C 
ATOM      4  C   UNL     1      -1.147  11.570  20.417  0.00  0.00    +0.000 A 
ATOM      5  C   UNL     1      -0.034  11.383  21.262  0.00  0.00    +0.000 A 
ATOM      6  C   UNL     1       0.978  10.454  20.973  0.00  0.00    +0.000 A 
ATOM      7  C   UNL     1       0.912   9.680  19.825  0.00  0.00    +0.000 A 
ATOM      8  C   UNL     1      -0.156   9.855  18.965  0.00  0.00    +0.000 A 
ATOM      9  C   UNL     1      -1.156  10.798  19.270  0.00  0.00    +0.000 A 
ATOM     10  S   UNL     1      -2.449  10.953  18.133  0.00  0.00    +0.000 S 
ATOM     11  O   UNL     1      -1.911  11.664  16.992  0.00  0.00    +0.000 OA
ATOM     12  O   UNL     1      -3.006   9.622  17.976  0.00  0.00    +0.000 OA
ENDROOT
BRANCH   2  13
ATOM     13  C   UNL     1      -4.646  13.416  20.645  0.00  0.00    +0.000 C 
ATOM     14  O   UNL     1      -4.971  14.496  20.147  0.00  0.00    +0.000 OA
BRANCH  13  15
ATOM     15  C   UNL     1      -5.516  12.983  21.770  0.00  0.00    +0.000 A 
ATOM     16  C   UNL     1      -6.759  12.422  21.428  0.00  0.00    +0.000 A 
ATOM     17  C   UNL     1      -7.688  12.089  22.413  0.00  0.00    +0.000 A 
ATOM     18  C   UNL     1      -7.375  12.303  23.751  0.00  0.00    +0.000 A 
ATOM     19  C   UNL     1      -6.113  12.784  24.105  0.00  0.00    +0.000 A 
ATOM     20  C   UNL     1      -5.168  13.092  23.120  0.00  0.00    +0.000 A 
ENDBRANCH  13  15
ENDBRANCH   2  13
BRANCH   1  21
ATOM     21  C   UNL     1      -4.793  12.107  17.917  0.00  0.00    +0.000 C 
BRANCH  21  23
ATOM     22  C   UNL     1      -7.284  11.721  18.110  0.00  0.00    +0.000 C 
ATOM     23  C   UNL     1      -5.900  11.098  18.221  0.00  0.00    +0.000 C 
ENDBRANCH  21  23
ENDBRANCH   1  21
BRANCH   3  24
ATOM     24  O   UNL     1      -1.967  13.162  22.015  0.00  0.00    +0.000 OA
BRANCH  24  25
ATOM     25  C   UNL     1      -1.521  14.455  22.038  0.00  0.00    +0.000 C 
ATOM     26  O   UNL     1      -0.682  14.939  21.297  0.00  0.00    +0.000 OA
BRANCH  25  27
ATOM     27  C   UNL     1      -2.322  15.248  23.032  0.00  0.00    +0.000 A 
ATOM     28  C   UNL     1      -3.176  16.254  22.546  0.00  0.00    +0.000 A 
ATOM     29  C   UNL     1      -4.065  16.911  23.408  0.00  0.00    +0.000 A 
ATOM     30  C   UNL     1      -4.085  16.577  24.757  0.00  0.00    +0.000 A 
ATOM     31  F   UNL     1      -4.972  17.166  25.571  0.00  0.00    +0.000 F 
ATOM     32  C   UNL     1      -3.222  15.613  25.266  0.00  0.00    +0.000 A 
ATOM     33  C   UNL     1      -2.334  14.950  24.408  0.00  0.00    +0.000 A 
ENDBRANCH  25  27
ENDBRANCH  24  25
ENDBRANCH   3  24
TORSDOF 7
ENDMDL
