MODEL 1
REMARK VINA RESULT:      -8.6      0.000      0.000
REMARK  Name = 
REMARK  7 active torsions:
REMARK  status: ('A' for Active; 'I' for Inactive)
REMARK    1  A    between atoms: C_2  and  C_23
REMARK    2  A    between atoms: N_3  and  C_4
REMARK    3  A    between atoms: C_4  and  C_5
REMARK    4  A    between atoms: C_5  and  C_6
REMARK    5  A    between atoms: C_6  and  C_8
REMARK    6  A    between atoms: C_8  and  N_9
REMARK    7  A    between atoms: N_12  and  C_13
REMARK                            x       y       z     vdW  Elec       q    Type
REMARK                         _______ _______ _______ _____ _____    ______ ____
ROOT
ATOM      1  C   UNL     1       3.383   2.294  18.877  0.00  0.00    +0.000 C 
ATOM      2  F   UNL     1       3.766   1.265  18.066  0.00  0.00    +0.000 F 
ENDROOT
BRANCH   1   3
ATOM      3  C   UNL     1       4.446   2.443  19.958  0.00  0.00    +0.000 C 
BRANCH   3   4
ATOM      4  C   UNL     1       5.325   3.641  19.597  0.00  0.00    +0.000 C 
BRANCH   4   7
ATOM      5  O   UNL     1       5.926   5.927  18.054  0.00  0.00    +0.000 OA
ATOM      6  C   UNL     1       5.935   4.825  17.512  0.00  0.00    +0.000 C 
ATOM      7  N   UNL     1       5.695   3.658  18.204  0.00  0.00    +0.000 N 
ATOM      8  H   UNL     1       5.711   2.792  17.675  0.00  0.00    +0.000 HD
BRANCH   6   9
ATOM      9  C   UNL     1       6.191   4.623  16.104  0.00  0.00    +0.000 A 
ATOM     10  C   UNL     1       5.647   3.735  15.195  0.00  0.00    +0.000 A 
ATOM     11  C   UNL     1       6.267   3.993  13.944  0.00  0.00    +0.000 A 
ATOM     12  C   UNL     1       6.153   3.475  12.644  0.00  0.00    +0.000 A 
ATOM     13  C   UNL     1       6.961   4.015  11.634  0.00  0.00    +0.000 A 
ATOM     14  C   UNL     1       7.859   5.050  11.905  0.00  0.00    +0.000 A 
ATOM     15  C   UNL     1       7.981   5.581  13.193  0.00  0.00    +0.000 A 
ATOM     16  C   UNL     1       7.164   5.025  14.174  0.00  0.00    +0.000 A 
ATOM     17  O   UNL     1       7.128   5.407  15.479  0.00  0.00    +0.000 OA
ENDBRANCH   6   9
ENDBRANCH   4   7
ENDBRANCH   3   4
ENDBRANCH   1   3
BRANCH   1  18
ATOM     18  C   UNL     1       1.968   2.013  19.418  0.00  0.00    +0.000 C 
BRANCH  18  19
ATOM     19  N   UNL     1       1.015   3.125  19.213  0.00  0.00    +0.000 NA
ATOM     20  C   UNL     1       0.757   3.878  20.457  0.00  0.00    +0.000 C 
ATOM     21  C   UNL     1       1.889   4.848  20.862  0.00  0.00    +0.000 C 
ATOM     22  N   UNL     1       2.174   5.805  19.782  0.00  0.00    +0.000 N 
ATOM     23  C   UNL     1       2.414   5.180  18.465  0.00  0.00    +0.000 C 
ATOM     24  C   UNL     1       1.373   4.077  18.139  0.00  0.00    +0.000 C 
BRANCH  22  25
ATOM     25  C   UNL     1       1.794   7.146  19.876  0.00  0.00    +0.000 A 
ATOM     26  C   UNL     1       1.099   7.601  21.017  0.00  0.00    +0.000 A 
ATOM     27  C   UNL     1       0.740   8.940  21.200  0.00  0.00    +0.000 A 
ATOM     28  C   UNL     1       1.053   9.877  20.227  0.00  0.00    +0.000 A 
ATOM     29  C   UNL     1       1.729   9.475  19.075  0.00  0.00    +0.000 A 
ATOM     30 CL   UNL     1       2.085  10.715  17.916  0.00  0.00    +0.000 Cl
ATOM     31  C   UNL     1       2.108   8.127  18.894  0.00  0.00    +0.000 A 
ATOM     32 CL   UNL     1       3.077   7.715  17.502  0.00  0.00    +0.000 Cl
ENDBRANCH  22  25
ENDBRANCH  18  19
ENDBRANCH   1  18
TORSDOF 7
ENDMDL
MODEL 2
REMARK VINA RESULT:      -7.9      7.507      9.735
REMARK  Name = 
REMARK  7 active torsions:
REMARK  status: ('A' for Active; 'I' for Inactive)
REMARK    1  A    between atoms: C_2  and  C_23
REMARK    2  A    between atoms: N_3  and  C_4
REMARK    3  A    between atoms: C_4  and  C_5
REMARK    4  A    between atoms: C_5  and  C_6
REMARK    5  A    between atoms: C_6  and  C_8
REMARK    6  A    between atoms: C_8  and  N_9
REMARK    7  A    between atoms: N_12  and  C_13
REMARK                            x       y       z     vdW  Elec       q    Type
REMARK                         _______ _______ _______ _____ _____    ______ ____
ROOT
ATOM      1  C   UNL     1       8.395   8.812  18.914  0.00  0.00    +0.000 C 
ATOM      2  F   UNL     1       9.001   7.616  19.171  0.00  0.00    +0.000 F 
ENDROOT
BRANCH   1   3
ATOM      3  C   UNL     1       7.880   8.764  17.481  0.00  0.00    +0.000 C 
BRANCH   3   4
ATOM      4  C   UNL     1       7.629   7.301  17.116  0.00  0.00    +0.000 C 
BRANCH   4   7
ATOM      5  O   UNL     1       7.136   4.555  17.549  0.00  0.00    +0.000 OA
ATOM      6  C   UNL     1       6.322   5.377  17.960  0.00  0.00    +0.000 C 
ATOM      7  N   UNL     1       6.510   6.736  17.826  0.00  0.00    +0.000 N 
ATOM      8  H   UNL     1       5.780   7.343  18.186  0.00  0.00    +0.000 HD
BRANCH   6   9
ATOM      9  C   UNL     1       5.086   5.023  18.621  0.00  0.00    +0.000 A 
ATOM     10  C   UNL     1       4.062   5.806  19.121  0.00  0.00    +0.000 A 
ATOM     11  C   UNL     1       3.088   4.921  19.654  0.00  0.00    +0.000 A 
ATOM     12  C   UNL     1       1.835   5.064  20.270  0.00  0.00    +0.000 A 
ATOM     13  C   UNL     1       1.146   3.909  20.664  0.00  0.00    +0.000 A 
ATOM     14  C   UNL     1       1.685   2.638  20.449  0.00  0.00    +0.000 A 
ATOM     15  C   UNL     1       2.930   2.478  19.832  0.00  0.00    +0.000 A 
ATOM     16  C   UNL     1       3.588   3.644  19.450  0.00  0.00    +0.000 A 
ATOM     17  O   UNL     1       4.798   3.699  18.831  0.00  0.00    +0.000 OA
ENDBRANCH   6   9
ENDBRANCH   4   7
ENDBRANCH   3   4
ENDBRANCH   1   3
BRANCH   1  18
ATOM     18  C   UNL     1       9.391   9.954  19.189  0.00  0.00    +0.000 C 
BRANCH  18  19
ATOM     19  N   UNL     1       9.398  11.007  18.151  0.00  0.00    +0.000 NA
ATOM     20  C   UNL     1       8.639  12.204  18.563  0.00  0.00    +0.000 C 
ATOM     21  C   UNL     1       9.379  13.113  19.568  0.00  0.00    +0.000 C 
ATOM     22  N   UNL     1      10.682  13.540  19.034  0.00  0.00    +0.000 N 
ATOM     23  C   UNL     1      11.530  12.434  18.548  0.00  0.00    +0.000 C 
ATOM     24  C   UNL     1      10.737  11.422  17.678  0.00  0.00    +0.000 C 
BRANCH  22  25
ATOM     25  C   UNL     1      10.897  14.849  18.596  0.00  0.00    +0.000 A 
ATOM     26  C   UNL     1      10.842  15.147  17.217  0.00  0.00    +0.000 A 
ATOM     27  C   UNL     1      10.991  16.445  16.718  0.00  0.00    +0.000 A 
ATOM     28  C   UNL     1      11.221  17.498  17.590  0.00  0.00    +0.000 A 
ATOM     29  C   UNL     1      11.296  17.253  18.962  0.00  0.00    +0.000 A 
ATOM     30 CL   UNL     1      11.579  18.630  19.977  0.00  0.00    +0.000 Cl
ATOM     31  C   UNL     1      11.129  15.947  19.471  0.00  0.00    +0.000 A 
ATOM     32 CL   UNL     1      11.089  15.729  21.202  0.00  0.00    +0.000 Cl
ENDBRANCH  22  25
ENDBRANCH  18  19
ENDBRANCH   1  18
TORSDOF 7
ENDMDL
MODEL 3
REMARK VINA RESULT:      -7.9      2.916      7.999
REMARK  Name = 
REMARK  7 active torsions:
REMARK  status: ('A' for Active; 'I' for Inactive)
REMARK    1  A    between atoms: C_2  and  C_23
REMARK    2  A    between atoms: N_3  and  C_4
REMARK    3  A    between atoms: C_4  and  C_5
REMARK    4  A    between atoms: C_5  and  C_6
REMARK    5  A    between atoms: C_6  and  C_8
REMARK    6  A    between atoms: C_8  and  N_9
REMARK    7  A    between atoms: N_12  and  C_13
REMARK                            x       y       z     vdW  Elec       q    Type
REMARK                         _______ _______ _______ _____ _____    ______ ____
ROOT
ATOM      1  C   UNL     1       1.731   2.823  20.447  0.00  0.00    +0.000 C 
ATOM      2  F   UNL     1       1.364   2.056  21.515  0.00  0.00    +0.000 F 
ENDROOT
BRANCH   1   3
ATOM      3  C   UNL     1       0.993   4.151  20.563  0.00  0.00    +0.000 C 
BRANCH   3   4
ATOM      4  C   UNL     1       2.011   5.228  20.934  0.00  0.00    +0.000 C 
BRANCH   4   7
ATOM      5  O   UNL     1       2.414   7.513  19.325  0.00  0.00    +0.000 OA
ATOM      6  C   UNL     1       1.687   7.601  20.311  0.00  0.00    +0.000 C 
ATOM      7  N   UNL     1       1.406   6.523  21.122  0.00  0.00    +0.000 N 
ATOM      8  H   UNL     1       0.804   6.688  21.922  0.00  0.00    +0.000 HD
BRANCH   6   9
ATOM      9  C   UNL     1       1.051   8.828  20.734  0.00  0.00    +0.000 A 
ATOM     10  C   UNL     1       1.024  10.086  20.162  0.00  0.00    +0.000 A 
ATOM     11  C   UNL     1       0.232  10.907  21.009  0.00  0.00    +0.000 A 
ATOM     12  C   UNL     1      -0.197  12.243  20.992  0.00  0.00    +0.000 A 
ATOM     13  C   UNL     1      -1.005  12.701  22.042  0.00  0.00    +0.000 A 
ATOM     14  C   UNL     1      -1.383  11.852  23.085  0.00  0.00    +0.000 A 
ATOM     15  C   UNL     1      -0.967  10.518  23.114  0.00  0.00    +0.000 A 
ATOM     16  C   UNL     1      -0.168  10.092  22.056  0.00  0.00    +0.000 A 
ATOM     17  O   UNL     1       0.328   8.835  21.900  0.00  0.00    +0.000 OA
ENDBRANCH   6   9
ENDBRANCH   4   7
ENDBRANCH   3   4
ENDBRANCH   1   3
BRANCH   1  18
ATOM     18  C   UNL     1       1.440   2.050  19.146  0.00  0.00    +0.000 C 
BRANCH  18  19
ATOM     19  N   UNL     1       2.560   2.057  18.181  0.00  0.00    +0.000 NA
ATOM     20  C   UNL     1       2.436   3.140  17.186  0.00  0.00    +0.000 C 
ATOM     21  C   UNL     1       2.813   4.540  17.717  0.00  0.00    +0.000 C 
ATOM     22  N   UNL     1       4.182   4.549  18.256  0.00  0.00    +0.000 N 
ATOM     23  C   UNL     1       4.452   3.483  19.241  0.00  0.00    +0.000 C 
ATOM     24  C   UNL     1       3.912   2.103  18.779  0.00  0.00    +0.000 C 
BRANCH  22  25
ATOM     25  C   UNL     1       5.230   5.174  17.576  0.00  0.00    +0.000 A 
ATOM     26  C   UNL     1       5.882   6.283  18.157  0.00  0.00    +0.000 A 
ATOM     27  C   UNL     1       6.974   6.917  17.556  0.00  0.00    +0.000 A 
ATOM     28  C   UNL     1       7.443   6.470  16.331  0.00  0.00    +0.000 A 
ATOM     29  C   UNL     1       6.824   5.385  15.710  0.00  0.00    +0.000 A 
ATOM     30 CL   UNL     1       7.482   4.890  14.183  0.00  0.00    +0.000 Cl
ATOM     31  C   UNL     1       5.733   4.731  16.321  0.00  0.00    +0.000 A 
ATOM     32 CL   UNL     1       5.096   3.292  15.565  0.00  0.00    +0.000 Cl
ENDBRANCH  22  25
ENDBRANCH  18  19
ENDBRANCH   1  18
TORSDOF 7
ENDMDL
MODEL 4
REMARK VINA RESULT:      -7.5      7.637      9.504
REMARK  Name = 
REMARK  7 active torsions:
REMARK  status: ('A' for Active; 'I' for Inactive)
REMARK    1  A    between atoms: C_2  and  C_23
REMARK    2  A    between atoms: N_3  and  C_4
REMARK    3  A    between atoms: C_4  and  C_5
REMARK    4  A    between atoms: C_5  and  C_6
REMARK    5  A    between atoms: C_6  and  C_8
REMARK    6  A    between atoms: C_8  and  N_9
REMARK    7  A    between atoms: N_12  and  C_13
REMARK                            x       y       z     vdW  Elec       q    Type
REMARK                         _______ _______ _______ _____ _____    ______ ____
ROOT
ATOM      1  C   UNL     1       8.809  10.179  18.544  0.00  0.00    +0.000 C 
ATOM      2  F   UNL     1       9.289   9.491  19.621  0.00  0.00    +0.000 F 
ENDROOT
BRANCH   1   3
ATOM      3  C   UNL     1       8.060   9.185  17.664  0.00  0.00    +0.000 C 
BRANCH   3   4
ATOM      4  C   UNL     1       8.333   7.779  18.199  0.00  0.00    +0.000 C 
BRANCH   4   7
ATOM      5  O   UNL     1       8.074   5.252  19.431  0.00  0.00    +0.000 OA
ATOM      6  C   UNL     1       7.123   5.706  18.799  0.00  0.00    +0.000 C 
ATOM      7  N   UNL     1       7.155   6.950  18.206  0.00  0.00    +0.000 N 
ATOM      8  H   UNL     1       6.328   7.242  17.695  0.00  0.00    +0.000 HD
BRANCH   6   9
ATOM      9  C   UNL     1       5.877   5.001  18.604  0.00  0.00    +0.000 A 
ATOM     10  C   UNL     1       4.840   5.210  17.714  0.00  0.00    +0.000 A 
ATOM     11  C   UNL     1       3.872   4.201  17.964  0.00  0.00    +0.000 A 
ATOM     12  C   UNL     1       2.631   3.844  17.412  0.00  0.00    +0.000 A 
ATOM     13  C   UNL     1       1.954   2.738  17.943  0.00  0.00    +0.000 A 
ATOM     14  C   UNL     1       2.496   1.999  18.998  0.00  0.00    +0.000 A 
ATOM     15  C   UNL     1       3.732   2.338  19.555  0.00  0.00    +0.000 A 
ATOM     16  C   UNL     1       4.382   3.440  19.004  0.00  0.00    +0.000 A 
ATOM     17  O   UNL     1       5.591   3.920  19.400  0.00  0.00    +0.000 OA
ENDBRANCH   6   9
ENDBRANCH   4   7
ENDBRANCH   3   4
ENDBRANCH   1   3
BRANCH   1  18
ATOM     18  C   UNL     1       9.978  10.892  17.837  0.00  0.00    +0.000 C 
BRANCH  18  19
ATOM     19  N   UNL     1       9.885  12.367  17.862  0.00  0.00    +0.000 NA
ATOM     20  C   UNL     1       8.856  12.846  18.807  0.00  0.00    +0.000 C 
ATOM     21  C   UNL     1       9.279  12.792  20.291  0.00  0.00    +0.000 C 
ATOM     22  N   UNL     1      10.518  13.554  20.514  0.00  0.00    +0.000 N 
ATOM     23  C   UNL     1      11.623  13.196  19.602  0.00  0.00    +0.000 C 
ATOM     24  C   UNL     1      11.154  13.078  18.128  0.00  0.00    +0.000 C 
BRANCH  22  25
ATOM     25  C   UNL     1      10.508  14.785  21.174  0.00  0.00    +0.000 A 
ATOM     26  C   UNL     1      11.163  15.896  20.599  0.00  0.00    +0.000 A 
ATOM     27  C   UNL     1      11.143  17.168  21.178  0.00  0.00    +0.000 A 
ATOM     28  C   UNL     1      10.474  17.371  22.376  0.00  0.00    +0.000 A 
ATOM     29  C   UNL     1       9.822  16.302  22.990  0.00  0.00    +0.000 A 
ATOM     30 CL   UNL     1       9.006  16.648  24.481  0.00  0.00    +0.000 Cl
ATOM     31  C   UNL     1       9.825  15.019  22.400  0.00  0.00    +0.000 A 
ATOM     32 CL   UNL     1       8.871  13.760  23.142  0.00  0.00    +0.000 Cl
ENDBRANCH  22  25
ENDBRANCH  18  19
ENDBRANCH   1  18
TORSDOF 7
ENDMDL
MODEL 5
REMARK VINA RESULT:      -7.4      5.489      7.788
REMARK  Name = 
REMARK  7 active torsions:
REMARK  status: ('A' for Active; 'I' for Inactive)
REMARK    1  A    between atoms: C_2  and  C_23
REMARK    2  A    between atoms: N_3  and  C_4
REMARK    3  A    between atoms: C_4  and  C_5
REMARK    4  A    between atoms: C_5  and  C_6
REMARK    5  A    between atoms: C_6  and  C_8
REMARK    6  A    between atoms: C_8  and  N_9
REMARK    7  A    between atoms: N_12  and  C_13
REMARK                            x       y       z     vdW  Elec       q    Type
REMARK                         _______ _______ _______ _____ _____    ______ ____
ROOT
ATOM      1  C   UNL     1       0.683   9.915  19.872  0.00  0.00    +0.000 C 
ATOM      2  F   UNL     1       0.177   9.769  18.613  0.00  0.00    +0.000 F 
ENDROOT
BRANCH   1   3
ATOM      3  C   UNL     1       0.139   8.771  20.719  0.00  0.00    +0.000 C 
BRANCH   3   4
ATOM      4  C   UNL     1       1.326   8.043  21.350  0.00  0.00    +0.000 C 
BRANCH   4   7
ATOM      5  O   UNL     1       1.441   5.298  20.701  0.00  0.00    +0.000 OA
ATOM      6  C   UNL     1       2.210   6.074  20.140  0.00  0.00    +0.000 C 
ATOM      7  N   UNL     1       2.188   7.433  20.370  0.00  0.00    +0.000 N 
ATOM      8  H   UNL     1       2.866   7.999  19.870  0.00  0.00    +0.000 HD
BRANCH   6   9
ATOM      9  C   UNL     1       3.217   5.661  19.188  0.00  0.00    +0.000 A 
ATOM     10  C   UNL     1       3.117   5.270  17.867  0.00  0.00    +0.000 A 
ATOM     11  C   UNL     1       4.435   4.987  17.419  0.00  0.00    +0.000 A 
ATOM     12  C   UNL     1       5.016   4.577  16.209  0.00  0.00    +0.000 A 
ATOM     13  C   UNL     1       6.406   4.408  16.156  0.00  0.00    +0.000 A 
ATOM     14  C   UNL     1       7.205   4.643  17.277  0.00  0.00    +0.000 A 
ATOM     15  C   UNL     1       6.643   5.056  18.489  0.00  0.00    +0.000 A 
ATOM     16  C   UNL     1       5.260   5.219  18.509  0.00  0.00    +0.000 A 
ATOM     17  O   UNL     1       4.530   5.621  19.584  0.00  0.00    +0.000 OA
ENDBRANCH   6   9
ENDBRANCH   4   7
ENDBRANCH   3   4
ENDBRANCH   1   3
BRANCH   1  18
ATOM     18  C   UNL     1       0.324  11.317  20.401  0.00  0.00    +0.000 C 
BRANCH  18  19
ATOM     19  N   UNL     1      -1.076  11.446  20.858  0.00  0.00    +0.000 NA
ATOM     20  C   UNL     1      -1.170  11.718  22.306  0.00  0.00    +0.000 C 
ATOM     21  C   UNL     1      -0.848  13.176  22.703  0.00  0.00    +0.000 C 
ATOM     22  N   UNL     1      -1.719  14.121  21.987  0.00  0.00    +0.000 N 
ATOM     23  C   UNL     1      -1.747  13.931  20.523  0.00  0.00    +0.000 C 
ATOM     24  C   UNL     1      -1.893  12.438  20.126  0.00  0.00    +0.000 C 
BRANCH  22  25
ATOM     25  C   UNL     1      -2.754  14.796  22.638  0.00  0.00    +0.000 A 
ATOM     26  C   UNL     1      -2.571  16.134  23.052  0.00  0.00    +0.000 A 
ATOM     27  C   UNL     1      -3.584  16.883  23.657  0.00  0.00    +0.000 A 
ATOM     28  C   UNL     1      -4.824  16.308  23.886  0.00  0.00    +0.000 A 
ATOM     29  C   UNL     1      -5.052  14.985  23.507  0.00  0.00    +0.000 A 
ATOM     30 CL   UNL     1      -6.634  14.351  23.827  0.00  0.00    +0.000 Cl
ATOM     31  C   UNL     1      -4.037  14.230  22.881  0.00  0.00    +0.000 A 
ATOM     32 CL   UNL     1      -4.428  12.631  22.300  0.00  0.00    +0.000 Cl
ENDBRANCH  22  25
ENDBRANCH  18  19
ENDBRANCH   1  18
TORSDOF 7
ENDMDL
MODEL 6
REMARK VINA RESULT:      -7.4      7.220      9.227
REMARK  Name = 
REMARK  7 active torsions:
REMARK  status: ('A' for Active; 'I' for Inactive)
REMARK    1  A    between atoms: C_2  and  C_23
REMARK    2  A    between atoms: N_3  and  C_4
REMARK    3  A    between atoms: C_4  and  C_5
REMARK    4  A    between atoms: C_5  and  C_6
REMARK    5  A    between atoms: C_6  and  C_8
REMARK    6  A    between atoms: C_8  and  N_9
REMARK    7  A    between atoms: N_12  and  C_13
REMARK                            x       y       z     vdW  Elec       q    Type
REMARK                         _______ _______ _______ _____ _____    ______ ____
ROOT
ATOM      1  C   UNL     1       8.542   9.222  18.031  0.00  0.00    +0.000 C 
ATOM      2  F   UNL     1       7.401   9.834  17.598  0.00  0.00    +0.000 F 
ENDROOT
BRANCH   1   3
ATOM      3  C   UNL     1       8.179   7.791  18.406  0.00  0.00    +0.000 C 
BRANCH   3   4
ATOM      4  C   UNL     1       7.692   7.080  17.144  0.00  0.00    +0.000 C 
BRANCH   4   7
ATOM      5  O   UNL     1       4.965   7.809  17.085  0.00  0.00    +0.000 OA
ATOM      6  C   UNL     1       5.266   6.656  17.384  0.00  0.00    +0.000 C 
ATOM      7  N   UNL     1       6.570   6.210  17.394  0.00  0.00    +0.000 N 
ATOM      8  H   UNL     1       6.729   5.245  17.663  0.00  0.00    +0.000 HD
BRANCH   6   9
ATOM      9  C   UNL     1       4.303   5.645  17.759  0.00  0.00    +0.000 A 
ATOM     10  C   UNL     1       2.924   5.680  17.831  0.00  0.00    +0.000 A 
ATOM     11  C   UNL     1       2.499   4.390  18.247  0.00  0.00    +0.000 A 
ATOM     12  C   UNL     1       1.261   3.772  18.485  0.00  0.00    +0.000 A 
ATOM     13  C   UNL     1       1.250   2.430  18.890  0.00  0.00    +0.000 A 
ATOM     14  C   UNL     1       2.438   1.714  19.052  0.00  0.00    +0.000 A 
ATOM     15  C   UNL     1       3.678   2.314  18.813  0.00  0.00    +0.000 A 
ATOM     16  C   UNL     1       3.657   3.647  18.410  0.00  0.00    +0.000 A 
ATOM     17  O   UNL     1       4.753   4.400  18.122  0.00  0.00    +0.000 OA
ENDBRANCH   6   9
ENDBRANCH   4   7
ENDBRANCH   3   4
ENDBRANCH   1   3
BRANCH   1  18
ATOM     18  C   UNL     1       9.149  10.042  19.186  0.00  0.00    +0.000 C 
BRANCH  18  19
ATOM     19  N   UNL     1      10.065  11.115  18.743  0.00  0.00    +0.000 NA
ATOM     20  C   UNL     1       9.484  11.937  17.663  0.00  0.00    +0.000 C 
ATOM     21  C   UNL     1       8.428  12.958  18.136  0.00  0.00    +0.000 C 
ATOM     22  N   UNL     1       8.983  13.853  19.164  0.00  0.00    +0.000 N 
ATOM     23  C   UNL     1       9.632  13.154  20.291  0.00  0.00    +0.000 C 
ATOM     24  C   UNL     1      10.562  12.006  19.814  0.00  0.00    +0.000 C 
BRANCH  22  25
ATOM     25  C   UNL     1       9.287  15.187  18.882  0.00  0.00    +0.000 A 
ATOM     26  C   UNL     1       8.322  16.192  19.112  0.00  0.00    +0.000 A 
ATOM     27  C   UNL     1       8.581  17.550  18.906  0.00  0.00    +0.000 A 
ATOM     28  C   UNL     1       9.823  17.953  18.441  0.00  0.00    +0.000 A 
ATOM     29  C   UNL     1      10.807  16.997  18.187  0.00  0.00    +0.000 A 
ATOM     30 CL   UNL     1      12.332  17.592  17.615  0.00  0.00    +0.000 Cl
ATOM     31  C   UNL     1      10.555  15.626  18.410  0.00  0.00    +0.000 A 
ATOM     32 CL   UNL     1      11.871  14.496  18.213  0.00  0.00    +0.000 Cl
ENDBRANCH  22  25
ENDBRANCH  18  19
ENDBRANCH   1  18
TORSDOF 7
ENDMDL
MODEL 7
REMARK VINA RESULT:      -7.4      6.003      9.094
REMARK  Name = 
REMARK  7 active torsions:
REMARK  status: ('A' for Active; 'I' for Inactive)
REMARK    1  A    between atoms: C_2  and  C_23
REMARK    2  A    between atoms: N_3  and  C_4
REMARK    3  A    between atoms: C_4  and  C_5
REMARK    4  A    between atoms: C_5  and  C_6
REMARK    5  A    between atoms: C_6  and  C_8
REMARK    6  A    between atoms: C_8  and  N_9
REMARK    7  A    between atoms: N_12  and  C_13
REMARK                            x       y       z     vdW  Elec       q    Type
REMARK                         _______ _______ _______ _____ _____    ______ ____
ROOT
ATOM      1  C   UNL     1       0.838  11.457  20.112  0.00  0.00    +0.000 C 
ATOM      2  F   UNL     1       1.266  12.753  20.128  0.00  0.00    +0.000 F 
ENDROOT
BRANCH   1   3
ATOM      3  C   UNL     1       0.610  11.070  18.656  0.00  0.00    +0.000 C 
BRANCH   3   4
ATOM      4  C   UNL     1       1.806  10.237  18.195  0.00  0.00    +0.000 C 
BRANCH   4   7
ATOM      5  O   UNL     1       3.387   8.071  17.311  0.00  0.00    +0.000 OA
ATOM      6  C   UNL     1       2.559   7.880  18.198  0.00  0.00    +0.000 C 
ATOM      7  N   UNL     1       1.780   8.893  18.714  0.00  0.00    +0.000 N 
ATOM      8  H   UNL     1       1.114   8.643  19.438  0.00  0.00    +0.000 HD
BRANCH   6   9
ATOM      9  C   UNL     1       2.306   6.589  18.796  0.00  0.00    +0.000 A 
ATOM     10  C   UNL     1       2.194   6.203  20.119  0.00  0.00    +0.000 A 
ATOM     11  C   UNL     1       1.927   4.808  20.120  0.00  0.00    +0.000 A 
ATOM     12  C   UNL     1       1.690   3.834  21.103  0.00  0.00    +0.000 A 
ATOM     13  C   UNL     1       1.448   2.515  20.696  0.00  0.00    +0.000 A 
ATOM     14  C   UNL     1       1.438   2.168  19.342  0.00  0.00    +0.000 A 
ATOM     15  C   UNL     1       1.667   3.127  18.351  0.00  0.00    +0.000 A 
ATOM     16  C   UNL     1       1.901   4.429  18.787  0.00  0.00    +0.000 A 
ATOM     17  O   UNL     1       2.135   5.499  17.981  0.00  0.00    +0.000 OA
ENDBRANCH   6   9
ENDBRANCH   4   7
ENDBRANCH   3   4
ENDBRANCH   1   3
BRANCH   1  18
ATOM     18  C   UNL     1      -0.413  11.326  21.003  0.00  0.00    +0.000 C 
BRANCH  18  19
ATOM     19  N   UNL     1      -0.857  12.602  21.604  0.00  0.00    +0.000 NA
ATOM     20  C   UNL     1      -1.914  13.257  20.807  0.00  0.00    +0.000 C 
ATOM     21  C   UNL     1      -3.316  12.629  20.968  0.00  0.00    +0.000 C 
ATOM     22  N   UNL     1      -3.728  12.614  22.380  0.00  0.00    +0.000 N 
ATOM     23  C   UNL     1      -2.736  12.016  23.296  0.00  0.00    +0.000 C 
ATOM     24  C   UNL     1      -1.296  12.520  23.014  0.00  0.00    +0.000 C 
BRANCH  22  25
ATOM     25  C   UNL     1      -4.711  13.483  22.862  0.00  0.00    +0.000 A 
ATOM     26  C   UNL     1      -6.025  13.011  23.071  0.00  0.00    +0.000 A 
ATOM     27  C   UNL     1      -7.040  13.811  23.604  0.00  0.00    +0.000 A 
ATOM     28  C   UNL     1      -6.776  15.132  23.933  0.00  0.00    +0.000 A 
ATOM     29  C   UNL     1      -5.496  15.649  23.734  0.00  0.00    +0.000 A 
ATOM     30 CL   UNL     1      -5.255  17.307  24.181  0.00  0.00    +0.000 Cl
ATOM     31  C   UNL     1      -4.464  14.839  23.212  0.00  0.00    +0.000 A 
ATOM     32 CL   UNL     1      -2.851  15.502  23.123  0.00  0.00    +0.000 Cl
ENDBRANCH  22  25
ENDBRANCH  18  19
ENDBRANCH   1  18
TORSDOF 7
ENDMDL
MODEL 8
REMARK VINA RESULT:      -7.4      7.507      9.576
REMARK  Name = 
REMARK  7 active torsions:
REMARK  status: ('A' for Active; 'I' for Inactive)
REMARK    1  A    between atoms: C_2  and  C_23
REMARK    2  A    between atoms: N_3  and  C_4
REMARK    3  A    between atoms: C_4  and  C_5
REMARK    4  A    between atoms: C_5  and  C_6
REMARK    5  A    between atoms: C_6  and  C_8
REMARK    6  A    between atoms: C_8  and  N_9
REMARK    7  A    between atoms: N_12  and  C_13
REMARK                            x       y       z     vdW  Elec       q    Type
REMARK                         _______ _______ _______ _____ _____    ______ ____
ROOT
ATOM      1  C   UNL     1       8.290   8.790  18.632  0.00  0.00    +0.000 C 
ATOM      2  F   UNL     1       8.856   7.604  19.000  0.00  0.00    +0.000 F 
ENDROOT
BRANCH   1   3
ATOM      3  C   UNL     1       7.437   8.525  17.398  0.00  0.00    +0.000 C 
BRANCH   3   4
ATOM      4  C   UNL     1       7.491   7.028  17.096  0.00  0.00    +0.000 C 
BRANCH   4   7
ATOM      5  O   UNL     1       7.514   4.360  18.021  0.00  0.00    +0.000 OA
ATOM      6  C   UNL     1       6.459   4.990  18.049  0.00  0.00    +0.000 C 
ATOM      7  N   UNL     1       6.374   6.308  17.656  0.00  0.00    +0.000 N 
ATOM      8  H   UNL     1       5.461   6.748  17.701  0.00  0.00    +0.000 HD
BRANCH   6   9
ATOM      9  C   UNL     1       5.200   4.432  18.487  0.00  0.00    +0.000 A 
ATOM     10  C   UNL     1       4.825   3.860  19.688  0.00  0.00    +0.000 A 
ATOM     11  C   UNL     1       3.457   3.497  19.562  0.00  0.00    +0.000 A 
ATOM     12  C   UNL     1       2.495   2.911  20.400  0.00  0.00    +0.000 A 
ATOM     13  C   UNL     1       1.201   2.715  19.900  0.00  0.00    +0.000 A 
ATOM     14  C   UNL     1       0.865   3.093  18.598  0.00  0.00    +0.000 A 
ATOM     15  C   UNL     1       1.810   3.682  17.752  0.00  0.00    +0.000 A 
ATOM     16  C   UNL     1       3.086   3.867  18.279  0.00  0.00    +0.000 A 
ATOM     17  O   UNL     1       4.136   4.428  17.621  0.00  0.00    +0.000 OA
ENDBRANCH   6   9
ENDBRANCH   4   7
ENDBRANCH   3   4
ENDBRANCH   1   3
BRANCH   1  18
ATOM     18  C   UNL     1       9.400   9.836  18.419  0.00  0.00    +0.000 C 
BRANCH  18  19
ATOM     19  N   UNL     1       9.202  11.086  19.184  0.00  0.00    +0.000 NA
ATOM     20  C   UNL     1      10.410  11.480  19.936  0.00  0.00    +0.000 C 
ATOM     21  C   UNL     1      11.519  12.120  19.071  0.00  0.00    +0.000 C 
ATOM     22  N   UNL     1      11.010  13.294  18.345  0.00  0.00    +0.000 N 
ATOM     23  C   UNL     1       9.773  13.044  17.578  0.00  0.00    +0.000 C 
ATOM     24  C   UNL     1       8.725  12.243  18.396  0.00  0.00    +0.000 C 
BRANCH  22  25
ATOM     25  C   UNL     1      11.369  14.592  18.715  0.00  0.00    +0.000 A 
ATOM     26  C   UNL     1      11.986  15.446  17.775  0.00  0.00    +0.000 A 
ATOM     27  C   UNL     1      12.318  16.773  18.063  0.00  0.00    +0.000 A 
ATOM     28  C   UNL     1      12.058  17.292  19.322  0.00  0.00    +0.000 A 
ATOM     29  C   UNL     1      11.461  16.484  20.291  0.00  0.00    +0.000 A 
ATOM     30 CL   UNL     1      11.166  17.219  21.834  0.00  0.00    +0.000 Cl
ATOM     31  C   UNL     1      11.108  15.149  19.998  0.00  0.00    +0.000 A 
ATOM     32 CL   UNL     1      10.234  14.237  21.203  0.00  0.00    +0.000 Cl
ENDBRANCH  22  25
ENDBRANCH  18  19
ENDBRANCH   1  18
TORSDOF 7
ENDMDL
MODEL 9
REMARK VINA RESULT:      -7.4      7.422      9.280
REMARK  Name = 
REMARK  7 active torsions:
REMARK  status: ('A' for Active; 'I' for Inactive)
REMARK    1  A    between atoms: C_2  and  C_23
REMARK    2  A    between atoms: N_3  and  C_4
REMARK    3  A    between atoms: C_4  and  C_5
REMARK    4  A    between atoms: C_5  and  C_6
REMARK    5  A    between atoms: C_6  and  C_8
REMARK    6  A    between atoms: C_8  and  N_9
REMARK    7  A    between atoms: N_12  and  C_13
REMARK                            x       y       z     vdW  Elec       q    Type
REMARK                         _______ _______ _______ _____ _____    ______ ____
ROOT
ATOM      1  C   UNL     1       9.753  10.917  18.569  0.00  0.00    +0.000 C 
ATOM      2  F   UNL     1      10.159  10.681  17.288  0.00  0.00    +0.000 F 
ENDROOT
BRANCH   1   3
ATOM      3  C   UNL     1       8.847   9.763  18.981  0.00  0.00    +0.000 C 
BRANCH   3   4
ATOM      4  C   UNL     1       8.320   9.098  17.710  0.00  0.00    +0.000 C 
BRANCH   4   7
ATOM      5  O   UNL     1       7.768   6.704  16.318  0.00  0.00    +0.000 OA
ATOM      6  C   UNL     1       7.007   7.059  17.215  0.00  0.00    +0.000 C 
ATOM      7  N   UNL     1       7.230   8.192  17.969  0.00  0.00    +0.000 N 
ATOM      8  H   UNL     1       6.544   8.416  18.683  0.00  0.00    +0.000 HD
BRANCH   6   9
ATOM      9  C   UNL     1       5.804   6.346  17.579  0.00  0.00    +0.000 A 
ATOM     10  C   UNL     1       4.484   6.540  17.220  0.00  0.00    +0.000 A 
ATOM     11  C   UNL     1       3.726   5.530  17.869  0.00  0.00    +0.000 A 
ATOM     12  C   UNL     1       2.372   5.161  17.906  0.00  0.00    +0.000 A 
ATOM     13  C   UNL     1       1.999   4.058  18.686  0.00  0.00    +0.000 A 
ATOM     14  C   UNL     1       2.948   3.333  19.412  0.00  0.00    +0.000 A 
ATOM     15  C   UNL     1       4.301   3.684  19.381  0.00  0.00    +0.000 A 
ATOM     16  C   UNL     1       4.640   4.783  18.596  0.00  0.00    +0.000 A 
ATOM     17  O   UNL     1       5.898   5.274  18.430  0.00  0.00    +0.000 OA
ENDBRANCH   6   9
ENDBRANCH   4   7
ENDBRANCH   3   4
ENDBRANCH   1   3
BRANCH   1  18
ATOM     18  C   UNL     1       9.082  12.302  18.641  0.00  0.00    +0.000 C 
BRANCH  18  19
ATOM     19  N   UNL     1       9.748  13.245  19.565  0.00  0.00    +0.000 NA
ATOM     20  C   UNL     1       8.827  14.287  20.061  0.00  0.00    +0.000 C 
ATOM     21  C   UNL     1       7.855  13.808  21.161  0.00  0.00    +0.000 C 
ATOM     22  N   UNL     1       8.589  13.244  22.304  0.00  0.00    +0.000 N 
ATOM     23  C   UNL     1       9.577  12.209  21.939  0.00  0.00    +0.000 C 
ATOM     24  C   UNL     1      10.438  12.623  20.716  0.00  0.00    +0.000 C 
BRANCH  22  25
ATOM     25  C   UNL     1       8.689  13.929  23.517  0.00  0.00    +0.000 A 
ATOM     26  C   UNL     1       9.222  15.236  23.544  0.00  0.00    +0.000 A 
ATOM     27  C   UNL     1       9.297  15.998  24.714  0.00  0.00    +0.000 A 
ATOM     28  C   UNL     1       8.852  15.465  25.914  0.00  0.00    +0.000 A 
ATOM     29  C   UNL     1       8.327  14.173  25.942  0.00  0.00    +0.000 A 
ATOM     30 CL   UNL     1       7.788  13.592  27.484  0.00  0.00    +0.000 Cl
ATOM     31  C   UNL     1       8.234  13.407  24.760  0.00  0.00    +0.000 A 
ATOM     32 CL   UNL     1       7.436  11.856  24.835  0.00  0.00    +0.000 Cl
ENDBRANCH  22  25
ENDBRANCH  18  19
ENDBRANCH   1  18
TORSDOF 7
ENDMDL
