MODEL 1
REMARK VINA RESULT:      -6.6      0.000      0.000
REMARK  Name = 
REMARK  11 active torsions:
REMARK  status: ('A' for Active; 'I' for Inactive)
REMARK    1  A    between atoms: C_1  and  N_2
REMARK    2  A    between atoms: N_2  and  C_3
REMARK    3  A    between atoms: N_2  and  C_4
REMARK    4  A    between atoms: C_4  and  C_5
REMARK    5  A    between atoms: C_5  and  C_6
REMARK    6  A    between atoms: C_5  and  C_7
REMARK    7  A    between atoms: C_5  and  C_8
REMARK    8  A    between atoms: C_8  and  N_9
REMARK    9  A    between atoms: N_9  and  C_10
REMARK   10  A    between atoms: C_10  and  C_11
REMARK   11  A    between atoms: C_14  and  C_15
REMARK                            x       y       z     vdW  Elec       q    Type
REMARK                         _______ _______ _______ _____ _____    ______ ____
ROOT
ATOM      1  C   UNL     1       3.561   4.378  18.359  0.00  0.00    +0.000 A 
ATOM      2  C   UNL     1       3.902   4.619  19.671  0.00  0.00    +0.000 A 
ATOM      3  O   UNL     1       3.420   5.837  20.026  0.00  0.00    +0.000 OA
ATOM      4  C   UNL     1       2.801   6.299  18.892  0.00  0.00    +0.000 A 
ATOM      5  N   UNL     1       2.874   5.470  17.866  0.00  0.00    +0.000 NA
ENDROOT
BRANCH   4   6
ATOM      6  C   UNL     1       2.179   7.618  18.991  0.00  0.00    +0.000 A 
ATOM      7  C   UNL     1       1.595   8.069  20.187  0.00  0.00    +0.000 A 
ATOM      8  C   UNL     1       1.011   9.337  20.270  0.00  0.00    +0.000 A 
ATOM      9  C   UNL     1       1.004  10.166  19.152  0.00  0.00    +0.000 A 
ATOM     10 BR   UNL     1       0.221  11.882  19.264  0.00  0.00    +0.000 Br
ATOM     11  C   UNL     1       1.573   9.739  17.954  0.00  0.00    +0.000 A 
ATOM     12  C   UNL     1       2.157   8.470  17.875  0.00  0.00    +0.000 A 
ENDBRANCH   4   6
BRANCH   1  13
ATOM     13  C   UNL     1       3.850   3.171  17.527  0.00  0.00    +0.000 C 
BRANCH  13  14
ATOM     14  N   UNL     1       5.228   3.269  17.039  0.00  0.00    +0.000 NA
ATOM     15  H   UNL     1       5.743   3.887  17.660  0.00  0.00    +0.000 HD
BRANCH  14  16
ATOM     16  C   UNL     1       5.316   3.773  15.666  0.00  0.00    +0.000 C 
BRANCH  16  17
ATOM     17  C   UNL     1       6.212   5.058  15.566  0.00  0.00    +0.000 C 
ATOM     18  C   UNL     1       5.282   6.284  15.488  0.00  0.00    +0.000 C 
ATOM     19  C   UNL     1       7.025   4.964  14.259  0.00  0.00    +0.000 C 
BRANCH  17  20
ATOM     20  C   UNL     1       7.112   5.152  16.847  0.00  0.00    +0.000 C 
BRANCH  20  22
ATOM     21  C   UNL     1       7.284   5.670  19.185  0.00  0.00    +0.000 C 
ATOM     22  N   UNL     1       6.879   6.195  17.871  0.00  0.00    +0.000 NA
ATOM     23  C   UNL     1       7.624   7.428  17.611  0.00  0.00    +0.000 C 
ENDBRANCH  20  22
ENDBRANCH  17  20
ENDBRANCH  16  17
ENDBRANCH  14  16
ENDBRANCH  13  14
ENDBRANCH   1  13
TORSDOF 7
ENDMDL
MODEL 2
REMARK VINA RESULT:      -6.6      1.009      1.493
REMARK  Name = 
REMARK  11 active torsions:
REMARK  status: ('A' for Active; 'I' for Inactive)
REMARK    1  A    between atoms: C_1  and  N_2
REMARK    2  A    between atoms: N_2  and  C_3
REMARK    3  A    between atoms: N_2  and  C_4
REMARK    4  A    between atoms: C_4  and  C_5
REMARK    5  A    between atoms: C_5  and  C_6
REMARK    6  A    between atoms: C_5  and  C_7
REMARK    7  A    between atoms: C_5  and  C_8
REMARK    8  A    between atoms: C_8  and  N_9
REMARK    9  A    between atoms: N_9  and  C_10
REMARK   10  A    between atoms: C_10  and  C_11
REMARK   11  A    between atoms: C_14  and  C_15
REMARK                            x       y       z     vdW  Elec       q    Type
REMARK                         _______ _______ _______ _____ _____    ______ ____
ROOT
ATOM      1  C   UNL     1       3.606   4.217  19.391  0.00  0.00    +0.000 A 
ATOM      2  C   UNL     1       2.262   3.922  19.347  0.00  0.00    +0.000 A 
ATOM      3  O   UNL     1       1.565   5.086  19.333  0.00  0.00    +0.000 OA
ATOM      4  C   UNL     1       2.531   6.059  19.377  0.00  0.00    +0.000 A 
ATOM      5  N   UNL     1       3.764   5.588  19.431  0.00  0.00    +0.000 NA
ENDROOT
BRANCH   4   6
ATOM      6  C   UNL     1       2.053   7.441  19.372  0.00  0.00    +0.000 A 
ATOM      7  C   UNL     1       2.117   8.236  18.215  0.00  0.00    +0.000 A 
ATOM      8  C   UNL     1       1.649   9.555  18.221  0.00  0.00    +0.000 A 
ATOM      9  C   UNL     1       1.114  10.089  19.389  0.00  0.00    +0.000 A 
ATOM     10 BR   UNL     1       0.474  11.867  19.397  0.00  0.00    +0.000 Br
ATOM     11  C   UNL     1       1.043   9.321  20.549  0.00  0.00    +0.000 A 
ATOM     12  C   UNL     1       1.513   8.002  20.539  0.00  0.00    +0.000 A 
ENDBRANCH   4   6
BRANCH   1  13
ATOM     13  C   UNL     1       4.767   3.276  19.404  0.00  0.00    +0.000 C 
BRANCH  13  14
ATOM     14  N   UNL     1       5.755   3.756  18.434  0.00  0.00    +0.000 NA
ATOM     15  H   UNL     1       6.074   4.674  18.730  0.00  0.00    +0.000 HD
BRANCH  14  16
ATOM     16  C   UNL     1       5.227   3.838  17.070  0.00  0.00    +0.000 C 
BRANCH  16  17
ATOM     17  C   UNL     1       5.899   4.995  16.248  0.00  0.00    +0.000 C 
ATOM     18  C   UNL     1       4.906   6.172  16.183  0.00  0.00    +0.000 C 
ATOM     19  C   UNL     1       6.148   4.473  14.818  0.00  0.00    +0.000 C 
BRANCH  17  20
ATOM     20  C   UNL     1       7.211   5.444  16.979  0.00  0.00    +0.000 C 
BRANCH  20  22
ATOM     21  C   UNL     1       7.993   6.042  19.169  0.00  0.00    +0.000 C 
ATOM     22  N   UNL     1       7.185   6.492  18.024  0.00  0.00    +0.000 NA
ATOM     23  C   UNL     1       7.710   7.777  17.559  0.00  0.00    +0.000 C 
ENDBRANCH  20  22
ENDBRANCH  17  20
ENDBRANCH  16  17
ENDBRANCH  14  16
ENDBRANCH  13  14
ENDBRANCH   1  13
TORSDOF 7
ENDMDL
MODEL 3
REMARK VINA RESULT:      -6.6      0.137      1.037
REMARK  Name = 
REMARK  11 active torsions:
REMARK  status: ('A' for Active; 'I' for Inactive)
REMARK    1  A    between atoms: C_1  and  N_2
REMARK    2  A    between atoms: N_2  and  C_3
REMARK    3  A    between atoms: N_2  and  C_4
REMARK    4  A    between atoms: C_4  and  C_5
REMARK    5  A    between atoms: C_5  and  C_6
REMARK    6  A    between atoms: C_5  and  C_7
REMARK    7  A    between atoms: C_5  and  C_8
REMARK    8  A    between atoms: C_8  and  N_9
REMARK    9  A    between atoms: N_9  and  C_10
REMARK   10  A    between atoms: C_10  and  C_11
REMARK   11  A    between atoms: C_14  and  C_15
REMARK                            x       y       z     vdW  Elec       q    Type
REMARK                         _______ _______ _______ _____ _____    ______ ____
ROOT
ATOM      1  C   UNL     1       3.572   4.404  18.261  0.00  0.00    +0.000 A 
ATOM      2  C   UNL     1       3.999   4.653  19.546  0.00  0.00    +0.000 A 
ATOM      3  O   UNL     1       3.509   5.856  19.939  0.00  0.00    +0.000 OA
ATOM      4  C   UNL     1       2.798   6.302  18.854  0.00  0.00    +0.000 A 
ATOM      5  N   UNL     1       2.820   5.477  17.823  0.00  0.00    +0.000 NA
ENDROOT
BRANCH   4   6
ATOM      6  C   UNL     1       2.147   7.603  19.002  0.00  0.00    +0.000 A 
ATOM      7  C   UNL     1       2.000   8.479  17.913  0.00  0.00    +0.000 A 
ATOM      8  C   UNL     1       1.369   9.718  18.067  0.00  0.00    +0.000 A 
ATOM      9  C   UNL     1       0.880  10.091  19.315  0.00  0.00    +0.000 A 
ATOM     10 BR   UNL     1       0.020  11.761  19.523  0.00  0.00    +0.000 Br
ATOM     11  C   UNL     1       1.018   9.240  20.410  0.00  0.00    +0.000 A 
ATOM     12  C   UNL     1       1.650   8.001  20.252  0.00  0.00    +0.000 A 
ENDBRANCH   4   6
BRANCH   1  13
ATOM     13  C   UNL     1       3.833   3.207  17.406  0.00  0.00    +0.000 C 
BRANCH  13  14
ATOM     14  N   UNL     1       5.231   3.251  16.971  0.00  0.00    +0.000 NA
ATOM     15  H   UNL     1       5.747   3.847  17.613  0.00  0.00    +0.000 HD
BRANCH  14  16
ATOM     16  C   UNL     1       5.392   3.754  15.604  0.00  0.00    +0.000 C 
BRANCH  16  17
ATOM     17  C   UNL     1       6.263   5.059  15.555  0.00  0.00    +0.000 C 
ATOM     18  C   UNL     1       5.308   6.268  15.502  0.00  0.00    +0.000 C 
ATOM     19  C   UNL     1       7.093   5.022  14.256  0.00  0.00    +0.000 C 
BRANCH  17  20
ATOM     20  C   UNL     1       7.144   5.132  16.850  0.00  0.00    +0.000 C 
BRANCH  20  22
ATOM     21  C   UNL     1       7.397   5.685  19.172  0.00  0.00    +0.000 C 
ATOM     22  N   UNL     1       6.920   6.180  17.870  0.00  0.00    +0.000 NA
ATOM     23  C   UNL     1       7.611   7.433  17.565  0.00  0.00    +0.000 C 
ENDBRANCH  20  22
ENDBRANCH  17  20
ENDBRANCH  16  17
ENDBRANCH  14  16
ENDBRANCH  13  14
ENDBRANCH   1  13
TORSDOF 7
ENDMDL
MODEL 4
REMARK VINA RESULT:      -6.5      3.647      6.362
REMARK  Name = 
REMARK  11 active torsions:
REMARK  status: ('A' for Active; 'I' for Inactive)
REMARK    1  A    between atoms: C_1  and  N_2
REMARK    2  A    between atoms: N_2  and  C_3
REMARK    3  A    between atoms: N_2  and  C_4
REMARK    4  A    between atoms: C_4  and  C_5
REMARK    5  A    between atoms: C_5  and  C_6
REMARK    6  A    between atoms: C_5  and  C_7
REMARK    7  A    between atoms: C_5  and  C_8
REMARK    8  A    between atoms: C_8  and  N_9
REMARK    9  A    between atoms: N_9  and  C_10
REMARK   10  A    between atoms: C_10  and  C_11
REMARK   11  A    between atoms: C_14  and  C_15
REMARK                            x       y       z     vdW  Elec       q    Type
REMARK                         _______ _______ _______ _____ _____    ______ ____
ROOT
ATOM      1  C   UNL     1       7.236   6.688  17.272  0.00  0.00    +0.000 A 
ATOM      2  C   UNL     1       7.886   6.347  18.437  0.00  0.00    +0.000 A 
ATOM      3  O   UNL     1       8.456   7.463  18.956  0.00  0.00    +0.000 OA
ATOM      4  C   UNL     1       8.129   8.455  18.066  0.00  0.00    +0.000 A 
ATOM      5  N   UNL     1       7.417   8.037  17.035  0.00  0.00    +0.000 NA
ENDROOT
BRANCH   4   6
ATOM      6  C   UNL     1       8.623   9.794  18.384  0.00  0.00    +0.000 A 
ATOM      7  C   UNL     1       8.364  10.892  17.546  0.00  0.00    +0.000 A 
ATOM      8  C   UNL     1       8.836  12.169  17.867  0.00  0.00    +0.000 A 
ATOM      9  C   UNL     1       9.576  12.357  19.031  0.00  0.00    +0.000 A 
ATOM     10 BR   UNL     1      10.208  14.083  19.469  0.00  0.00    +0.000 Br
ATOM     11  C   UNL     1       9.848  11.282  19.875  0.00  0.00    +0.000 A 
ATOM     12  C   UNL     1       9.374  10.006  19.551  0.00  0.00    +0.000 A 
ENDBRANCH   4   6
BRANCH   1  13
ATOM     13  C   UNL     1       6.448   5.812  16.352  0.00  0.00    +0.000 C 
BRANCH  13  14
ATOM     14  N   UNL     1       5.036   6.187  16.460  0.00  0.00    +0.000 NA
ATOM     15  H   UNL     1       4.967   7.002  17.062  0.00  0.00    +0.000 HD
BRANCH  14  16
ATOM     16  C   UNL     1       4.197   5.112  16.998  0.00  0.00    +0.000 C 
BRANCH  16  17
ATOM     17  C   UNL     1       3.377   5.577  18.253  0.00  0.00    +0.000 C 
ATOM     18  C   UNL     1       3.051   7.074  18.082  0.00  0.00    +0.000 C 
ATOM     19  C   UNL     1       4.275   5.401  19.494  0.00  0.00    +0.000 C 
BRANCH  17  20
ATOM     20  C   UNL     1       2.048   4.748  18.329  0.00  0.00    +0.000 C 
BRANCH  20  22
ATOM     21  C   UNL     1       0.936   3.953  20.302  0.00  0.00    +0.000 C 
ATOM     22  N   UNL     1       1.912   3.604  19.258  0.00  0.00    +0.000 NA
ATOM     23  C   UNL     1       1.466   2.378  18.593  0.00  0.00    +0.000 C 
ENDBRANCH  20  22
ENDBRANCH  17  20
ENDBRANCH  16  17
ENDBRANCH  14  16
ENDBRANCH  13  14
ENDBRANCH   1  13
TORSDOF 7
ENDMDL
MODEL 5
REMARK VINA RESULT:      -6.5      1.017      1.161
REMARK  Name = 
REMARK  11 active torsions:
REMARK  status: ('A' for Active; 'I' for Inactive)
REMARK    1  A    between atoms: C_1  and  N_2
REMARK    2  A    between atoms: N_2  and  C_3
REMARK    3  A    between atoms: N_2  and  C_4
REMARK    4  A    between atoms: C_4  and  C_5
REMARK    5  A    between atoms: C_5  and  C_6
REMARK    6  A    between atoms: C_5  and  C_7
REMARK    7  A    between atoms: C_5  and  C_8
REMARK    8  A    between atoms: C_8  and  N_9
REMARK    9  A    between atoms: N_9  and  C_10
REMARK   10  A    between atoms: C_10  and  C_11
REMARK   11  A    between atoms: C_14  and  C_15
REMARK                            x       y       z     vdW  Elec       q    Type
REMARK                         _______ _______ _______ _____ _____    ______ ____
ROOT
ATOM      1  C   UNL     1       3.537   4.141  19.726  0.00  0.00    +0.000 A 
ATOM      2  C   UNL     1       2.232   3.938  20.113  0.00  0.00    +0.000 A 
ATOM      3  O   UNL     1       1.574   5.124  20.052  0.00  0.00    +0.000 OA
ATOM      4  C   UNL     1       2.526   6.017  19.630  0.00  0.00    +0.000 A 
ATOM      5  N   UNL     1       3.718   5.480  19.439  0.00  0.00    +0.000 NA
ENDROOT
BRANCH   4   6
ATOM      6  C   UNL     1       2.084   7.402  19.472  0.00  0.00    +0.000 A 
ATOM      7  C   UNL     1       1.485   8.107  20.530  0.00  0.00    +0.000 A 
ATOM      8  C   UNL     1       1.074   9.434  20.368  0.00  0.00    +0.000 A 
ATOM      9  C   UNL     1       1.258  10.067  19.142  0.00  0.00    +0.000 A 
ATOM     10 BR   UNL     1       0.710  11.862  18.924  0.00  0.00    +0.000 Br
ATOM     11  C   UNL     1       1.847   9.386  18.078  0.00  0.00    +0.000 A 
ATOM     12  C   UNL     1       2.257   8.059  18.244  0.00  0.00    +0.000 A 
ENDBRANCH   4   6
BRANCH   1  13
ATOM     13  C   UNL     1       4.643   3.142  19.612  0.00  0.00    +0.000 C 
BRANCH  13  14
ATOM     14  N   UNL     1       5.570   3.600  18.575  0.00  0.00    +0.000 NA
ATOM     15  H   UNL     1       6.052   4.425  18.920  0.00  0.00    +0.000 HD
BRANCH  14  16
ATOM     16  C   UNL     1       4.904   3.919  17.309  0.00  0.00    +0.000 C 
BRANCH  16  17
ATOM     17  C   UNL     1       5.843   4.711  16.332  0.00  0.00    +0.000 C 
ATOM     18  C   UNL     1       5.082   5.959  15.845  0.00  0.00    +0.000 C 
ATOM     19  C   UNL     1       6.138   3.801  15.122  0.00  0.00    +0.000 C 
BRANCH  17  20
ATOM     20  C   UNL     1       7.136   5.144  17.108  0.00  0.00    +0.000 C 
BRANCH  20  22
ATOM     21  C   UNL     1       7.903   5.849  19.271  0.00  0.00    +0.000 C 
ATOM     22  N   UNL     1       7.101   6.241  18.101  0.00  0.00    +0.000 NA
ATOM     23  C   UNL     1       7.625   7.503  17.577  0.00  0.00    +0.000 C 
ENDBRANCH  20  22
ENDBRANCH  17  20
ENDBRANCH  16  17
ENDBRANCH  14  16
ENDBRANCH  13  14
ENDBRANCH   1  13
TORSDOF 7
ENDMDL
MODEL 6
REMARK VINA RESULT:      -6.5      3.340      5.827
REMARK  Name = 
REMARK  11 active torsions:
REMARK  status: ('A' for Active; 'I' for Inactive)
REMARK    1  A    between atoms: C_1  and  N_2
REMARK    2  A    between atoms: N_2  and  C_3
REMARK    3  A    between atoms: N_2  and  C_4
REMARK    4  A    between atoms: C_4  and  C_5
REMARK    5  A    between atoms: C_5  and  C_6
REMARK    6  A    between atoms: C_5  and  C_7
REMARK    7  A    between atoms: C_5  and  C_8
REMARK    8  A    between atoms: C_8  and  N_9
REMARK    9  A    between atoms: N_9  and  C_10
REMARK   10  A    between atoms: C_10  and  C_11
REMARK   11  A    between atoms: C_14  and  C_15
REMARK                            x       y       z     vdW  Elec       q    Type
REMARK                         _______ _______ _______ _____ _____    ______ ____
ROOT
ATOM      1  C   UNL     1       7.268   6.376  17.171  0.00  0.00    +0.000 A 
ATOM      2  C   UNL     1       7.808   6.082  18.402  0.00  0.00    +0.000 A 
ATOM      3  O   UNL     1       8.319   7.222  18.934  0.00  0.00    +0.000 OA
ATOM      4  C   UNL     1       8.070   8.179  17.982  0.00  0.00    +0.000 A 
ATOM      5  N   UNL     1       7.460   7.718  16.905  0.00  0.00    +0.000 NA
ENDROOT
BRANCH   4   6
ATOM      6  C   UNL     1       8.522   9.533  18.298  0.00  0.00    +0.000 A 
ATOM      7  C   UNL     1       9.337   9.795  19.413  0.00  0.00    +0.000 A 
ATOM      8  C   UNL     1       9.769  11.094  19.700  0.00  0.00    +0.000 A 
ATOM      9  C   UNL     1       9.387  12.145  18.871  0.00  0.00    +0.000 A 
ATOM     10 BR   UNL     1       9.976  13.899  19.251  0.00  0.00    +0.000 Br
ATOM     11  C   UNL     1       8.576  11.910  17.762  0.00  0.00    +0.000 A 
ATOM     12  C   UNL     1       8.146  10.608  17.479  0.00  0.00    +0.000 A 
ENDBRANCH   4   6
BRANCH   1  13
ATOM     13  C   UNL     1       6.577   5.461  16.213  0.00  0.00    +0.000 C 
BRANCH  13  14
ATOM     14  N   UNL     1       6.132   4.277  16.951  0.00  0.00    +0.000 NA
ATOM     15  H   UNL     1       6.765   3.511  16.738  0.00  0.00    +0.000 HD
BRANCH  14  16
ATOM     16  C   UNL     1       4.759   3.880  16.625  0.00  0.00    +0.000 C 
BRANCH  16  17
ATOM     17  C   UNL     1       3.871   3.723  17.910  0.00  0.00    +0.000 C 
ATOM     18  C   UNL     1       4.807   3.660  19.132  0.00  0.00    +0.000 C 
ATOM     19  C   UNL     1       3.109   2.387  17.795  0.00  0.00    +0.000 C 
BRANCH  17  20
ATOM     20  C   UNL     1       2.922   4.966  18.028  0.00  0.00    +0.000 C 
BRANCH  20  22
ATOM     21  C   UNL     1       3.632   7.218  17.596  0.00  0.00    +0.000 C 
ATOM     22  N   UNL     1       3.385   6.225  18.654  0.00  0.00    +0.000 NA
ATOM     23  C   UNL     1       2.418   6.782  19.601  0.00  0.00    +0.000 C 
ENDBRANCH  20  22
ENDBRANCH  17  20
ENDBRANCH  16  17
ENDBRANCH  14  16
ENDBRANCH  13  14
ENDBRANCH   1  13
TORSDOF 7
ENDMDL
MODEL 7
REMARK VINA RESULT:      -6.4      1.758      2.541
REMARK  Name = 
REMARK  11 active torsions:
REMARK  status: ('A' for Active; 'I' for Inactive)
REMARK    1  A    between atoms: C_1  and  N_2
REMARK    2  A    between atoms: N_2  and  C_3
REMARK    3  A    between atoms: N_2  and  C_4
REMARK    4  A    between atoms: C_4  and  C_5
REMARK    5  A    between atoms: C_5  and  C_6
REMARK    6  A    between atoms: C_5  and  C_7
REMARK    7  A    between atoms: C_5  and  C_8
REMARK    8  A    between atoms: C_8  and  N_9
REMARK    9  A    between atoms: N_9  and  C_10
REMARK   10  A    between atoms: C_10  and  C_11
REMARK   11  A    between atoms: C_14  and  C_15
REMARK                            x       y       z     vdW  Elec       q    Type
REMARK                         _______ _______ _______ _____ _____    ______ ____
ROOT
ATOM      1  C   UNL     1       3.031   6.504  18.847  0.00  0.00    +0.000 A 
ATOM      2  C   UNL     1       3.020   7.559  17.962  0.00  0.00    +0.000 A 
ATOM      3  O   UNL     1       2.276   8.562  18.495  0.00  0.00    +0.000 OA
ATOM      4  C   UNL     1       1.850   8.063  19.699  0.00  0.00    +0.000 A 
ATOM      5  N   UNL     1       2.261   6.832  19.946  0.00  0.00    +0.000 NA
ENDROOT
BRANCH   4   6
ATOM      6  C   UNL     1       1.012   8.951  20.503  0.00  0.00    +0.000 A 
ATOM      7  C   UNL     1       0.265   9.987  19.917  0.00  0.00    +0.000 A 
ATOM      8  C   UNL     1      -0.540  10.825  20.696  0.00  0.00    +0.000 A 
ATOM      9  C   UNL     1      -0.602  10.633  22.073  0.00  0.00    +0.000 A 
ATOM     10 BR   UNL     1      -1.694  11.759  23.127  0.00  0.00    +0.000 Br
ATOM     11  C   UNL     1       0.133   9.614  22.677  0.00  0.00    +0.000 A 
ATOM     12  C   UNL     1       0.936   8.778  21.894  0.00  0.00    +0.000 A 
ENDBRANCH   4   6
BRANCH   1  13
ATOM     13  C   UNL     1       3.725   5.187  18.720  0.00  0.00    +0.000 C 
BRANCH  13  14
ATOM     14  N   UNL     1       3.766   4.826  17.301  0.00  0.00    +0.000 NA
ATOM     15  H   UNL     1       2.925   4.302  17.080  0.00  0.00    +0.000 HD
BRANCH  14  16
ATOM     16  C   UNL     1       4.944   4.031  16.944  0.00  0.00    +0.000 C 
BRANCH  16  17
ATOM     17  C   UNL     1       5.945   4.833  16.039  0.00  0.00    +0.000 C 
ATOM     18  C   UNL     1       5.213   6.082  15.510  0.00  0.00    +0.000 C 
ATOM     19  C   UNL     1       6.324   3.933  14.845  0.00  0.00    +0.000 C 
BRANCH  17  20
ATOM     20  C   UNL     1       7.180   5.265  16.903  0.00  0.00    +0.000 C 
BRANCH  20  22
ATOM     21  C   UNL     1       7.666   5.809  19.190  0.00  0.00    +0.000 C 
ATOM     22  N   UNL     1       7.058   6.307  17.946  0.00  0.00    +0.000 NA
ATOM     23  C   UNL     1       7.711   7.564  17.578  0.00  0.00    +0.000 C 
ENDBRANCH  20  22
ENDBRANCH  17  20
ENDBRANCH  16  17
ENDBRANCH  14  16
ENDBRANCH  13  14
ENDBRANCH   1  13
TORSDOF 7
ENDMDL
MODEL 8
REMARK VINA RESULT:      -6.3      3.690      6.437
REMARK  Name = 
REMARK  11 active torsions:
REMARK  status: ('A' for Active; 'I' for Inactive)
REMARK    1  A    between atoms: C_1  and  N_2
REMARK    2  A    between atoms: N_2  and  C_3
REMARK    3  A    between atoms: N_2  and  C_4
REMARK    4  A    between atoms: C_4  and  C_5
REMARK    5  A    between atoms: C_5  and  C_6
REMARK    6  A    between atoms: C_5  and  C_7
REMARK    7  A    between atoms: C_5  and  C_8
REMARK    8  A    between atoms: C_8  and  N_9
REMARK    9  A    between atoms: N_9  and  C_10
REMARK   10  A    between atoms: C_10  and  C_11
REMARK   11  A    between atoms: C_14  and  C_15
REMARK                            x       y       z     vdW  Elec       q    Type
REMARK                         _______ _______ _______ _____ _____    ______ ____
ROOT
ATOM      1  C   UNL     1       7.608   6.416  18.062  0.00  0.00    +0.000 A 
ATOM      2  C   UNL     1       6.863   7.082  17.115  0.00  0.00    +0.000 A 
ATOM      3  O   UNL     1       7.178   8.401  17.166  0.00  0.00    +0.000 OA
ATOM      4  C   UNL     1       8.114   8.486  18.166  0.00  0.00    +0.000 A 
ATOM      5  N   UNL     1       8.390   7.329  18.741  0.00  0.00    +0.000 NA
ENDROOT
BRANCH   4   6
ATOM      6  C   UNL     1       8.641   9.821  18.442  0.00  0.00    +0.000 A 
ATOM      7  C   UNL     1       8.353  10.913  17.606  0.00  0.00    +0.000 A 
ATOM      8  C   UNL     1       8.857  12.187  17.886  0.00  0.00    +0.000 A 
ATOM      9  C   UNL     1       9.658  12.379  19.008  0.00  0.00    +0.000 A 
ATOM     10 BR   UNL     1      10.334  14.101  19.392  0.00  0.00    +0.000 Br
ATOM     11  C   UNL     1       9.961  11.311  19.850  0.00  0.00    +0.000 A 
ATOM     12  C   UNL     1       9.454  10.037  19.566  0.00  0.00    +0.000 A 
ENDBRANCH   4   6
BRANCH   1  13
ATOM     13  C   UNL     1       7.628   4.955  18.375  0.00  0.00    +0.000 C 
BRANCH  13  14
ATOM     14  N   UNL     1       6.400   4.357  17.846  0.00  0.00    +0.000 NA
ATOM     15  H   UNL     1       5.940   5.042  17.254  0.00  0.00    +0.000 HD
BRANCH  14  16
ATOM     16  C   UNL     1       5.475   3.921  18.897  0.00  0.00    +0.000 C 
BRANCH  16  17
ATOM     17  C   UNL     1       4.022   4.467  18.666  0.00  0.00    +0.000 C 
ATOM     18  C   UNL     1       3.793   4.587  17.146  0.00  0.00    +0.000 C 
ATOM     19  C   UNL     1       3.942   5.873  19.295  0.00  0.00    +0.000 C 
BRANCH  17  20
ATOM     20  C   UNL     1       2.993   3.456  19.281  0.00  0.00    +0.000 C 
BRANCH  20  22
ATOM     21  C   UNL     1       0.896   2.421  18.741  0.00  0.00    +0.000 C 
ATOM     22  N   UNL     1       1.535   3.678  19.160  0.00  0.00    +0.000 NA
ATOM     23  C   UNL     1       0.918   4.121  20.412  0.00  0.00    +0.000 C 
ENDBRANCH  20  22
ENDBRANCH  17  20
ENDBRANCH  16  17
ENDBRANCH  14  16
ENDBRANCH  13  14
ENDBRANCH   1  13
TORSDOF 7
ENDMDL
MODEL 9
REMARK VINA RESULT:      -6.3      3.554      6.155
REMARK  Name = 
REMARK  11 active torsions:
REMARK  status: ('A' for Active; 'I' for Inactive)
REMARK    1  A    between atoms: C_1  and  N_2
REMARK    2  A    between atoms: N_2  and  C_3
REMARK    3  A    between atoms: N_2  and  C_4
REMARK    4  A    between atoms: C_4  and  C_5
REMARK    5  A    between atoms: C_5  and  C_6
REMARK    6  A    between atoms: C_5  and  C_7
REMARK    7  A    between atoms: C_5  and  C_8
REMARK    8  A    between atoms: C_8  and  N_9
REMARK    9  A    between atoms: N_9  and  C_10
REMARK   10  A    between atoms: C_10  and  C_11
REMARK   11  A    between atoms: C_14  and  C_15
REMARK                            x       y       z     vdW  Elec       q    Type
REMARK                         _______ _______ _______ _____ _____    ______ ____
ROOT
ATOM      1  C   UNL     1       7.045   6.715  17.257  0.00  0.00    +0.000 A 
ATOM      2  C   UNL     1       7.778   6.332  18.358  0.00  0.00    +0.000 A 
ATOM      3  O   UNL     1       8.410   7.425  18.858  0.00  0.00    +0.000 OA
ATOM      4  C   UNL     1       8.034   8.445  18.021  0.00  0.00    +0.000 A 
ATOM      5  N   UNL     1       7.234   8.067  17.040  0.00  0.00    +0.000 NA
ENDROOT
BRANCH   4   6
ATOM      6  C   UNL     1       8.579   9.766  18.332  0.00  0.00    +0.000 A 
ATOM      7  C   UNL     1       8.306  10.882  17.524  0.00  0.00    +0.000 A 
ATOM      8  C   UNL     1       8.827  12.142  17.837  0.00  0.00    +0.000 A 
ATOM      9  C   UNL     1       9.629  12.294  18.964  0.00  0.00    +0.000 A 
ATOM     10 BR   UNL     1      10.328  13.997  19.393  0.00  0.00    +0.000 Br
ATOM     11  C   UNL     1       9.917  11.200  19.778  0.00  0.00    +0.000 A 
ATOM     12  C   UNL     1       9.393   9.942  19.461  0.00  0.00    +0.000 A 
ENDBRANCH   4   6
BRANCH   1  13
ATOM     13  C   UNL     1       6.170   5.878  16.382  0.00  0.00    +0.000 C 
BRANCH  13  14
ATOM     14  N   UNL     1       4.960   5.539  17.134  0.00  0.00    +0.000 NA
ATOM     15  H   UNL     1       5.152   5.669  18.123  0.00  0.00    +0.000 HD
BRANCH  14  16
ATOM     16  C   UNL     1       4.507   4.164  16.902  0.00  0.00    +0.000 C 
BRANCH  16  17
ATOM     17  C   UNL     1       3.433   3.713  17.955  0.00  0.00    +0.000 C 
ATOM     18  C   UNL     1       3.757   2.267  18.377  0.00  0.00    +0.000 C 
ATOM     19  C   UNL     1       2.056   3.735  17.261  0.00  0.00    +0.000 C 
BRANCH  17  20
ATOM     20  C   UNL     1       3.512   4.662  19.201  0.00  0.00    +0.000 C 
BRANCH  20  22
ATOM     21  C   UNL     1       2.069   4.694  21.119  0.00  0.00    +0.000 C 
ATOM     22  N   UNL     1       2.292   5.266  19.782  0.00  0.00    +0.000 NA
ATOM     23  C   UNL     1       2.378   6.722  19.905  0.00  0.00    +0.000 C 
ENDBRANCH  20  22
ENDBRANCH  17  20
ENDBRANCH  16  17
ENDBRANCH  14  16
ENDBRANCH  13  14
ENDBRANCH   1  13
TORSDOF 7
ENDMDL
