MODEL 1
REMARK VINA RESULT:      -7.1      0.000      0.000
REMARK  Name = 
REMARK  5 active torsions:
REMARK  status: ('A' for Active; 'I' for Inactive)
REMARK    1  A    between atoms: C_1  and  O_2
REMARK    2  A    between atoms: O_2  and  C_3
REMARK    3  A    between atoms: C_3  and  C_4
REMARK    4  A    between atoms: C_4  and  N_5
REMARK    5  A    between atoms: C_8  and  C_9
REMARK                            x       y       z     vdW  Elec       q    Type
REMARK                         _______ _______ _______ _____ _____    ______ ____
ROOT
ATOM      1  N   UNL     1       0.679   9.600  19.326  0.00  0.00    +0.000 N 
ATOM      2  C   UNL     1       1.512   8.508  19.141  0.00  0.00    +0.000 A 
ATOM      3  O   UNL     1       2.104   8.272  18.095  0.00  0.00    +0.000 OA
ATOM      4  C   UNL     1       1.672   7.563  20.339  0.00  0.00    +0.000 A 
ATOM      5  N   UNL     1       1.282   7.909  21.535  0.00  0.00    +0.000 NA
ATOM      6  C   UNL     1       0.625   9.142  21.677  0.00  0.00    +0.000 A 
ATOM      7  C   UNL     1       0.254   9.602  22.917  0.00  0.00    +0.000 A 
ATOM      8  N   UNL     1      -0.381  10.771  23.133  0.00  0.00    +0.000 NA
ATOM      9  C   UNL     1      -0.688  11.522  22.064  0.00  0.00    +0.000 A 
ATOM     10  N   UNL     1      -1.212  12.777  22.270  0.00  0.00    +0.000 N 
ATOM     11  C   UNL     1      -1.603  13.174  23.623  0.00  0.00    +0.000 C 
ATOM     12  C   UNL     1      -1.508  14.713  23.736  0.00  0.00    +0.000 C 
ATOM     13  N   UNL     1      -2.296  15.432  22.711  0.00  0.00    +0.000 NA
ATOM     14  C   UNL     1      -1.928  14.940  21.366  0.00  0.00    +0.000 C 
ATOM     15  C   UNL     1      -2.003  13.401  21.210  0.00  0.00    +0.000 C 
ATOM     16  N   UNL     1      -0.390  11.141  20.810  0.00  0.00    +0.000 NA
ATOM     17  C   UNL     1       0.267   9.975  20.629  0.00  0.00    +0.000 A 
ATOM     18  H   UNL     1      -2.074  16.425  22.768  0.00  0.00    +0.000 HD
ENDROOT
BRANCH   4  19
ATOM     19  C   UNL     1       2.277   6.220  20.132  0.00  0.00    +0.000 A 
ATOM     20  C   UNL     1       1.576   5.083  20.558  0.00  0.00    +0.000 A 
ATOM     21  C   UNL     1       2.119   3.808  20.373  0.00  0.00    +0.000 A 
ATOM     22  C   UNL     1       3.358   3.666  19.751  0.00  0.00    +0.000 A 
ATOM     23 CL   UNL     1       4.034   2.099  19.535  0.00  0.00    +0.000 Cl
ATOM     24  C   UNL     1       4.052   4.785  19.300  0.00  0.00    +0.000 A 
ATOM     25  C   UNL     1       3.509   6.061  19.480  0.00  0.00    +0.000 A 
ENDBRANCH   4  19
BRANCH   1  26
ATOM     26  C   UNL     1       0.313  10.408  18.167  0.00  0.00    +0.000 C 
BRANCH  26  27
ATOM     27  C   UNL     1      -1.034   9.975  17.562  0.00  0.00    +0.000 C 
BRANCH  27  29
ATOM     28  C   UNL     1      -2.875  11.108  16.616  0.00  0.00    +0.000 C 
ATOM     29  O   UNL     1      -1.997  11.019  17.730  0.00  0.00    +0.000 OA
ENDBRANCH  27  29
ENDBRANCH  26  27
ENDBRANCH   1  26
TORSDOF 4
ENDMDL
MODEL 2
REMARK VINA RESULT:      -7.0      0.986      1.017
REMARK  Name = 
REMARK  5 active torsions:
REMARK  status: ('A' for Active; 'I' for Inactive)
REMARK    1  A    between atoms: C_1  and  O_2
REMARK    2  A    between atoms: O_2  and  C_3
REMARK    3  A    between atoms: C_3  and  C_4
REMARK    4  A    between atoms: C_4  and  N_5
REMARK    5  A    between atoms: C_8  and  C_9
REMARK                            x       y       z     vdW  Elec       q    Type
REMARK                         _______ _______ _______ _____ _____    ______ ____
ROOT
ATOM      1  N   UNL     1      -0.014  10.146  19.317  0.00  0.00    +0.000 N 
ATOM      2  C   UNL     1       0.960   9.196  19.054  0.00  0.00    +0.000 A 
ATOM      3  O   UNL     1       1.519   9.074  17.971  0.00  0.00    +0.000 OA
ATOM      4  C   UNL     1       1.329   8.262  20.214  0.00  0.00    +0.000 A 
ATOM      5  N   UNL     1       0.963   8.520  21.439  0.00  0.00    +0.000 NA
ATOM      6  C   UNL     1       0.139   9.637  21.653  0.00  0.00    +0.000 A 
ATOM      7  C   UNL     1      -0.224  10.010  22.925  0.00  0.00    +0.000 A 
ATOM      8  N   UNL     1      -1.013  11.065  23.209  0.00  0.00    +0.000 NA
ATOM      9  C   UNL     1      -1.490  11.783  22.181  0.00  0.00    +0.000 A 
ATOM     10  N   UNL     1      -2.183  12.941  22.452  0.00  0.00    +0.000 N 
ATOM     11  C   UNL     1      -2.549  13.246  23.835  0.00  0.00    +0.000 C 
ATOM     12  C   UNL     1      -2.678  14.779  23.987  0.00  0.00    +0.000 C 
ATOM     13  N   UNL     1      -3.624  15.392  23.028  0.00  0.00    +0.000 NA
ATOM     14  C   UNL     1      -3.266  14.989  21.651  0.00  0.00    +0.000 C 
ATOM     15  C   UNL     1      -3.119  13.460  21.455  0.00  0.00    +0.000 C 
ATOM     16  N   UNL     1      -1.212  11.478  20.902  0.00  0.00    +0.000 NA
ATOM     17  C   UNL     1      -0.400  10.428  20.650  0.00  0.00    +0.000 A 
ATOM     18  H   UNL     1      -3.549  16.406  23.102  0.00  0.00    +0.000 HD
ENDROOT
BRANCH   4  19
ATOM     19  C   UNL     1       2.115   7.030  19.935  0.00  0.00    +0.000 A 
ATOM     20  C   UNL     1       1.824   5.859  20.649  0.00  0.00    +0.000 A 
ATOM     21  C   UNL     1       2.544   4.686  20.405  0.00  0.00    +0.000 A 
ATOM     22  C   UNL     1       3.547   4.677  19.439  0.00  0.00    +0.000 A 
ATOM     23 CL   UNL     1       4.444   3.238  19.147  0.00  0.00    +0.000 Cl
ATOM     24  C   UNL     1       3.829   5.825  18.704  0.00  0.00    +0.000 A 
ATOM     25  C   UNL     1       3.107   6.999  18.944  0.00  0.00    +0.000 A 
ENDBRANCH   4  19
BRANCH   1  26
ATOM     26  C   UNL     1      -0.564  10.914  18.204  0.00  0.00    +0.000 C 
BRANCH  26  27
ATOM     27  C   UNL     1      -1.730  10.182  17.516  0.00  0.00    +0.000 C 
BRANCH  27  29
ATOM     28  C   UNL     1      -2.834  10.224  15.431  0.00  0.00    +0.000 C 
ATOM     29  O   UNL     1      -2.270  11.003  16.478  0.00  0.00    +0.000 OA
ENDBRANCH  27  29
ENDBRANCH  26  27
ENDBRANCH   1  26
TORSDOF 4
ENDMDL
MODEL 3
REMARK VINA RESULT:      -6.9      4.193      8.506
REMARK  Name = 
REMARK  5 active torsions:
REMARK  status: ('A' for Active; 'I' for Inactive)
REMARK    1  A    between atoms: C_1  and  O_2
REMARK    2  A    between atoms: O_2  and  C_3
REMARK    3  A    between atoms: C_3  and  C_4
REMARK    4  A    between atoms: C_4  and  N_5
REMARK    5  A    between atoms: C_8  and  C_9
REMARK                            x       y       z     vdW  Elec       q    Type
REMARK                         _______ _______ _______ _____ _____    ______ ____
ROOT
ATOM      1  N   UNL     1       1.176  10.110  20.965  0.00  0.00    +0.000 N 
ATOM      2  C   UNL     1       1.234  11.483  20.785  0.00  0.00    +0.000 A 
ATOM      3  O   UNL     1       1.195  12.294  21.702  0.00  0.00    +0.000 OA
ATOM      4  C   UNL     1       1.352  11.974  19.336  0.00  0.00    +0.000 A 
ATOM      5  N   UNL     1       1.661  11.160  18.364  0.00  0.00    +0.000 NA
ATOM      6  C   UNL     1       1.794   9.796  18.672  0.00  0.00    +0.000 A 
ATOM      7  C   UNL     1       2.190   8.895  17.713  0.00  0.00    +0.000 A 
ATOM      8  N   UNL     1       2.337   7.573  17.931  0.00  0.00    +0.000 NA
ATOM      9  C   UNL     1       2.058   7.107  19.158  0.00  0.00    +0.000 A 
ATOM     10  N   UNL     1       2.330   5.788  19.439  0.00  0.00    +0.000 N 
ATOM     11  C   UNL     1       2.722   4.893  18.350  0.00  0.00    +0.000 C 
ATOM     12  C   UNL     1       3.586   3.751  18.933  0.00  0.00    +0.000 C 
ATOM     13  N   UNL     1       2.928   3.012  20.033  0.00  0.00    +0.000 NA
ATOM     14  C   UNL     1       2.475   3.964  21.070  0.00  0.00    +0.000 C 
ATOM     15  C   UNL     1       1.610   5.129  20.528  0.00  0.00    +0.000 C 
ATOM     16  N   UNL     1       1.637   7.909  20.151  0.00  0.00    +0.000 NA
ATOM     17  C   UNL     1       1.522   9.233  19.908  0.00  0.00    +0.000 A 
ATOM     18  H   UNL     1       3.607   2.375  20.448  0.00  0.00    +0.000 HD
ENDROOT
BRANCH   4  19
ATOM     19  C   UNL     1       1.100  13.408  19.030  0.00  0.00    +0.000 A 
ATOM     20  C   UNL     1       2.189  14.247  18.752  0.00  0.00    +0.000 A 
ATOM     21  C   UNL     1       1.981  15.598  18.458  0.00  0.00    +0.000 A 
ATOM     22  C   UNL     1       0.686  16.111  18.429  0.00  0.00    +0.000 A 
ATOM     23 CL   UNL     1       0.430  17.776  18.082  0.00  0.00    +0.000 Cl
ATOM     24  C   UNL     1      -0.405  15.282  18.679  0.00  0.00    +0.000 A 
ATOM     25  C   UNL     1      -0.200  13.930  18.969  0.00  0.00    +0.000 A 
ENDBRANCH   4  19
BRANCH   1  26
ATOM     26  C   UNL     1       0.845   9.590  22.288  0.00  0.00    +0.000 C 
BRANCH  26  27
ATOM     27  C   UNL     1      -0.666   9.661  22.576  0.00  0.00    +0.000 C 
BRANCH  27  29
ATOM     28  C   UNL     1      -1.919  11.610  23.021  0.00  0.00    +0.000 C 
ATOM     29  O   UNL     1      -0.930  10.713  23.508  0.00  0.00    +0.000 OA
ENDBRANCH  27  29
ENDBRANCH  26  27
ENDBRANCH   1  26
TORSDOF 4
ENDMDL
MODEL 4
REMARK VINA RESULT:      -6.9      1.257      1.647
REMARK  Name = 
REMARK  5 active torsions:
REMARK  status: ('A' for Active; 'I' for Inactive)
REMARK    1  A    between atoms: C_1  and  O_2
REMARK    2  A    between atoms: O_2  and  C_3
REMARK    3  A    between atoms: C_3  and  C_4
REMARK    4  A    between atoms: C_4  and  N_5
REMARK    5  A    between atoms: C_8  and  C_9
REMARK                            x       y       z     vdW  Elec       q    Type
REMARK                         _______ _______ _______ _____ _____    ______ ____
ROOT
ATOM      1  N   UNL     1       1.127   9.719  19.317  0.00  0.00    +0.000 N 
ATOM      2  C   UNL     1       1.871   8.560  19.164  0.00  0.00    +0.000 A 
ATOM      3  O   UNL     1       2.592   8.334  18.200  0.00  0.00    +0.000 OA
ATOM      4  C   UNL     1       1.755   7.524  20.290  0.00  0.00    +0.000 A 
ATOM      5  N   UNL     1       1.221   7.827  21.441  0.00  0.00    +0.000 NA
ATOM      6  C   UNL     1       0.670   9.110  21.589  0.00  0.00    +0.000 A 
ATOM      7  C   UNL     1       0.158   9.521  22.796  0.00  0.00    +0.000 A 
ATOM      8  N   UNL     1      -0.389  10.734  23.013  0.00  0.00    +0.000 NA
ATOM      9  C   UNL     1      -0.456  11.584  21.977  0.00  0.00    +0.000 A 
ATOM     10  N   UNL     1      -0.885  12.871  22.209  0.00  0.00    +0.000 N 
ATOM     11  C   UNL     1      -1.439  13.213  23.519  0.00  0.00    +0.000 C 
ATOM     12  C   UNL     1      -1.217  14.723  23.772  0.00  0.00    +0.000 C 
ATOM     13  N   UNL     1      -1.768  15.589  22.706  0.00  0.00    +0.000 NA
ATOM     14  C   UNL     1      -1.246  15.154  21.393  0.00  0.00    +0.000 C 
ATOM     15  C   UNL     1      -1.441  13.646  21.100  0.00  0.00    +0.000 C 
ATOM     16  N   UNL     1      -0.007  11.260  20.753  0.00  0.00    +0.000 NA
ATOM     17  C   UNL     1       0.557  10.046  20.572  0.00  0.00    +0.000 A 
ATOM     18  H   UNL     1      -1.463  16.547  22.877  0.00  0.00    +0.000 HD
ENDROOT
BRANCH   4  19
ATOM     19  C   UNL     1       2.255   6.142  20.062  0.00  0.00    +0.000 A 
ATOM     20  C   UNL     1       1.440   5.056  20.412  0.00  0.00    +0.000 A 
ATOM     21  C   UNL     1       1.883   3.746  20.205  0.00  0.00    +0.000 A 
ATOM     22  C   UNL     1       3.135   3.518  19.638  0.00  0.00    +0.000 A 
ATOM     23 CL   UNL     1       3.688   1.908  19.397  0.00  0.00    +0.000 Cl
ATOM     24  C   UNL     1       3.943   4.588  19.263  0.00  0.00    +0.000 A 
ATOM     25  C   UNL     1       3.501   5.899  19.465  0.00  0.00    +0.000 A 
ENDBRANCH   4  19
BRANCH   1  26
ATOM     26  C   UNL     1       1.021  10.639  18.189  0.00  0.00    +0.000 C 
BRANCH  26  27
ATOM     27  C   UNL     1       2.177  11.654  18.159  0.00  0.00    +0.000 C 
BRANCH  27  29
ATOM     28  C   UNL     1       2.684  13.959  18.186  0.00  0.00    +0.000 C 
ATOM     29  O   UNL     1       1.659  12.980  18.295  0.00  0.00    +0.000 OA
ENDBRANCH  27  29
ENDBRANCH  26  27
ENDBRANCH   1  26
TORSDOF 4
ENDMDL
MODEL 5
REMARK VINA RESULT:      -6.9      1.237      1.599
REMARK  Name = 
REMARK  5 active torsions:
REMARK  status: ('A' for Active; 'I' for Inactive)
REMARK    1  A    between atoms: C_1  and  O_2
REMARK    2  A    between atoms: O_2  and  C_3
REMARK    3  A    between atoms: C_3  and  C_4
REMARK    4  A    between atoms: C_4  and  N_5
REMARK    5  A    between atoms: C_8  and  C_9
REMARK                            x       y       z     vdW  Elec       q    Type
REMARK                         _______ _______ _______ _____ _____    ______ ____
ROOT
ATOM      1  N   UNL     1      -0.189  10.352  19.147  0.00  0.00    +0.000 N 
ATOM      2  C   UNL     1       0.811   9.467  18.780  0.00  0.00    +0.000 A 
ATOM      3  O   UNL     1       1.283   9.400  17.652  0.00  0.00    +0.000 OA
ATOM      4  C   UNL     1       1.329   8.531  19.880  0.00  0.00    +0.000 A 
ATOM      5  N   UNL     1       1.053   8.742  21.138  0.00  0.00    +0.000 NA
ATOM      6  C   UNL     1       0.188   9.804  21.449  0.00  0.00    +0.000 A 
ATOM      7  C   UNL     1      -0.086  10.129  22.755  0.00  0.00    +0.000 A 
ATOM      8  N   UNL     1      -0.907  11.130  23.131  0.00  0.00    +0.000 NA
ATOM      9  C   UNL     1      -1.509  11.840  22.165  0.00  0.00    +0.000 A 
ATOM     10  N   UNL     1      -2.241  12.949  22.522  0.00  0.00    +0.000 N 
ATOM     11  C   UNL     1      -2.505  13.203  23.938  0.00  0.00    +0.000 C 
ATOM     12  C   UNL     1      -2.708  14.723  24.140  0.00  0.00    +0.000 C 
ATOM     13  N   UNL     1      -3.764  15.299  23.278  0.00  0.00    +0.000 NA
ATOM     14  C   UNL     1      -3.501  14.947  21.867  0.00  0.00    +0.000 C 
ATOM     15  C   UNL     1      -3.285  13.434  21.620  0.00  0.00    +0.000 C 
ATOM     16  N   UNL     1      -1.323  11.578  20.860  0.00  0.00    +0.000 NA
ATOM     17  C   UNL     1      -0.477  10.583  20.515  0.00  0.00    +0.000 A 
ATOM     18  H   UNL     1      -3.740  16.314  23.372  0.00  0.00    +0.000 HD
ENDROOT
BRANCH   4  19
ATOM     19  C   UNL     1       2.157   7.353  19.506  0.00  0.00    +0.000 A 
ATOM     20  C   UNL     1       2.995   7.438  18.384  0.00  0.00    +0.000 A 
ATOM     21  C   UNL     1       3.786   6.348  18.011  0.00  0.00    +0.000 A 
ATOM     22  C   UNL     1       3.752   5.176  18.764  0.00  0.00    +0.000 A 
ATOM     23 CL   UNL     1       4.714   3.829  18.298  0.00  0.00    +0.000 Cl
ATOM     24  C   UNL     1       2.944   5.089  19.894  0.00  0.00    +0.000 A 
ATOM     25  C   UNL     1       2.154   6.179  20.272  0.00  0.00    +0.000 A 
ENDBRANCH   4  19
BRANCH   1  26
ATOM     26  C   UNL     1      -0.873  11.110  18.104  0.00  0.00    +0.000 C 
BRANCH  26  27
ATOM     27  C   UNL     1      -2.181  10.431  17.658  0.00  0.00    +0.000 C 
BRANCH  27  29
ATOM     28  C   UNL     1      -2.944  10.714  15.444  0.00  0.00    +0.000 C 
ATOM     29  O   UNL     1      -2.063   9.999  16.300  0.00  0.00    +0.000 OA
ENDBRANCH  27  29
ENDBRANCH  26  27
ENDBRANCH   1  26
TORSDOF 4
ENDMDL
MODEL 6
REMARK VINA RESULT:      -6.7      1.548      1.803
REMARK  Name = 
REMARK  5 active torsions:
REMARK  status: ('A' for Active; 'I' for Inactive)
REMARK    1  A    between atoms: C_1  and  O_2
REMARK    2  A    between atoms: O_2  and  C_3
REMARK    3  A    between atoms: C_3  and  C_4
REMARK    4  A    between atoms: C_4  and  N_5
REMARK    5  A    between atoms: C_8  and  C_9
REMARK                            x       y       z     vdW  Elec       q    Type
REMARK                         _______ _______ _______ _____ _____    ______ ____
ROOT
ATOM      1  N   UNL     1      -0.378  10.860  19.291  0.00  0.00    +0.000 N 
ATOM      2  C   UNL     1       0.650  10.026  18.884  0.00  0.00    +0.000 A 
ATOM      3  O   UNL     1       1.181  10.086  17.781  0.00  0.00    +0.000 OA
ATOM      4  C   UNL     1       1.121   8.980  19.902  0.00  0.00    +0.000 A 
ATOM      5  N   UNL     1       0.778   9.050  21.158  0.00  0.00    +0.000 NA
ATOM      6  C   UNL     1      -0.114  10.066  21.536  0.00  0.00    +0.000 A 
ATOM      7  C   UNL     1      -0.460  10.245  22.854  0.00  0.00    +0.000 A 
ATOM      8  N   UNL     1      -1.310  11.194  23.293  0.00  0.00    +0.000 NA
ATOM      9  C   UNL     1      -1.869  12.002  22.379  0.00  0.00    +0.000 A 
ATOM     10  N   UNL     1      -2.632  13.061  22.816  0.00  0.00    +0.000 N 
ATOM     11  C   UNL     1      -2.972  13.157  24.235  0.00  0.00    +0.000 C 
ATOM     12  C   UNL     1      -3.203  14.644  24.590  0.00  0.00    +0.000 C 
ATOM     13  N   UNL     1      -4.220  15.305  23.742  0.00  0.00    +0.000 NA
ATOM     14  C   UNL     1      -3.880  15.111  22.317  0.00  0.00    +0.000 C 
ATOM     15  C   UNL     1      -3.634  13.634  21.918  0.00  0.00    +0.000 C 
ATOM     16  N   UNL     1      -1.613  11.885  21.065  0.00  0.00    +0.000 NA
ATOM     17  C   UNL     1      -0.739  10.938  20.659  0.00  0.00    +0.000 A 
ATOM     18  H   UNL     1      -4.213  16.304  23.947  0.00  0.00    +0.000 HD
ENDROOT
BRANCH   4  19
ATOM     19  C   UNL     1       1.981   7.854  19.445  0.00  0.00    +0.000 A 
ATOM     20  C   UNL     1       2.032   6.681  20.211  0.00  0.00    +0.000 A 
ATOM     21  C   UNL     1       2.829   5.607  19.804  0.00  0.00    +0.000 A 
ATOM     22  C   UNL     1       3.566   5.698  18.625  0.00  0.00    +0.000 A 
ATOM     23 CL   UNL     1       4.558   4.383  18.130  0.00  0.00    +0.000 Cl
ATOM     24  C   UNL     1       3.504   6.848  17.843  0.00  0.00    +0.000 A 
ATOM     25  C   UNL     1       2.705   7.922  18.246  0.00  0.00    +0.000 A 
ENDBRANCH   4  19
BRANCH   1  26
ATOM     26  C   UNL     1      -1.016  11.723  18.302  0.00  0.00    +0.000 C 
BRANCH  26  27
ATOM     27  C   UNL     1      -2.185  11.021  17.589  0.00  0.00    +0.000 C 
BRANCH  27  29
ATOM     28  C   UNL     1      -4.445  11.514  17.123  0.00  0.00    +0.000 C 
ATOM     29  O   UNL     1      -3.427  11.496  18.115  0.00  0.00    +0.000 OA
ENDBRANCH  27  29
ENDBRANCH  26  27
ENDBRANCH   1  26
TORSDOF 4
ENDMDL
MODEL 7
REMARK VINA RESULT:      -6.6      2.414      3.559
REMARK  Name = 
REMARK  5 active torsions:
REMARK  status: ('A' for Active; 'I' for Inactive)
REMARK    1  A    between atoms: C_1  and  O_2
REMARK    2  A    between atoms: O_2  and  C_3
REMARK    3  A    between atoms: C_3  and  C_4
REMARK    4  A    between atoms: C_4  and  N_5
REMARK    5  A    between atoms: C_8  and  C_9
REMARK                            x       y       z     vdW  Elec       q    Type
REMARK                         _______ _______ _______ _____ _____    ______ ____
ROOT
ATOM      1  N   UNL     1       1.363   8.815  21.048  0.00  0.00    +0.000 N 
ATOM      2  C   UNL     1       1.475   7.494  20.646  0.00  0.00    +0.000 A 
ATOM      3  O   UNL     1       1.146   6.539  21.341  0.00  0.00    +0.000 OA
ATOM      4  C   UNL     1       2.049   7.255  19.244  0.00  0.00    +0.000 A 
ATOM      5  N   UNL     1       2.161   8.227  18.380  0.00  0.00    +0.000 NA
ATOM      6  C   UNL     1       1.823   9.521  18.805  0.00  0.00    +0.000 A 
ATOM      7  C   UNL     1       1.846  10.578  17.928  0.00  0.00    +0.000 A 
ATOM      8  N   UNL     1       1.539  11.847  18.262  0.00  0.00    +0.000 NA
ATOM      9  C   UNL     1       1.209  12.095  19.539  0.00  0.00    +0.000 A 
ATOM     10  N   UNL     1       0.762  13.353  19.871  0.00  0.00    +0.000 N 
ATOM     11  C   UNL     1       0.848  14.425  18.880  0.00  0.00    +0.000 C 
ATOM     12  C   UNL     1      -0.252  15.469  19.182  0.00  0.00    +0.000 C 
ATOM     13  N   UNL     1      -0.203  16.000  20.562  0.00  0.00    +0.000 NA
ATOM     14  C   UNL     1      -0.208  14.880  21.526  0.00  0.00    +0.000 C 
ATOM     15  C   UNL     1       0.876  13.806  21.257  0.00  0.00    +0.000 C 
ATOM     16  N   UNL     1       1.186  11.130  20.474  0.00  0.00    +0.000 NA
ATOM     17  C   UNL     1       1.477   9.864  20.103  0.00  0.00    +0.000 A 
ATOM     18  H   UNL     1      -1.033  16.571  20.720  0.00  0.00    +0.000 HD
ENDROOT
BRANCH   4  19
ATOM     19  C   UNL     1       2.496   5.888  18.863  0.00  0.00    +0.000 A 
ATOM     20  C   UNL     1       3.656   5.362  19.448  0.00  0.00    +0.000 A 
ATOM     21  C   UNL     1       4.098   4.079  19.111  0.00  0.00    +0.000 A 
ATOM     22  C   UNL     1       3.374   3.315  18.198  0.00  0.00    +0.000 A 
ATOM     23 CL   UNL     1       3.923   1.741  17.771  0.00  0.00    +0.000 Cl
ATOM     24  C   UNL     1       2.206   3.815  17.630  0.00  0.00    +0.000 A 
ATOM     25  C   UNL     1       1.761   5.097  17.968  0.00  0.00    +0.000 A 
ENDBRANCH   4  19
BRANCH   1  26
ATOM     26  C   UNL     1       1.034   9.100  22.442  0.00  0.00    +0.000 C 
BRANCH  26  27
ATOM     27  C   UNL     1      -0.465   9.390  22.634  0.00  0.00    +0.000 C 
BRANCH  27  29
ATOM     28  C   UNL     1      -1.587  11.447  22.910  0.00  0.00    +0.000 C 
ATOM     29  O   UNL     1      -0.630  10.549  23.455  0.00  0.00    +0.000 OA
ENDBRANCH  27  29
ENDBRANCH  26  27
ENDBRANCH   1  26
TORSDOF 4
ENDMDL
MODEL 8
REMARK VINA RESULT:      -6.5      1.275      1.651
REMARK  Name = 
REMARK  5 active torsions:
REMARK  status: ('A' for Active; 'I' for Inactive)
REMARK    1  A    between atoms: C_1  and  O_2
REMARK    2  A    between atoms: O_2  and  C_3
REMARK    3  A    between atoms: C_3  and  C_4
REMARK    4  A    between atoms: C_4  and  N_5
REMARK    5  A    between atoms: C_8  and  C_9
REMARK                            x       y       z     vdW  Elec       q    Type
REMARK                         _______ _______ _______ _____ _____    ______ ____
ROOT
ATOM      1  N   UNL     1       0.984  10.013  19.476  0.00  0.00    +0.000 N 
ATOM      2  C   UNL     1       1.730   8.860  19.293  0.00  0.00    +0.000 A 
ATOM      3  O   UNL     1       2.464   8.668  18.331  0.00  0.00    +0.000 OA
ATOM      4  C   UNL     1       1.599   7.785  20.380  0.00  0.00    +0.000 A 
ATOM      5  N   UNL     1       1.049   8.047  21.534  0.00  0.00    +0.000 NA
ATOM      6  C   UNL     1       0.496   9.324  21.719  0.00  0.00    +0.000 A 
ATOM      7  C   UNL     1      -0.032   9.693  22.932  0.00  0.00    +0.000 A 
ATOM      8  N   UNL     1      -0.583  10.897  23.185  0.00  0.00    +0.000 NA
ATOM      9  C   UNL     1      -0.635  11.783  22.179  0.00  0.00    +0.000 A 
ATOM     10  N   UNL     1      -1.067  13.061  22.450  0.00  0.00    +0.000 N 
ATOM     11  C   UNL     1      -1.640  13.357  23.763  0.00  0.00    +0.000 C 
ATOM     12  C   UNL     1      -1.422  14.857  24.072  0.00  0.00    +0.000 C 
ATOM     13  N   UNL     1      -1.957  15.760  23.030  0.00  0.00    +0.000 NA
ATOM     14  C   UNL     1      -1.418  15.372  21.710  0.00  0.00    +0.000 C 
ATOM     15  C   UNL     1      -1.609  13.875  21.362  0.00  0.00    +0.000 C 
ATOM     16  N   UNL     1      -0.169  11.503  20.950  0.00  0.00    +0.000 NA
ATOM     17  C   UNL     1       0.397  10.295  20.734  0.00  0.00    +0.000 A 
ATOM     18  H   UNL     1      -1.655  16.712  23.240  0.00  0.00    +0.000 HD
ENDROOT
BRANCH   4  19
ATOM     19  C   UNL     1       2.102   6.411  20.110  0.00  0.00    +0.000 A 
ATOM     20  C   UNL     1       3.074   6.224  19.117  0.00  0.00    +0.000 A 
ATOM     21  C   UNL     1       3.568   4.944  18.845  0.00  0.00    +0.000 A 
ATOM     22  C   UNL     1       3.101   3.852  19.572  0.00  0.00    +0.000 A 
ATOM     23 CL   UNL     1       3.696   2.275  19.229  0.00  0.00    +0.000 Cl
ATOM     24  C   UNL     1       2.155   4.028  20.579  0.00  0.00    +0.000 A 
ATOM     25  C   UNL     1       1.663   5.307  20.855  0.00  0.00    +0.000 A 
ENDBRANCH   4  19
BRANCH   1  26
ATOM     26  C   UNL     1       0.893  10.972  18.380  0.00  0.00    +0.000 C 
BRANCH  26  27
ATOM     27  C   UNL     1       2.016  12.023  18.436  0.00  0.00    +0.000 C 
BRANCH  27  29
ATOM     28  C   UNL     1       0.132  13.433  18.267  0.00  0.00    +0.000 C 
ATOM     29  O   UNL     1       1.518  13.286  17.989  0.00  0.00    +0.000 OA
ENDBRANCH  27  29
ENDBRANCH  26  27
ENDBRANCH   1  26
TORSDOF 4
ENDMDL
MODEL 9
REMARK VINA RESULT:      -6.4      1.599      1.949
REMARK  Name = 
REMARK  5 active torsions:
REMARK  status: ('A' for Active; 'I' for Inactive)
REMARK    1  A    between atoms: C_1  and  O_2
REMARK    2  A    between atoms: O_2  and  C_3
REMARK    3  A    between atoms: C_3  and  C_4
REMARK    4  A    between atoms: C_4  and  N_5
REMARK    5  A    between atoms: C_8  and  C_9
REMARK                            x       y       z     vdW  Elec       q    Type
REMARK                         _______ _______ _______ _____ _____    ______ ____
ROOT
ATOM      1  N   UNL     1       0.072  10.706  19.460  0.00  0.00    +0.000 N 
ATOM      2  C   UNL     1       1.039   9.766  19.141  0.00  0.00    +0.000 A 
ATOM      3  O   UNL     1       1.709   9.798  18.116  0.00  0.00    +0.000 OA
ATOM      4  C   UNL     1       1.249   8.635  20.155  0.00  0.00    +0.000 A 
ATOM      5  N   UNL     1       0.758   8.704  21.363  0.00  0.00    +0.000 NA
ATOM      6  C   UNL     1      -0.048   9.809  21.678  0.00  0.00    +0.000 A 
ATOM      7  C   UNL     1      -0.536   9.983  22.951  0.00  0.00    +0.000 A 
ATOM      8  N   UNL     1      -1.318  11.014  23.328  0.00  0.00    +0.000 NA
ATOM      9  C   UNL     1      -1.657  11.915  22.394  0.00  0.00    +0.000 A 
ATOM     10  N   UNL     1      -2.339  13.044  22.786  0.00  0.00    +0.000 N 
ATOM     11  C   UNL     1      -2.844  13.133  24.156  0.00  0.00    +0.000 C 
ATOM     12  C   UNL     1      -2.941  14.624  24.553  0.00  0.00    +0.000 C 
ATOM     13  N   UNL     1      -3.756  15.434  23.621  0.00  0.00    +0.000 NA
ATOM     14  C   UNL     1      -3.262  15.249  22.240  0.00  0.00    +0.000 C 
ATOM     15  C   UNL     1      -3.143  13.768  21.802  0.00  0.00    +0.000 C 
ATOM     16  N   UNL     1      -1.250  11.813  21.117  0.00  0.00    +0.000 NA
ATOM     17  C   UNL     1      -0.449  10.781  20.775  0.00  0.00    +0.000 A 
ATOM     18  H   UNL     1      -3.658  16.417  23.874  0.00  0.00    +0.000 HD
ENDROOT
BRANCH   4  19
ATOM     19  C   UNL     1       2.022   7.429  19.752  0.00  0.00    +0.000 A 
ATOM     20  C   UNL     1       1.930   6.268  20.534  0.00  0.00    +0.000 A 
ATOM     21  C   UNL     1       2.642   5.119  20.176  0.00  0.00    +0.000 A 
ATOM     22  C   UNL     1       3.437   5.124  19.032  0.00  0.00    +0.000 A 
ATOM     23 CL   UNL     1       4.325   3.716  18.600  0.00  0.00    +0.000 Cl
ATOM     24  C   UNL     1       3.516   6.262  18.234  0.00  0.00    +0.000 A 
ATOM     25  C   UNL     1       2.802   7.411  18.587  0.00  0.00    +0.000 A 
ENDBRANCH   4  19
BRANCH   1  26
ATOM     26  C   UNL     1      -0.328  11.675  18.444  0.00  0.00    +0.000 C 
BRANCH  26  27
ATOM     27  C   UNL     1       0.502  12.969  18.519  0.00  0.00    +0.000 C 
BRANCH  27  29
ATOM     28  C   UNL     1       0.325  15.289  18.911  0.00  0.00    +0.000 C 
ATOM     29  O   UNL     1      -0.370  14.101  18.556  0.00  0.00    +0.000 OA
ENDBRANCH  27  29
ENDBRANCH  26  27
ENDBRANCH   1  26
TORSDOF 4
ENDMDL
