MODEL 1
REMARK VINA RESULT:      -7.2      0.000      0.000
REMARK  Name = 
REMARK  3 active torsions:
REMARK  status: ('A' for Active; 'I' for Inactive)
REMARK    1  A    between atoms: N_1  and  C_2
REMARK    2  A    between atoms: C_2  and  C_3
REMARK    3  A    between atoms: C_2  and  C_12
REMARK                            x       y       z     vdW  Elec       q    Type
REMARK                         _______ _______ _______ _____ _____    ______ ____
ROOT
ATOM      1  C   UNL     1       4.418   3.223  19.265  0.00  0.00    +0.000 C 
ENDROOT
BRANCH   1   2
ATOM      2  C   UNL     1       5.543   4.228  18.847  0.00  0.00    +0.000 C 
ATOM      3  O   UNL     1       6.153   4.907  19.681  0.00  0.00    +0.000 OA
ATOM      4  N   UNL     1       5.891   4.263  17.502  0.00  0.00    +0.000 N 
ATOM      5  C   UNL     1       7.057   4.970  17.007  0.00  0.00    +0.000 C 
ATOM      6  C   UNL     1       6.574   5.606  15.714  0.00  0.00    +0.000 C 
ATOM      7  F   UNL     1       5.917   6.764  16.009  0.00  0.00    +0.000 F 
ATOM      8  C   UNL     1       5.575   4.598  15.163  0.00  0.00    +0.000 C 
ATOM      9  F   UNL     1       6.212   3.761  14.300  0.00  0.00    +0.000 F 
ATOM     10  C   UNL     1       5.083   3.802  16.380  0.00  0.00    +0.000 C 
ENDBRANCH   1   2
BRANCH   1  11
ATOM     11  C   UNL     1       3.185   3.869  19.984  0.00  0.00    +0.000 C 
ATOM     12  C   UNL     1       2.297   4.781  19.107  0.00  0.00    +0.000 C 
ATOM     13  C   UNL     1       1.451   4.042  18.069  0.00  0.00    +0.000 C 
ATOM     14  C   UNL     1       0.682   2.853  18.639  0.00  0.00    +0.000 C 
ATOM     15  C   UNL     1       1.511   1.983  19.576  0.00  0.00    +0.000 C 
ATOM     16  C   UNL     1       2.241   2.821  20.623  0.00  0.00    +0.000 C 
ENDBRANCH   1  11
BRANCH   1  17
ATOM     17  N   UNL     1       5.086   2.260  20.178  0.00  0.00    +0.000 NA
ATOM     18  H   UNL     1       6.074   2.473  20.277  0.00  0.00    +0.000 HD
ATOM     19  H   UNL     1       5.033   1.337  19.754  0.00  0.00    +0.000 HD
ENDBRANCH   1  17
TORSDOF 3
ENDMDL
MODEL 2
REMARK VINA RESULT:      -7.1      2.189      2.616
REMARK  Name = 
REMARK  3 active torsions:
REMARK  status: ('A' for Active; 'I' for Inactive)
REMARK    1  A    between atoms: N_1  and  C_2
REMARK    2  A    between atoms: C_2  and  C_3
REMARK    3  A    between atoms: C_2  and  C_12
REMARK                            x       y       z     vdW  Elec       q    Type
REMARK                         _______ _______ _______ _____ _____    ______ ____
ROOT
ATOM      1  C   UNL     1       2.962   5.532  19.368  0.00  0.00    +0.000 C 
ENDROOT
BRANCH   1   2
ATOM      2  C   UNL     1       3.731   6.333  18.266  0.00  0.00    +0.000 C 
ATOM      3  O   UNL     1       3.230   7.313  17.701  0.00  0.00    +0.000 OA
ATOM      4  N   UNL     1       5.043   5.952  18.009  0.00  0.00    +0.000 N 
ATOM      5  C   UNL     1       5.945   6.737  17.187  0.00  0.00    +0.000 C 
ATOM      6  C   UNL     1       6.698   5.695  16.377  0.00  0.00    +0.000 C 
ATOM      7  F   UNL     1       5.936   5.331  15.306  0.00  0.00    +0.000 F 
ATOM      8  C   UNL     1       6.813   4.509  17.327  0.00  0.00    +0.000 C 
ATOM      9  F   UNL     1       7.998   4.581  17.993  0.00  0.00    +0.000 F 
ATOM     10  C   UNL     1       5.655   4.667  18.321  0.00  0.00    +0.000 C 
ENDBRANCH   1   2
BRANCH   1  11
ATOM     11  C   UNL     1       1.658   4.815  18.877  0.00  0.00    +0.000 C 
ATOM     12  C   UNL     1       1.802   3.962  17.595  0.00  0.00    +0.000 C 
ATOM     13  C   UNL     1       2.587   2.662  17.778  0.00  0.00    +0.000 C 
ATOM     14  C   UNL     1       2.136   1.836  18.980  0.00  0.00    +0.000 C 
ATOM     15  C   UNL     1       1.905   2.667  20.237  0.00  0.00    +0.000 C 
ATOM     16  C   UNL     1       1.036   3.889  19.951  0.00  0.00    +0.000 C 
ENDBRANCH   1  11
BRANCH   1  17
ATOM     17  N   UNL     1       2.621   6.540  20.406  0.00  0.00    +0.000 NA
ATOM     18  H   UNL     1       2.545   7.469  20.004  0.00  0.00    +0.000 HD
ATOM     19  H   UNL     1       3.390   6.578  21.071  0.00  0.00    +0.000 HD
ENDBRANCH   1  17
TORSDOF 3
ENDMDL
MODEL 3
REMARK VINA RESULT:      -6.7      3.313      5.813
REMARK  Name = 
REMARK  3 active torsions:
REMARK  status: ('A' for Active; 'I' for Inactive)
REMARK    1  A    between atoms: N_1  and  C_2
REMARK    2  A    between atoms: C_2  and  C_3
REMARK    3  A    between atoms: C_2  and  C_12
REMARK                            x       y       z     vdW  Elec       q    Type
REMARK                         _______ _______ _______ _____ _____    ______ ____
ROOT
ATOM      1  C   UNL     1       4.327   3.569  17.436  0.00  0.00    +0.000 C 
ENDROOT
BRANCH   1   2
ATOM      2  C   UNL     1       2.794   3.593  17.751  0.00  0.00    +0.000 C 
ATOM      3  O   UNL     1       1.955   3.875  16.888  0.00  0.00    +0.000 OA
ATOM      4  N   UNL     1       2.406   3.195  19.025  0.00  0.00    +0.000 N 
ATOM      5  C   UNL     1       1.023   2.950  19.387  0.00  0.00    +0.000 C 
ATOM      6  C   UNL     1       0.903   3.535  20.784  0.00  0.00    +0.000 C 
ATOM      7  F   UNL     1       0.707   4.881  20.685  0.00  0.00    +0.000 F 
ATOM      8  C   UNL     1       2.272   3.281  21.403  0.00  0.00    +0.000 C 
ATOM      9  F   UNL     1       2.241   2.107  22.091  0.00  0.00    +0.000 F 
ATOM     10  C   UNL     1       3.240   3.157  20.220  0.00  0.00    +0.000 C 
ENDBRANCH   1   2
BRANCH   1  11
ATOM     11  C   UNL     1       4.778   4.510  16.267  0.00  0.00    +0.000 C 
ATOM     12  C   UNL     1       4.728   6.027  16.568  0.00  0.00    +0.000 C 
ATOM     13  C   UNL     1       5.804   6.522  17.536  0.00  0.00    +0.000 C 
ATOM     14  C   UNL     1       7.211   6.042  17.187  0.00  0.00    +0.000 C 
ATOM     15  C   UNL     1       7.275   4.568  16.805  0.00  0.00    +0.000 C 
ATOM     16  C   UNL     1       6.213   4.210  15.768  0.00  0.00    +0.000 C 
ENDBRANCH   1  11
BRANCH   1  17
ATOM     17  N   UNL     1       4.624   2.156  17.087  0.00  0.00    +0.000 NA
ATOM     18  H   UNL     1       3.902   1.532  17.436  0.00  0.00    +0.000 HD
ATOM     19  H   UNL     1       5.485   1.890  17.560  0.00  0.00    +0.000 HD
ENDBRANCH   1  17
TORSDOF 3
ENDMDL
MODEL 4
REMARK VINA RESULT:      -6.6      3.341      5.646
REMARK  Name = 
REMARK  3 active torsions:
REMARK  status: ('A' for Active; 'I' for Inactive)
REMARK    1  A    between atoms: N_1  and  C_2
REMARK    2  A    between atoms: C_2  and  C_3
REMARK    3  A    between atoms: C_2  and  C_12
REMARK                            x       y       z     vdW  Elec       q    Type
REMARK                         _______ _______ _______ _____ _____    ______ ____
ROOT
ATOM      1  C   UNL     1       3.339   6.208  17.930  0.00  0.00    +0.000 C 
ENDROOT
BRANCH   1   2
ATOM      2  C   UNL     1       2.618   5.841  19.269  0.00  0.00    +0.000 C 
ATOM      3  O   UNL     1       2.646   6.591  20.252  0.00  0.00    +0.000 OA
ATOM      4  N   UNL     1       1.865   4.674  19.281  0.00  0.00    +0.000 N 
ATOM      5  C   UNL     1       0.967   4.325  20.365  0.00  0.00    +0.000 C 
ATOM      6  C   UNL     1       1.173   2.830  20.543  0.00  0.00    +0.000 C 
ATOM      7  F   UNL     1       2.282   2.625  21.310  0.00  0.00    +0.000 F 
ATOM      8  C   UNL     1       1.449   2.331  19.131  0.00  0.00    +0.000 C 
ATOM      9  F   UNL     1       0.283   1.917  18.565  0.00  0.00    +0.000 F 
ATOM     10  C   UNL     1       1.988   3.546  18.365  0.00  0.00    +0.000 C 
ENDBRANCH   1   2
BRANCH   1  11
ATOM     11  C   UNL     1       4.888   5.974  17.925  0.00  0.00    +0.000 C 
ATOM     12  C   UNL     1       5.344   4.500  17.813  0.00  0.00    +0.000 C 
ATOM     13  C   UNL     1       5.128   3.867  16.437  0.00  0.00    +0.000 C 
ATOM     14  C   UNL     1       5.635   4.725  15.281  0.00  0.00    +0.000 C 
ATOM     15  C   UNL     1       5.271   6.199  15.409  0.00  0.00    +0.000 C 
ATOM     16  C   UNL     1       5.613   6.744  16.794  0.00  0.00    +0.000 C 
ENDBRANCH   1  11
BRANCH   1  17
ATOM     17  N   UNL     1       3.048   7.651  17.721  0.00  0.00    +0.000 NA
ATOM     18  H   UNL     1       2.791   8.103  18.593  0.00  0.00    +0.000 HD
ATOM     19  H   UNL     1       2.237   7.722  17.111  0.00  0.00    +0.000 HD
ENDBRANCH   1  17
TORSDOF 3
ENDMDL
MODEL 5
REMARK VINA RESULT:      -6.6      3.294      5.856
REMARK  Name = 
REMARK  3 active torsions:
REMARK  status: ('A' for Active; 'I' for Inactive)
REMARK    1  A    between atoms: N_1  and  C_2
REMARK    2  A    between atoms: C_2  and  C_3
REMARK    3  A    between atoms: C_2  and  C_12
REMARK                            x       y       z     vdW  Elec       q    Type
REMARK                         _______ _______ _______ _____ _____    ______ ____
ROOT
ATOM      1  C   UNL     1       4.898   4.267  18.419  0.00  0.00    +0.000 C 
ENDROOT
BRANCH   1   2
ATOM      2  C   UNL     1       3.419   3.818  18.175  0.00  0.00    +0.000 C 
ATOM      3  O   UNL     1       2.894   3.880  17.058  0.00  0.00    +0.000 OA
ATOM      4  N   UNL     1       2.743   3.261  19.254  0.00  0.00    +0.000 N 
ATOM      5  C   UNL     1       1.459   2.598  19.123  0.00  0.00    +0.000 C 
ATOM      6  C   UNL     1       0.688   3.052  20.351  0.00  0.00    +0.000 C 
ATOM      7  F   UNL     1       0.151   4.281  20.107  0.00  0.00    +0.000 F 
ATOM      8  C   UNL     1       1.761   3.186  21.425  0.00  0.00    +0.000 C 
ATOM      9  F   UNL     1       1.838   2.023  22.128  0.00  0.00    +0.000 F 
ATOM     10  C   UNL     1       3.074   3.414  20.665  0.00  0.00    +0.000 C 
ENDBRANCH   1   2
BRANCH   1  11
ATOM     11  C   UNL     1       5.727   4.553  17.120  0.00  0.00    +0.000 C 
ATOM     12  C   UNL     1       5.384   5.868  16.380  0.00  0.00    +0.000 C 
ATOM     13  C   UNL     1       5.844   7.140  17.093  0.00  0.00    +0.000 C 
ATOM     14  C   UNL     1       7.298   7.093  17.555  0.00  0.00    +0.000 C 
ATOM     15  C   UNL     1       7.686   5.774  18.213  0.00  0.00    +0.000 C 
ATOM     16  C   UNL     1       7.254   4.577  17.370  0.00  0.00    +0.000 C 
ENDBRANCH   1  11
BRANCH   1  17
ATOM     17  N   UNL     1       5.518   3.148  19.175  0.00  0.00    +0.000 NA
ATOM     18  H   UNL     1       4.870   2.374  19.281  0.00  0.00    +0.000 HD
ATOM     19  H   UNL     1       5.724   3.481  20.114  0.00  0.00    +0.000 HD
ENDBRANCH   1  17
TORSDOF 3
ENDMDL
MODEL 6
REMARK VINA RESULT:      -6.4      1.345      2.035
REMARK  Name = 
REMARK  3 active torsions:
REMARK  status: ('A' for Active; 'I' for Inactive)
REMARK    1  A    between atoms: N_1  and  C_2
REMARK    2  A    between atoms: C_2  and  C_3
REMARK    3  A    between atoms: C_2  and  C_12
REMARK                            x       y       z     vdW  Elec       q    Type
REMARK                         _______ _______ _______ _____ _____    ______ ____
ROOT
ATOM      1  C   UNL     1       3.929   5.036  19.325  0.00  0.00    +0.000 C 
ENDROOT
BRANCH   1   2
ATOM      2  C   UNL     1       5.439   4.987  18.921  0.00  0.00    +0.000 C 
ATOM      3  O   UNL     1       6.342   5.133  19.753  0.00  0.00    +0.000 OA
ATOM      4  N   UNL     1       5.729   4.682  17.596  0.00  0.00    +0.000 N 
ATOM      5  C   UNL     1       7.069   4.381  17.131  0.00  0.00    +0.000 C 
ATOM      6  C   UNL     1       7.154   5.082  15.785  0.00  0.00    +0.000 C 
ATOM      7  F   UNL     1       7.451   6.397  15.990  0.00  0.00    +0.000 F 
ATOM      8  C   UNL     1       5.739   4.976  15.231  0.00  0.00    +0.000 C 
ATOM      9  F   UNL     1       5.649   3.870  14.443  0.00  0.00    +0.000 F 
ATOM     10  C   UNL     1       4.830   4.809  16.455  0.00  0.00    +0.000 C 
ENDBRANCH   1   2
BRANCH   1  11
ATOM     11  C   UNL     1       3.093   3.774  18.920  0.00  0.00    +0.000 C 
ATOM     12  C   UNL     1       3.386   2.487  19.726  0.00  0.00    +0.000 C 
ATOM     13  C   UNL     1       2.875   2.505  21.168  0.00  0.00    +0.000 C 
ATOM     14  C   UNL     1       1.423   2.957  21.299  0.00  0.00    +0.000 C 
ATOM     15  C   UNL     1       1.085   4.176  20.448  0.00  0.00    +0.000 C 
ATOM     16  C   UNL     1       1.564   4.007  19.008  0.00  0.00    +0.000 C 
ENDBRANCH   1  11
BRANCH   1  17
ATOM     17  N   UNL     1       3.387   6.239  18.641  0.00  0.00    +0.000 NA
ATOM     18  H   UNL     1       3.382   7.042  19.261  0.00  0.00    +0.000 HD
ATOM     19  H   UNL     1       2.415   6.054  18.404  0.00  0.00    +0.000 HD
ENDBRANCH   1  17
TORSDOF 3
ENDMDL
MODEL 7
REMARK VINA RESULT:      -6.2      1.040      1.736
REMARK  Name = 
REMARK  3 active torsions:
REMARK  status: ('A' for Active; 'I' for Inactive)
REMARK    1  A    between atoms: N_1  and  C_2
REMARK    2  A    between atoms: C_2  and  C_3
REMARK    3  A    between atoms: C_2  and  C_12
REMARK                            x       y       z     vdW  Elec       q    Type
REMARK                         _______ _______ _______ _____ _____    ______ ____
ROOT
ATOM      1  C   UNL     1       3.750   2.939  18.206  0.00  0.00    +0.000 C 
ENDROOT
BRANCH   1   2
ATOM      2  C   UNL     1       5.050   3.787  18.402  0.00  0.00    +0.000 C 
ATOM      3  O   UNL     1       5.506   4.031  19.525  0.00  0.00    +0.000 OA
ATOM      4  N   UNL     1       5.726   4.182  17.254  0.00  0.00    +0.000 N 
ATOM      5  C   UNL     1       7.052   4.770  17.281  0.00  0.00    +0.000 C 
ATOM      6  C   UNL     1       6.985   5.867  16.232  0.00  0.00    +0.000 C 
ATOM      7  F   UNL     1       6.412   6.974  16.785  0.00  0.00    +0.000 F 
ATOM      8  C   UNL     1       6.046   5.302  15.174  0.00  0.00    +0.000 C 
ATOM      9  F   UNL     1       6.779   4.679  14.211  0.00  0.00    +0.000 F 
ATOM     10  C   UNL     1       5.178   4.270  15.906  0.00  0.00    +0.000 C 
ENDBRANCH   1   2
BRANCH   1  11
ATOM     11  C   UNL     1       2.451   3.771  17.932  0.00  0.00    +0.000 C 
ATOM     12  C   UNL     1       1.124   3.111  18.377  0.00  0.00    +0.000 C 
ATOM     13  C   UNL     1       0.913   3.061  19.891  0.00  0.00    +0.000 C 
ATOM     14  C   UNL     1       1.164   4.394  20.591  0.00  0.00    +0.000 C 
ATOM     15  C   UNL     1       2.423   5.107  20.110  0.00  0.00    +0.000 C 
ATOM     16  C   UNL     1       2.482   5.174  18.585  0.00  0.00    +0.000 C 
ENDBRANCH   1  11
BRANCH   1  17
ATOM     17  N   UNL     1       3.599   2.171  19.469  0.00  0.00    +0.000 NA
ATOM     18  H   UNL     1       3.120   1.291  19.308  0.00  0.00    +0.000 HD
ATOM     19  H   UNL     1       3.005   2.710  20.095  0.00  0.00    +0.000 HD
ENDBRANCH   1  17
TORSDOF 3
ENDMDL
MODEL 8
REMARK VINA RESULT:      -6.2      2.172      3.194
REMARK  Name = 
REMARK  3 active torsions:
REMARK  status: ('A' for Active; 'I' for Inactive)
REMARK    1  A    between atoms: N_1  and  C_2
REMARK    2  A    between atoms: C_2  and  C_3
REMARK    3  A    between atoms: C_2  and  C_12
REMARK                            x       y       z     vdW  Elec       q    Type
REMARK                         _______ _______ _______ _____ _____    ______ ____
ROOT
ATOM      1  C   UNL     1       3.212   4.564  18.399  0.00  0.00    +0.000 C 
ENDROOT
BRANCH   1   2
ATOM      2  C   UNL     1       4.335   4.454  17.314  0.00  0.00    +0.000 C 
ATOM      3  O   UNL     1       4.184   3.784  16.286  0.00  0.00    +0.000 OA
ATOM      4  N   UNL     1       5.480   5.215  17.511  0.00  0.00    +0.000 N 
ATOM      5  C   UNL     1       6.496   5.390  16.491  0.00  0.00    +0.000 C 
ATOM      6  C   UNL     1       7.803   5.316  17.262  0.00  0.00    +0.000 C 
ATOM      7  F   UNL     1       8.130   4.006  17.455  0.00  0.00    +0.000 F 
ATOM      8  C   UNL     1       7.467   5.944  18.609  0.00  0.00    +0.000 C 
ATOM      9  F   UNL     1       7.774   7.269  18.575  0.00  0.00    +0.000 F 
ATOM     10  C   UNL     1       5.951   5.773  18.773  0.00  0.00    +0.000 C 
ENDBRANCH   1   2
BRANCH   1  11
ATOM     11  C   UNL     1       2.372   3.261  18.618  0.00  0.00    +0.000 C 
ATOM     12  C   UNL     1       3.043   2.164  19.478  0.00  0.00    +0.000 C 
ATOM     13  C   UNL     1       3.140   2.491  20.969  0.00  0.00    +0.000 C 
ATOM     14  C   UNL     1       1.828   2.986  21.575  0.00  0.00    +0.000 C 
ATOM     15  C   UNL     1       1.103   4.007  20.706  0.00  0.00    +0.000 C 
ATOM     16  C   UNL     1       0.989   3.533  19.259  0.00  0.00    +0.000 C 
ENDBRANCH   1  11
BRANCH   1  17
ATOM     17  N   UNL     1       2.327   5.660  17.924  0.00  0.00    +0.000 NA
ATOM     18  H   UNL     1       2.233   6.385  18.628  0.00  0.00    +0.000 HD
ATOM     19  H   UNL     1       1.397   5.273  17.785  0.00  0.00    +0.000 HD
ENDBRANCH   1  17
TORSDOF 3
ENDMDL
MODEL 9
REMARK VINA RESULT:      -6.2      1.059      1.257
REMARK  Name = 
REMARK  3 active torsions:
REMARK  status: ('A' for Active; 'I' for Inactive)
REMARK    1  A    between atoms: N_1  and  C_2
REMARK    2  A    between atoms: C_2  and  C_3
REMARK    3  A    between atoms: C_2  and  C_12
REMARK                            x       y       z     vdW  Elec       q    Type
REMARK                         _______ _______ _______ _____ _____    ______ ____
ROOT
ATOM      1  C   UNL     1       3.850   3.138  18.689  0.00  0.00    +0.000 C 
ENDROOT
BRANCH   1   2
ATOM      2  C   UNL     1       5.219   3.889  18.582  0.00  0.00    +0.000 C 
ATOM      3  O   UNL     1       5.917   4.118  19.576  0.00  0.00    +0.000 OA
ATOM      4  N   UNL     1       5.663   4.211  17.305  0.00  0.00    +0.000 N 
ATOM      5  C   UNL     1       7.003   4.698  17.036  0.00  0.00    +0.000 C 
ATOM      6  C   UNL     1       6.793   5.778  15.988  0.00  0.00    +0.000 C 
ATOM      7  F   UNL     1       6.429   6.935  16.612  0.00  0.00    +0.000 F 
ATOM      8  C   UNL     1       5.616   5.267  15.169  0.00  0.00    +0.000 C 
ATOM      9  F   UNL     1       6.085   4.573  14.096  0.00  0.00    +0.000 F 
ATOM     10  C   UNL     1       4.851   4.316  16.099  0.00  0.00    +0.000 C 
ENDBRANCH   1   2
BRANCH   1  11
ATOM     11  C   UNL     1       3.276   3.010  20.141  0.00  0.00    +0.000 C 
ATOM     12  C   UNL     1       2.988   4.344  20.870  0.00  0.00    +0.000 C 
ATOM     13  C   UNL     1       1.780   5.116  20.335  0.00  0.00    +0.000 C 
ATOM     14  C   UNL     1       0.527   4.258  20.172  0.00  0.00    +0.000 C 
ATOM     15  C   UNL     1       0.797   2.901  19.532  0.00  0.00    +0.000 C 
ATOM     16  C   UNL     1       1.967   2.186  20.205  0.00  0.00    +0.000 C 
ENDBRANCH   1  11
BRANCH   1  17
ATOM     17  N   UNL     1       4.111   1.785  18.131  0.00  0.00    +0.000 NA
ATOM     18  H   UNL     1       3.453   1.104  18.499  0.00  0.00    +0.000 HD
ATOM     19  H   UNL     1       5.033   1.489  18.443  0.00  0.00    +0.000 HD
ENDBRANCH   1  17
TORSDOF 3
ENDMDL
