MODEL 1
REMARK VINA RESULT:      -7.2      0.000      0.000
REMARK  Name = 
REMARK  4 active torsions:
REMARK  status: ('A' for Active; 'I' for Inactive)
REMARK    1  A    between atoms: C_2  and  C_3
REMARK    2  A    between atoms: N_8  and  S_23
REMARK    3  A    between atoms: N_14  and  C_15
REMARK    4  A    between atoms: S_23  and  C_26
REMARK                            x       y       z     vdW  Elec       q    Type
REMARK                         _______ _______ _______ _____ _____    ______ ____
ROOT
ATOM      1  O   UNL     1       0.794  14.739  22.753  0.00  0.00    +0.000 OA
ATOM      2  C   UNL     1       0.670  14.152  21.683  0.00  0.00    +0.000 C 
ATOM      3  N   UNL     1       0.195  12.798  21.678  0.00  0.00    +0.000 N 
ATOM      4  C   UNL     1       0.806  11.956  20.706  0.00  0.00    +0.000 C 
ATOM      5  O   UNL     1       1.789  12.333  20.066  0.00  0.00    +0.000 OA
ATOM      6  N   UNL     1       0.314  10.688  20.408  0.00  0.00    +0.000 N 
ATOM      7  C   UNL     1       0.528  10.171  19.038  0.00  0.00    +0.000 C 
ATOM      8  C   UNL     1       1.782   9.276  18.908  0.00  0.00    +0.000 C 
ATOM      9  N   UNL     1       1.688   8.202  19.907  0.00  0.00    +0.000 N 
ATOM     10  C   UNL     1       1.546   8.670  21.292  0.00  0.00    +0.000 C 
ATOM     11  C   UNL     1       0.337   9.623  21.422  0.00  0.00    +0.000 C 
ENDROOT
BRANCH   9  12
ATOM     12  C   UNL     1       1.894   6.873  19.606  0.00  0.00    +0.000 A 
ATOM     13  C   UNL     1       1.753   5.855  20.561  0.00  0.00    +0.000 A 
ATOM     14  C   UNL     1       1.987   4.509  20.246  0.00  0.00    +0.000 A 
ATOM     15  C   UNL     1       2.381   4.149  18.962  0.00  0.00    +0.000 A 
ATOM     16  C   UNL     1       2.537   5.136  17.996  0.00  0.00    +0.000 A 
ATOM     17  C   UNL     1       2.292   6.476  18.318  0.00  0.00    +0.000 A 
ENDBRANCH   9  12
BRANCH   2  18
ATOM     18  C   UNL     1       1.009  14.892  20.460  0.00  0.00    +0.000 A 
ATOM     19  C   UNL     1       2.236  15.492  20.226  0.00  0.00    +0.000 A 
ATOM     20  C   UNL     1       2.336  16.075  18.930  0.00  0.00    +0.000 A 
ATOM     21  C   UNL     1       1.154  15.965  18.241  0.00  0.00    +0.000 A 
ATOM     22  S   UNL     1      -0.092  15.283  19.208  0.00  0.00    +0.000 S 
ENDBRANCH   2  18
BRANCH   3  23
ATOM     23  S   UNL     1      -1.085  12.472  22.737  0.00  0.00    +0.000 S 
ATOM     24  O   UNL     1      -0.905  11.137  23.279  0.00  0.00    +0.000 OA
ATOM     25  O   UNL     1      -1.244  13.566  23.674  0.00  0.00    +0.000 OA
BRANCH  23  26
ATOM     26  C   UNL     1      -2.628  12.405  21.779  0.00  0.00    +0.000 A 
ATOM     27  C   UNL     1      -3.864  12.637  22.385  0.00  0.00    +0.000 A 
ATOM     28  C   UNL     1      -5.033  12.758  21.617  0.00  0.00    +0.000 A 
ATOM     29  C   UNL     1      -4.974  12.704  20.228  0.00  0.00    +0.000 A 
ATOM     30  C   UNL     1      -3.740  12.513  19.606  0.00  0.00    +0.000 A 
ATOM     31  C   UNL     1      -2.569  12.358  20.369  0.00  0.00    +0.000 A 
ENDBRANCH  23  26
ENDBRANCH   3  23
TORSDOF 4
ENDMDL
MODEL 2
REMARK VINA RESULT:      -7.1      0.212      1.237
REMARK  Name = 
REMARK  4 active torsions:
REMARK  status: ('A' for Active; 'I' for Inactive)
REMARK    1  A    between atoms: C_2  and  C_3
REMARK    2  A    between atoms: N_8  and  S_23
REMARK    3  A    between atoms: N_14  and  C_15
REMARK    4  A    between atoms: S_23  and  C_26
REMARK                            x       y       z     vdW  Elec       q    Type
REMARK                         _______ _______ _______ _____ _____    ______ ____
ROOT
ATOM      1  O   UNL     1       0.708  14.637  22.692  0.00  0.00    +0.000 OA
ATOM      2  C   UNL     1       0.652  14.058  21.611  0.00  0.00    +0.000 C 
ATOM      3  N   UNL     1       0.164  12.710  21.563  0.00  0.00    +0.000 N 
ATOM      4  C   UNL     1       0.832  11.867  20.630  0.00  0.00    +0.000 C 
ATOM      5  O   UNL     1       1.861  12.236  20.063  0.00  0.00    +0.000 OA
ATOM      6  N   UNL     1       0.348  10.607  20.290  0.00  0.00    +0.000 N 
ATOM      7  C   UNL     1       0.651  10.096  18.934  0.00  0.00    +0.000 C 
ATOM      8  C   UNL     1       1.902   9.187  18.885  0.00  0.00    +0.000 C 
ATOM      9  N   UNL     1       1.726   8.109  19.867  0.00  0.00    +0.000 N 
ATOM     10  C   UNL     1       1.493   8.569  21.242  0.00  0.00    +0.000 C 
ATOM     11  C   UNL     1       0.288   9.535  21.295  0.00  0.00    +0.000 C 
ENDROOT
BRANCH   9  12
ATOM     12  C   UNL     1       1.938   6.778  19.571  0.00  0.00    +0.000 A 
ATOM     13  C   UNL     1       2.391   6.350  18.314  0.00  0.00    +0.000 A 
ATOM     14  C   UNL     1       2.582   4.993  18.021  0.00  0.00    +0.000 A 
ATOM     15  C   UNL     1       2.312   4.025  18.982  0.00  0.00    +0.000 A 
ATOM     16  C   UNL     1       1.855   4.417  20.233  0.00  0.00    +0.000 A 
ATOM     17  C   UNL     1       1.676   5.776  20.519  0.00  0.00    +0.000 A 
ENDBRANCH   9  12
BRANCH   2  18
ATOM     18  C   UNL     1       1.084  14.802  20.421  0.00  0.00    +0.000 A 
ATOM     19  C   UNL     1       2.328  15.397  20.280  0.00  0.00    +0.000 A 
ATOM     20  C   UNL     1       2.526  15.985  18.998  0.00  0.00    +0.000 A 
ATOM     21  C   UNL     1       1.397  15.884  18.224  0.00  0.00    +0.000 A 
ATOM     22  S   UNL     1       0.080  15.204  19.093  0.00  0.00    +0.000 S 
ENDBRANCH   2  18
BRANCH   3  23
ATOM     23  S   UNL     1      -1.191  12.391  22.528  0.00  0.00    +0.000 S 
ATOM     24  O   UNL     1      -1.156  10.994  22.922  0.00  0.00    +0.000 OA
ATOM     25  O   UNL     1      -1.297  13.386  23.577  0.00  0.00    +0.000 OA
BRANCH  23  26
ATOM     26  C   UNL     1      -2.684  12.575  21.510  0.00  0.00    +0.000 A 
ATOM     27  C   UNL     1      -2.653  12.342  20.134  0.00  0.00    +0.000 A 
ATOM     28  C   UNL     1      -3.836  12.313  19.379  0.00  0.00    +0.000 A 
ATOM     29  C   UNL     1      -5.073  12.462  19.999  0.00  0.00    +0.000 A 
ATOM     30  C   UNL     1      -5.122  12.656  21.379  0.00  0.00    +0.000 A 
ATOM     31  C   UNL     1      -3.941  12.718  22.138  0.00  0.00    +0.000 A 
ENDBRANCH  23  26
ENDBRANCH   3  23
TORSDOF 4
ENDMDL
MODEL 3
REMARK VINA RESULT:      -7.1      0.626      1.176
REMARK  Name = 
REMARK  4 active torsions:
REMARK  status: ('A' for Active; 'I' for Inactive)
REMARK    1  A    between atoms: C_2  and  C_3
REMARK    2  A    between atoms: N_8  and  S_23
REMARK    3  A    between atoms: N_14  and  C_15
REMARK    4  A    between atoms: S_23  and  C_26
REMARK                            x       y       z     vdW  Elec       q    Type
REMARK                         _______ _______ _______ _____ _____    ______ ____
ROOT
ATOM      1  O   UNL     1       0.509  14.731  22.756  0.00  0.00    +0.000 OA
ATOM      2  C   UNL     1       0.407  14.141  21.685  0.00  0.00    +0.000 C 
ATOM      3  N   UNL     1      -0.010  12.769  21.678  0.00  0.00    +0.000 N 
ATOM      4  C   UNL     1       0.635  11.955  20.704  0.00  0.00    +0.000 C 
ATOM      5  O   UNL     1       1.600  12.374  20.063  0.00  0.00    +0.000 OA
ATOM      6  N   UNL     1       0.196  10.668  20.405  0.00  0.00    +0.000 N 
ATOM      7  C   UNL     1       0.429  10.163  19.033  0.00  0.00    +0.000 C 
ATOM      8  C   UNL     1       1.720   9.321  18.899  0.00  0.00    +0.000 C 
ATOM      9  N   UNL     1       1.672   8.243  19.897  0.00  0.00    +0.000 N 
ATOM     10  C   UNL     1       1.513   8.702  21.283  0.00  0.00    +0.000 C 
ATOM     11  C   UNL     1       0.265   9.603  21.416  0.00  0.00    +0.000 C 
ENDROOT
BRANCH   9  12
ATOM     12  C   UNL     1       1.934   6.924  19.593  0.00  0.00    +0.000 A 
ATOM     13  C   UNL     1       1.771   5.890  20.528  0.00  0.00    +0.000 A 
ATOM     14  C   UNL     1       2.062   4.556  20.211  0.00  0.00    +0.000 A 
ATOM     15  C   UNL     1       2.536   4.224  18.947  0.00  0.00    +0.000 A 
ATOM     16  C   UNL     1       2.715   5.226  18.002  0.00  0.00    +0.000 A 
ATOM     17  C   UNL     1       2.414   6.555  18.326  0.00  0.00    +0.000 A 
ENDBRANCH   9  12
BRANCH   2  18
ATOM     18  C   UNL     1       0.713  14.897  20.463  0.00  0.00    +0.000 A 
ATOM     19  C   UNL     1      -0.199  15.145  19.449  0.00  0.00    +0.000 A 
ATOM     20  C   UNL     1       0.325  15.971  18.414  0.00  0.00    +0.000 A 
ATOM     21  C   UNL     1       1.647  16.269  18.635  0.00  0.00    +0.000 A 
ATOM     22  S   UNL     1       2.271  15.446  20.008  0.00  0.00    +0.000 S 
ENDBRANCH   2  18
BRANCH   3  23
ATOM     23  S   UNL     1      -1.274  12.387  22.738  0.00  0.00    +0.000 S 
ATOM     24  O   UNL     1      -1.229  10.962  23.013  0.00  0.00    +0.000 OA
ATOM     25  O   UNL     1      -1.263  13.294  23.869  0.00  0.00    +0.000 OA
BRANCH  23  26
ATOM     26  C   UNL     1      -2.852  12.670  21.884  0.00  0.00    +0.000 A 
ATOM     27  C   UNL     1      -2.949  12.572  20.494  0.00  0.00    +0.000 A 
ATOM     28  C   UNL     1      -4.197  12.618  19.853  0.00  0.00    +0.000 A 
ATOM     29  C   UNL     1      -5.370  12.706  20.595  0.00  0.00    +0.000 A 
ATOM     30  C   UNL     1      -5.292  12.765  21.986  0.00  0.00    +0.000 A 
ATOM     31  C   UNL     1      -4.045  12.752  22.636  0.00  0.00    +0.000 A 
ENDBRANCH  23  26
ENDBRANCH   3  23
TORSDOF 4
ENDMDL
MODEL 4
REMARK VINA RESULT:      -7.1      1.848      5.006
REMARK  Name = 
REMARK  4 active torsions:
REMARK  status: ('A' for Active; 'I' for Inactive)
REMARK    1  A    between atoms: C_2  and  C_3
REMARK    2  A    between atoms: N_8  and  S_23
REMARK    3  A    between atoms: N_14  and  C_15
REMARK    4  A    between atoms: S_23  and  C_26
REMARK                            x       y       z     vdW  Elec       q    Type
REMARK                         _______ _______ _______ _____ _____    ______ ____
ROOT
ATOM      1  O   UNL     1      -2.873  15.893  21.438  0.00  0.00    +0.000 OA
ATOM      2  C   UNL     1      -2.634  14.781  21.898  0.00  0.00    +0.000 C 
ATOM      3  N   UNL     1      -1.330  14.213  21.716  0.00  0.00    +0.000 N 
ATOM      4  C   UNL     1      -1.319  12.808  21.484  0.00  0.00    +0.000 C 
ATOM      5  O   UNL     1      -2.363  12.190  21.274  0.00  0.00    +0.000 OA
ATOM      6  N   UNL     1      -0.145  12.061  21.513  0.00  0.00    +0.000 N 
ATOM      7  C   UNL     1      -0.241  10.642  21.922  0.00  0.00    +0.000 C 
ATOM      8  C   UNL     1      -0.360   9.664  20.728  0.00  0.00    +0.000 C 
ATOM      9  N   UNL     1       0.765   9.913  19.816  0.00  0.00    +0.000 N 
ATOM     10  C   UNL     1       0.859  11.294  19.327  0.00  0.00    +0.000 C 
ATOM     11  C   UNL     1       0.907  12.287  20.510  0.00  0.00    +0.000 C 
ENDROOT
BRANCH   9  12
ATOM     12  C   UNL     1       1.562   8.907  19.313  0.00  0.00    +0.000 A 
ATOM     13  C   UNL     1       2.114   8.958  18.024  0.00  0.00    +0.000 A 
ATOM     14  C   UNL     1       2.906   7.918  17.517  0.00  0.00    +0.000 A 
ATOM     15  C   UNL     1       3.156   6.790  18.290  0.00  0.00    +0.000 A 
ATOM     16  C   UNL     1       2.618   6.706  19.567  0.00  0.00    +0.000 A 
ATOM     17  C   UNL     1       1.836   7.754  20.067  0.00  0.00    +0.000 A 
ENDBRANCH   9  12
BRANCH   2  18
ATOM     18  C   UNL     1      -3.715  14.103  22.626  0.00  0.00    +0.000 A 
ATOM     19  C   UNL     1      -4.970  13.844  22.097  0.00  0.00    +0.000 A 
ATOM     20  C   UNL     1      -5.807  13.101  22.979  0.00  0.00    +0.000 A 
ATOM     21  C   UNL     1      -5.188  12.879  24.184  0.00  0.00    +0.000 A 
ATOM     22  S   UNL     1      -3.669  13.675  24.284  0.00  0.00    +0.000 S 
ENDBRANCH   2  18
BRANCH   3  23
ATOM     23  S   UNL     1      -0.034  15.282  21.929  0.00  0.00    +0.000 S 
ATOM     24  O   UNL     1      -0.519  16.460  22.625  0.00  0.00    +0.000 OA
ATOM     25  O   UNL     1       1.099  14.579  22.498  0.00  0.00    +0.000 OA
BRANCH  23  26
ATOM     26  C   UNL     1       0.508  15.868  20.297  0.00  0.00    +0.000 A 
ATOM     27  C   UNL     1      -0.401  16.405  19.384  0.00  0.00    +0.000 A 
ATOM     28  C   UNL     1       0.040  17.015  18.199  0.00  0.00    +0.000 A 
ATOM     29  C   UNL     1       1.399  17.146  17.936  0.00  0.00    +0.000 A 
ATOM     30  C   UNL     1       2.321  16.650  18.858  0.00  0.00    +0.000 A 
ATOM     31  C   UNL     1       1.888  16.009  20.032  0.00  0.00    +0.000 A 
ENDBRANCH  23  26
ENDBRANCH   3  23
TORSDOF 4
ENDMDL
MODEL 5
REMARK VINA RESULT:      -7.0      6.597     10.640
REMARK  Name = 
REMARK  4 active torsions:
REMARK  status: ('A' for Active; 'I' for Inactive)
REMARK    1  A    between atoms: C_2  and  C_3
REMARK    2  A    between atoms: N_8  and  S_23
REMARK    3  A    between atoms: N_14  and  C_15
REMARK    4  A    between atoms: S_23  and  C_26
REMARK                            x       y       z     vdW  Elec       q    Type
REMARK                         _______ _______ _______ _____ _____    ______ ____
ROOT
ATOM      1  O   UNL     1       9.600  15.179  20.703  0.00  0.00    +0.000 OA
ATOM      2  C   UNL     1       8.492  14.684  20.881  0.00  0.00    +0.000 C 
ATOM      3  N   UNL     1       7.502  14.794  19.848  0.00  0.00    +0.000 N 
ATOM      4  C   UNL     1       6.172  14.993  20.317  0.00  0.00    +0.000 C 
ATOM      5  O   UNL     1       5.945  15.237  21.504  0.00  0.00    +0.000 OA
ATOM      6  N   UNL     1       5.067  14.895  19.477  0.00  0.00    +0.000 N 
ATOM      7  C   UNL     1       3.785  14.459  20.074  0.00  0.00    +0.000 C 
ATOM      8  C   UNL     1       2.866  15.635  20.483  0.00  0.00    +0.000 C 
ATOM      9  N   UNL     1       2.676  16.500  19.311  0.00  0.00    +0.000 N 
ATOM     10  C   UNL     1       3.921  17.016  18.726  0.00  0.00    +0.000 C 
ATOM     11  C   UNL     1       4.879  15.854  18.378  0.00  0.00    +0.000 C 
ENDROOT
BRANCH   9  12
ATOM     12  C   UNL     1       1.439  16.944  18.894  0.00  0.00    +0.000 A 
ATOM     13  C   UNL     1       0.256  16.628  19.580  0.00  0.00    +0.000 A 
ATOM     14  C   UNL     1      -0.997  17.068  19.133  0.00  0.00    +0.000 A 
ATOM     15  C   UNL     1      -1.098  17.833  17.976  0.00  0.00    +0.000 A 
ATOM     16  C   UNL     1       0.054  18.156  17.271  0.00  0.00    +0.000 A 
ATOM     17  C   UNL     1       1.302  17.718  17.730  0.00  0.00    +0.000 A 
ENDBRANCH   9  12
BRANCH   2  18
ATOM     18  C   UNL     1       8.256  13.990  22.154  0.00  0.00    +0.000 A 
ATOM     19  C   UNL     1       7.953  12.642  22.264  0.00  0.00    +0.000 A 
ATOM     20  C   UNL     1       7.853  12.199  23.614  0.00  0.00    +0.000 A 
ATOM     21  C   UNL     1       8.011  13.241  24.494  0.00  0.00    +0.000 A 
ATOM     22  S   UNL     1       8.145  14.751  23.685  0.00  0.00    +0.000 S 
ENDBRANCH   2  18
BRANCH   3  23
ATOM     23  S   UNL     1       8.064  14.547  18.271  0.00  0.00    +0.000 S 
ATOM     24  O   UNL     1       7.048  13.825  17.528  0.00  0.00    +0.000 OA
ATOM     25  O   UNL     1       8.547  15.797  17.716  0.00  0.00    +0.000 OA
BRANCH  23  26
ATOM     26  C   UNL     1       9.502  13.439  18.335  0.00  0.00    +0.000 A 
ATOM     27  C   UNL     1       9.383  12.127  18.799  0.00  0.00    +0.000 A 
ATOM     28  C   UNL     1      10.449  11.222  18.685  0.00  0.00    +0.000 A 
ATOM     29  C   UNL     1      11.632  11.598  18.055  0.00  0.00    +0.000 A 
ATOM     30  C   UNL     1      11.751  12.893  17.551  0.00  0.00    +0.000 A 
ATOM     31  C   UNL     1      10.701  13.817  17.690  0.00  0.00    +0.000 A 
ENDBRANCH  23  26
ENDBRANCH   3  23
TORSDOF 4
ENDMDL
MODEL 6
REMARK VINA RESULT:      -7.0      1.369      2.067
REMARK  Name = 
REMARK  4 active torsions:
REMARK  status: ('A' for Active; 'I' for Inactive)
REMARK    1  A    between atoms: C_2  and  C_3
REMARK    2  A    between atoms: N_8  and  S_23
REMARK    3  A    between atoms: N_14  and  C_15
REMARK    4  A    between atoms: S_23  and  C_26
REMARK                            x       y       z     vdW  Elec       q    Type
REMARK                         _______ _______ _______ _____ _____    ______ ____
ROOT
ATOM      1  O   UNL     1       0.561  13.639  22.440  0.00  0.00    +0.000 OA
ATOM      2  C   UNL     1       0.493  13.202  21.296  0.00  0.00    +0.000 C 
ATOM      3  N   UNL     1       0.252  11.802  21.094  0.00  0.00    +0.000 N 
ATOM      4  C   UNL     1       0.956  11.228  19.997  0.00  0.00    +0.000 C 
ATOM      5  O   UNL     1       1.835  11.857  19.406  0.00  0.00    +0.000 OA
ATOM      6  N   UNL     1       0.671   9.952  19.519  0.00  0.00    +0.000 N 
ATOM      7  C   UNL     1       0.913   9.685  18.084  0.00  0.00    +0.000 C 
ATOM      8  C   UNL     1       2.294   9.047  17.801  0.00  0.00    +0.000 C 
ATOM      9  N   UNL     1       2.420   7.839  18.628  0.00  0.00    +0.000 N 
ATOM     10  C   UNL     1       2.258   8.068  20.070  0.00  0.00    +0.000 C 
ATOM     11  C   UNL     1       0.913   8.771  20.360  0.00  0.00    +0.000 C 
ENDROOT
BRANCH   9  12
ATOM     12  C   UNL     1       2.834   6.623  18.127  0.00  0.00    +0.000 A 
ATOM     13  C   UNL     1       4.070   6.455  17.485  0.00  0.00    +0.000 A 
ATOM     14  C   UNL     1       4.469   5.217  16.961  0.00  0.00    +0.000 A 
ATOM     15  C   UNL     1       3.629   4.114  17.059  0.00  0.00    +0.000 A 
ATOM     16  C   UNL     1       2.396   4.250  17.683  0.00  0.00    +0.000 A 
ATOM     17  C   UNL     1       2.011   5.488  18.210  0.00  0.00    +0.000 A 
ENDBRANCH   9  12
BRANCH   2  18
ATOM     18  C   UNL     1       0.655  14.160  20.194  0.00  0.00    +0.000 A 
ATOM     19  C   UNL     1      -0.332  14.457  19.267  0.00  0.00    +0.000 A 
ATOM     20  C   UNL     1       0.049  15.479  18.352  0.00  0.00    +0.000 A 
ATOM     21  C   UNL     1       1.345  15.880  18.563  0.00  0.00    +0.000 A 
ATOM     22  S   UNL     1       2.122  14.933  19.767  0.00  0.00    +0.000 S 
ENDBRANCH   2  18
BRANCH   3  23
ATOM     23  S   UNL     1      -0.912  11.110  22.110  0.00  0.00    +0.000 S 
ATOM     24  O   UNL     1      -1.444   9.926  21.460  0.00  0.00    +0.000 OA
ATOM     25  O   UNL     1      -0.376  10.963  23.448  0.00  0.00    +0.000 OA
BRANCH  23  26
ATOM     26  C   UNL     1      -2.313  12.258  22.253  0.00  0.00    +0.000 A 
ATOM     27  C   UNL     1      -3.030  12.667  21.127  0.00  0.00    +0.000 A 
ATOM     28  C   UNL     1      -4.213  13.411  21.256  0.00  0.00    +0.000 A 
ATOM     29  C   UNL     1      -4.727  13.710  22.514  0.00  0.00    +0.000 A 
ATOM     30  C   UNL     1      -4.042  13.274  23.649  0.00  0.00    +0.000 A 
ATOM     31  C   UNL     1      -2.839  12.556  23.530  0.00  0.00    +0.000 A 
ENDBRANCH  23  26
ENDBRANCH   3  23
TORSDOF 4
ENDMDL
MODEL 7
REMARK VINA RESULT:      -6.9      6.658     10.752
REMARK  Name = 
REMARK  4 active torsions:
REMARK  status: ('A' for Active; 'I' for Inactive)
REMARK    1  A    between atoms: C_2  and  C_3
REMARK    2  A    between atoms: N_8  and  S_23
REMARK    3  A    between atoms: N_14  and  C_15
REMARK    4  A    between atoms: S_23  and  C_26
REMARK                            x       y       z     vdW  Elec       q    Type
REMARK                         _______ _______ _______ _____ _____    ______ ____
ROOT
ATOM      1  O   UNL     1       9.804  15.235  20.665  0.00  0.00    +0.000 OA
ATOM      2  C   UNL     1       8.700  14.735  20.856  0.00  0.00    +0.000 C 
ATOM      3  N   UNL     1       7.716  14.791  19.814  0.00  0.00    +0.000 N 
ATOM      4  C   UNL     1       6.381  14.995  20.266  0.00  0.00    +0.000 C 
ATOM      5  O   UNL     1       6.143  15.286  21.439  0.00  0.00    +0.000 OA
ATOM      6  N   UNL     1       5.282  14.850  19.423  0.00  0.00    +0.000 N 
ATOM      7  C   UNL     1       4.001  14.425  20.030  0.00  0.00    +0.000 C 
ATOM      8  C   UNL     1       3.066  15.607  20.384  0.00  0.00    +0.000 C 
ATOM      9  N   UNL     1       2.876  16.420  19.175  0.00  0.00    +0.000 N 
ATOM     10  C   UNL     1       4.119  16.924  18.577  0.00  0.00    +0.000 C 
ATOM     11  C   UNL     1       5.091  15.759  18.284  0.00  0.00    +0.000 C 
ENDROOT
BRANCH   9  12
ATOM     12  C   UNL     1       1.636  16.832  18.732  0.00  0.00    +0.000 A 
ATOM     13  C   UNL     1       1.480  17.751  17.684  0.00  0.00    +0.000 A 
ATOM     14  C   UNL     1       0.214  18.179  17.259  0.00  0.00    +0.000 A 
ATOM     15  C   UNL     1      -0.932  17.701  17.885  0.00  0.00    +0.000 A 
ATOM     16  C   UNL     1      -0.809  16.796  18.931  0.00  0.00    +0.000 A 
ATOM     17  C   UNL     1       0.459  16.369  19.342  0.00  0.00    +0.000 A 
ENDBRANCH   9  12
BRANCH   2  18
ATOM     18  C   UNL     1       8.463  14.093  22.156  0.00  0.00    +0.000 A 
ATOM     19  C   UNL     1       8.154  12.752  22.320  0.00  0.00    +0.000 A 
ATOM     20  C   UNL     1       8.054  12.363  23.686  0.00  0.00    +0.000 A 
ATOM     21  C   UNL     1       8.219  13.438  24.524  0.00  0.00    +0.000 A 
ATOM     22  S   UNL     1       8.359  14.914  23.656  0.00  0.00    +0.000 S 
ENDBRANCH   2  18
BRANCH   3  23
ATOM     23  S   UNL     1       8.291  14.484  18.252  0.00  0.00    +0.000 S 
ATOM     24  O   UNL     1       7.244  13.818  17.498  0.00  0.00    +0.000 OA
ATOM     25  O   UNL     1       8.865  15.691  17.690  0.00  0.00    +0.000 OA
BRANCH  23  26
ATOM     26  C   UNL     1       9.652  13.285  18.360  0.00  0.00    +0.000 A 
ATOM     27  C   UNL     1      10.969  13.661  18.088  0.00  0.00    +0.000 A 
ATOM     28  C   UNL     1      12.036  12.786  18.340  0.00  0.00    +0.000 A 
ATOM     29  C   UNL     1      11.808  11.541  18.919  0.00  0.00    +0.000 A 
ATOM     30  C   UNL     1      10.502  11.167  19.233  0.00  0.00    +0.000 A 
ATOM     31  C   UNL     1       9.423  12.025  18.955  0.00  0.00    +0.000 A 
ENDBRANCH  23  26
ENDBRANCH   3  23
TORSDOF 4
ENDMDL
MODEL 8
REMARK VINA RESULT:      -6.9      1.442      2.061
REMARK  Name = 
REMARK  4 active torsions:
REMARK  status: ('A' for Active; 'I' for Inactive)
REMARK    1  A    between atoms: C_2  and  C_3
REMARK    2  A    between atoms: N_8  and  S_23
REMARK    3  A    between atoms: N_14  and  C_15
REMARK    4  A    between atoms: S_23  and  C_26
REMARK                            x       y       z     vdW  Elec       q    Type
REMARK                         _______ _______ _______ _____ _____    ______ ____
ROOT
ATOM      1  O   UNL     1       0.627  14.501  22.659  0.00  0.00    +0.000 OA
ATOM      2  C   UNL     1       0.699  13.954  21.563  0.00  0.00    +0.000 C 
ATOM      3  N   UNL     1       0.168  12.630  21.404  0.00  0.00    +0.000 N 
ATOM      4  C   UNL     1       0.926  11.784  20.546  0.00  0.00    +0.000 C 
ATOM      5  O   UNL     1       2.039  12.122  20.139  0.00  0.00    +0.000 OA
ATOM      6  N   UNL     1       0.444  10.556  20.101  0.00  0.00    +0.000 N 
ATOM      7  C   UNL     1       0.913  10.069  18.784  0.00  0.00    +0.000 C 
ATOM      8  C   UNL     1       2.121   9.107  18.879  0.00  0.00    +0.000 C 
ATOM      9  N   UNL     1       1.766   8.011  19.792  0.00  0.00    +0.000 N 
ATOM     10  C   UNL     1       1.362   8.444  21.136  0.00  0.00    +0.000 C 
ATOM     11  C   UNL     1       0.201   9.462  21.052  0.00  0.00    +0.000 C 
ENDROOT
BRANCH   9  12
ATOM     12  C   UNL     1       1.964   6.681  19.486  0.00  0.00    +0.000 A 
ATOM     13  C   UNL     1       2.416   6.259  18.227  0.00  0.00    +0.000 A 
ATOM     14  C   UNL     1       2.592   4.902  17.922  0.00  0.00    +0.000 A 
ATOM     15  C   UNL     1       2.307   3.929  18.874  0.00  0.00    +0.000 A 
ATOM     16  C   UNL     1       1.850   4.316  20.127  0.00  0.00    +0.000 A 
ATOM     17  C   UNL     1       1.686   5.674  20.424  0.00  0.00    +0.000 A 
ENDBRANCH   9  12
BRANCH   2  18
ATOM     18  C   UNL     1       1.323  14.709  20.468  0.00  0.00    +0.000 A 
ATOM     19  C   UNL     1       2.601  15.244  20.518  0.00  0.00    +0.000 A 
ATOM     20  C   UNL     1       2.999  15.858  19.297  0.00  0.00    +0.000 A 
ATOM     21  C   UNL     1       1.983  15.838  18.374  0.00  0.00    +0.000 A 
ATOM     22  S   UNL     1       0.529  15.201  19.032  0.00  0.00    +0.000 S 
ENDBRANCH   2  18
BRANCH   3  23
ATOM     23  S   UNL     1      -1.319  12.347  22.160  0.00  0.00    +0.000 S 
ATOM     24  O   UNL     1      -2.221  11.750  21.192  0.00  0.00    +0.000 OA
ATOM     25  O   UNL     1      -1.113  11.646  23.412  0.00  0.00    +0.000 OA
BRANCH  23  26
ATOM     26  C   UNL     1      -2.062  13.946  22.598  0.00  0.00    +0.000 A 
ATOM     27  C   UNL     1      -2.656  14.756  21.628  0.00  0.00    +0.000 A 
ATOM     28  C   UNL     1      -3.380  15.903  21.990  0.00  0.00    +0.000 A 
ATOM     29  C   UNL     1      -3.567  16.227  23.330  0.00  0.00    +0.000 A 
ATOM     30  C   UNL     1      -3.012  15.406  24.311  0.00  0.00    +0.000 A 
ATOM     31  C   UNL     1      -2.258  14.273  23.958  0.00  0.00    +0.000 A 
ENDBRANCH  23  26
ENDBRANCH   3  23
TORSDOF 4
ENDMDL
MODEL 9
REMARK VINA RESULT:      -6.8      1.938      4.921
REMARK  Name = 
REMARK  4 active torsions:
REMARK  status: ('A' for Active; 'I' for Inactive)
REMARK    1  A    between atoms: C_2  and  C_3
REMARK    2  A    between atoms: N_8  and  S_23
REMARK    3  A    between atoms: N_14  and  C_15
REMARK    4  A    between atoms: S_23  and  C_26
REMARK                            x       y       z     vdW  Elec       q    Type
REMARK                         _______ _______ _______ _____ _____    ______ ____
ROOT
ATOM      1  O   UNL     1      -2.933  15.812  21.763  0.00  0.00    +0.000 OA
ATOM      2  C   UNL     1      -2.690  14.687  22.188  0.00  0.00    +0.000 C 
ATOM      3  N   UNL     1      -1.388  14.123  21.973  0.00  0.00    +0.000 N 
ATOM      4  C   UNL     1      -1.382  12.725  21.702  0.00  0.00    +0.000 C 
ATOM      5  O   UNL     1      -2.431  12.114  21.488  0.00  0.00    +0.000 OA
ATOM      6  N   UNL     1      -0.209  11.976  21.693  0.00  0.00    +0.000 N 
ATOM      7  C   UNL     1      -0.302  10.546  22.063  0.00  0.00    +0.000 C 
ATOM      8  C   UNL     1      -0.439   9.603  20.844  0.00  0.00    +0.000 C 
ATOM      9  N   UNL     1       0.674   9.876  19.925  0.00  0.00    +0.000 N 
ATOM     10  C   UNL     1       0.764  11.270  19.473  0.00  0.00    +0.000 C 
ATOM     11  C   UNL     1       0.829  12.229  20.683  0.00  0.00    +0.000 C 
ENDROOT
BRANCH   9  12
ATOM     12  C   UNL     1       1.463   8.884  19.382  0.00  0.00    +0.000 A 
ATOM     13  C   UNL     1       1.810   7.725  20.093  0.00  0.00    +0.000 A 
ATOM     14  C   UNL     1       2.631   6.734  19.537  0.00  0.00    +0.000 A 
ATOM     15  C   UNL     1       3.136   6.886  18.251  0.00  0.00    +0.000 A 
ATOM     16  C   UNL     1       2.817   8.026  17.524  0.00  0.00    +0.000 A 
ATOM     17  C   UNL     1       1.990   9.006  18.086  0.00  0.00    +0.000 A 
ENDBRANCH   9  12
BRANCH   2  18
ATOM     18  C   UNL     1      -3.761  13.990  22.912  0.00  0.00    +0.000 A 
ATOM     19  C   UNL     1      -5.044  13.806  22.420  0.00  0.00    +0.000 A 
ATOM     20  C   UNL     1      -5.868  13.026  23.281  0.00  0.00    +0.000 A 
ATOM     21  C   UNL     1      -5.209  12.700  24.440  0.00  0.00    +0.000 A 
ATOM     22  S   UNL     1      -3.663  13.444  24.532  0.00  0.00    +0.000 S 
ENDBRANCH   2  18
BRANCH   3  23
ATOM     23  S   UNL     1      -0.088  15.184  22.198  0.00  0.00    +0.000 S 
ATOM     24  O   UNL     1      -0.454  16.150  23.219  0.00  0.00    +0.000 OA
ATOM     25  O   UNL     1       1.137  14.433  22.387  0.00  0.00    +0.000 OA
BRANCH  23  26
ATOM     26  C   UNL     1       0.144  16.147  20.676  0.00  0.00    +0.000 A 
ATOM     27  C   UNL     1       0.999  17.251  20.643  0.00  0.00    +0.000 A 
ATOM     28  C   UNL     1       1.312  17.885  19.431  0.00  0.00    +0.000 A 
ATOM     29  C   UNL     1       0.819  17.393  18.227  0.00  0.00    +0.000 A 
ATOM     30  C   UNL     1      -0.005  16.267  18.240  0.00  0.00    +0.000 A 
ATOM     31  C   UNL     1      -0.350  15.644  19.452  0.00  0.00    +0.000 A 
ENDBRANCH  23  26
ENDBRANCH   3  23
TORSDOF 4
ENDMDL
