MODEL 1
REMARK VINA RESULT:      -6.9      0.000      0.000
REMARK  Name = 
REMARK  1 active torsions:
REMARK  status: ('A' for Active; 'I' for Inactive)
REMARK    1  A    between atoms: C_8  and  C_9
REMARK                            x       y       z     vdW  Elec       q    Type
REMARK                         _______ _______ _______ _____ _____    ______ ____
ROOT
ATOM      1  N   UNL     1       6.670   4.328  13.494  0.00  0.00    +0.000 NA
ATOM      2  C   UNL     1       7.401   5.151  14.160  0.00  0.00    +0.000 C 
ATOM      3  N   UNL     1       8.532   5.748  13.545  0.00  0.00    +0.000 N 
ATOM      4  N   UNL     1       7.064   5.499  15.504  0.00  0.00    +0.000 N 
ATOM      5  C   UNL     1       6.052   4.838  16.253  0.00  0.00    +0.000 A 
ATOM      6  N   UNL     1       5.449   3.693  15.865  0.00  0.00    +0.000 NA
ATOM      7  N   UNL     1       4.568   3.239  16.751  0.00  0.00    +0.000 NA
ATOM      8  C   UNL     1       4.451   4.023  17.849  0.00  0.00    +0.000 A 
ATOM      9  S   UNL     1       5.494   5.351  17.755  0.00  0.00    +0.000 S 
ATOM     10  H   UNL     1       6.881   4.081  12.517  0.00  0.00    +0.000 HD
ATOM     11  H   UNL     1       8.784   5.518  12.573  0.00  0.00    +0.000 HD
ATOM     12  H   UNL     1       9.138   6.388  14.078  0.00  0.00    +0.000 HD
ATOM     13  H   UNL     1       7.579   6.265  15.958  0.00  0.00    +0.000 HD
ENDROOT
BRANCH   8  14
ATOM     14  C   UNL     1       3.529   3.716  18.966  0.00  0.00    +0.000 A 
ATOM     15  C   UNL     1       2.264   4.326  19.025  0.00  0.00    +0.000 A 
ATOM     16  C   UNL     1       1.384   4.040  20.072  0.00  0.00    +0.000 A 
ATOM     17  C   UNL     1       1.763   3.152  21.081  0.00  0.00    +0.000 A 
ATOM     18  F   UNL     1       0.910   2.878  22.099  0.00  0.00    +0.000 F 
ATOM     19  C   UNL     1       3.021   2.548  21.041  0.00  0.00    +0.000 A 
ATOM     20  C   UNL     1       3.900   2.824  19.989  0.00  0.00    +0.000 A 
ENDBRANCH   8  14
TORSDOF 1
ENDMDL
MODEL 2
REMARK VINA RESULT:      -6.9      0.354      1.254
REMARK  Name = 
REMARK  1 active torsions:
REMARK  status: ('A' for Active; 'I' for Inactive)
REMARK    1  A    between atoms: C_8  and  C_9
REMARK                            x       y       z     vdW  Elec       q    Type
REMARK                         _______ _______ _______ _____ _____    ______ ____
ROOT
ATOM      1  N   UNL     1       6.330   4.497  13.665  0.00  0.00    +0.000 NA
ATOM      2  C   UNL     1       7.184   5.131  14.387  0.00  0.00    +0.000 C 
ATOM      3  N   UNL     1       8.362   5.654  13.793  0.00  0.00    +0.000 N 
ATOM      4  N   UNL     1       6.943   5.344  15.778  0.00  0.00    +0.000 N 
ATOM      5  C   UNL     1       5.880   4.726  16.492  0.00  0.00    +0.000 A 
ATOM      6  N   UNL     1       5.120   3.724  15.999  0.00  0.00    +0.000 NA
ATOM      7  N   UNL     1       4.218   3.275  16.868  0.00  0.00    +0.000 NA
ATOM      8  C   UNL     1       4.243   3.922  18.057  0.00  0.00    +0.000 A 
ATOM      9  S   UNL     1       5.447   5.110  18.072  0.00  0.00    +0.000 S 
ATOM     10  H   UNL     1       6.472   4.352  12.655  0.00  0.00    +0.000 HD
ATOM     11  H   UNL     1       8.548   5.520  12.788  0.00  0.00    +0.000 HD
ATOM     12  H   UNL     1       9.064   6.140  14.368  0.00  0.00    +0.000 HD
ATOM     13  H   UNL     1       7.570   5.976  16.296  0.00  0.00    +0.000 HD
ENDROOT
BRANCH   8  14
ATOM     14  C   UNL     1       3.328   3.594  19.174  0.00  0.00    +0.000 A 
ATOM     15  C   UNL     1       3.787   2.832  20.262  0.00  0.00    +0.000 A 
ATOM     16  C   UNL     1       2.934   2.522  21.324  0.00  0.00    +0.000 A 
ATOM     17  C   UNL     1       1.607   2.957  21.306  0.00  0.00    +0.000 A 
ATOM     18  F   UNL     1       0.778   2.652  22.334  0.00  0.00    +0.000 F 
ATOM     19  C   UNL     1       1.134   3.704  20.225  0.00  0.00    +0.000 A 
ATOM     20  C   UNL     1       1.988   4.026  19.165  0.00  0.00    +0.000 A 
ENDBRANCH   8  14
TORSDOF 1
ENDMDL
MODEL 3
REMARK VINA RESULT:      -6.7      1.252      1.458
REMARK  Name = 
REMARK  1 active torsions:
REMARK  status: ('A' for Active; 'I' for Inactive)
REMARK    1  A    between atoms: C_8  and  C_9
REMARK                            x       y       z     vdW  Elec       q    Type
REMARK                         _______ _______ _______ _____ _____    ______ ____
ROOT
ATOM      1  N   UNL     1       7.600   5.843  15.527  0.00  0.00    +0.000 NA
ATOM      2  C   UNL     1       6.991   5.138  14.641  0.00  0.00    +0.000 C 
ATOM      3  N   UNL     1       7.420   5.178  13.288  0.00  0.00    +0.000 N 
ATOM      4  N   UNL     1       5.906   4.286  15.011  0.00  0.00    +0.000 N 
ATOM      5  C   UNL     1       5.305   4.298  16.299  0.00  0.00    +0.000 A 
ATOM      6  N   UNL     1       5.544   5.242  17.236  0.00  0.00    +0.000 NA
ATOM      7  N   UNL     1       4.831   5.070  18.345  0.00  0.00    +0.000 NA
ATOM      8  C   UNL     1       4.026   3.982  18.309  0.00  0.00    +0.000 A 
ATOM      9  S   UNL     1       4.169   3.175  16.829  0.00  0.00    +0.000 S 
ATOM     10  H   UNL     1       8.400   6.446  15.287  0.00  0.00    +0.000 HD
ATOM     11  H   UNL     1       8.208   5.777  13.005  0.00  0.00    +0.000 HD
ATOM     12  H   UNL     1       6.921   4.637  12.567  0.00  0.00    +0.000 HD
ATOM     13  H   UNL     1       5.535   3.628  14.310  0.00  0.00    +0.000 HD
ENDROOT
BRANCH   8  14
ATOM     14  C   UNL     1       3.144   3.591  19.432  0.00  0.00    +0.000 A 
ATOM     15  C   UNL     1       1.848   4.126  19.531  0.00  0.00    +0.000 A 
ATOM     16  C   UNL     1       1.005   3.759  20.584  0.00  0.00    +0.000 A 
ATOM     17  C   UNL     1       1.452   2.865  21.559  0.00  0.00    +0.000 A 
ATOM     18  F   UNL     1       0.636   2.513  22.583  0.00  0.00    +0.000 F 
ATOM     19  C   UNL     1       2.742   2.335  21.479  0.00  0.00    +0.000 A 
ATOM     20  C   UNL     1       3.584   2.691  20.421  0.00  0.00    +0.000 A 
ENDBRANCH   8  14
TORSDOF 1
ENDMDL
MODEL 4
REMARK VINA RESULT:      -6.7      1.261      1.906
REMARK  Name = 
REMARK  1 active torsions:
REMARK  status: ('A' for Active; 'I' for Inactive)
REMARK    1  A    between atoms: C_8  and  C_9
REMARK                            x       y       z     vdW  Elec       q    Type
REMARK                         _______ _______ _______ _____ _____    ______ ____
ROOT
ATOM      1  N   UNL     1       7.617   5.631  15.531  0.00  0.00    +0.000 NA
ATOM      2  C   UNL     1       6.904   5.076  14.615  0.00  0.00    +0.000 C 
ATOM      3  N   UNL     1       7.292   5.187  13.254  0.00  0.00    +0.000 N 
ATOM      4  N   UNL     1       5.743   4.319  14.958  0.00  0.00    +0.000 N 
ATOM      5  C   UNL     1       5.189   4.285  16.267  0.00  0.00    +0.000 A 
ATOM      6  N   UNL     1       5.562   5.112  17.268  0.00  0.00    +0.000 NA
ATOM      7  N   UNL     1       4.870   4.923  18.388  0.00  0.00    +0.000 NA
ATOM      8  C   UNL     1       3.948   3.936  18.295  0.00  0.00    +0.000 A 
ATOM      9  S   UNL     1       3.952   3.250  16.748  0.00  0.00    +0.000 S 
ATOM     10  H   UNL     1       8.471   6.162  15.308  0.00  0.00    +0.000 HD
ATOM     11  H   UNL     1       8.133   5.719  12.989  0.00  0.00    +0.000 HD
ATOM     12  H   UNL     1       6.713   4.768  12.512  0.00  0.00    +0.000 HD
ATOM     13  H   UNL     1       5.279   3.768  14.222  0.00  0.00    +0.000 HD
ENDROOT
BRANCH   8  14
ATOM     14  C   UNL     1       3.064   3.548  19.417  0.00  0.00    +0.000 A 
ATOM     15  C   UNL     1       3.550   2.719  20.444  0.00  0.00    +0.000 A 
ATOM     16  C   UNL     1       2.725   2.350  21.511  0.00  0.00    +0.000 A 
ATOM     17  C   UNL     1       1.402   2.794  21.558  0.00  0.00    +0.000 A 
ATOM     18  F   UNL     1       0.602   2.433  22.591  0.00  0.00    +0.000 F 
ATOM     19  C   UNL     1       0.904   3.609  20.539  0.00  0.00    +0.000 A 
ATOM     20  C   UNL     1       1.729   3.988  19.476  0.00  0.00    +0.000 A 
ENDBRANCH   8  14
TORSDOF 1
ENDMDL
MODEL 5
REMARK VINA RESULT:      -6.5      4.045      7.153
REMARK  Name = 
REMARK  1 active torsions:
REMARK  status: ('A' for Active; 'I' for Inactive)
REMARK    1  A    between atoms: C_8  and  C_9
REMARK                            x       y       z     vdW  Elec       q    Type
REMARK                         _______ _______ _______ _____ _____    ______ ____
ROOT
ATOM      1  N   UNL     1       2.381   4.581  21.526  0.00  0.00    +0.000 NA
ATOM      2  C   UNL     1       2.195   3.326  21.316  0.00  0.00    +0.000 C 
ATOM      3  N   UNL     1       1.502   2.544  22.276  0.00  0.00    +0.000 N 
ATOM      4  N   UNL     1       2.649   2.718  20.106  0.00  0.00    +0.000 N 
ATOM      5  C   UNL     1       3.486   3.377  19.164  0.00  0.00    +0.000 A 
ATOM      6  N   UNL     1       4.108   4.552  19.398  0.00  0.00    +0.000 NA
ATOM      7  N   UNL     1       4.875   4.949  18.387  0.00  0.00    +0.000 NA
ATOM      8  C   UNL     1       4.863   4.100  17.333  0.00  0.00    +0.000 A 
ATOM      9  S   UNL     1       3.870   2.766  17.644  0.00  0.00    +0.000 S 
ATOM     10  H   UNL     1       2.041   5.046  22.381  0.00  0.00    +0.000 HD
ATOM     11  H   UNL     1       1.157   2.968  23.149  0.00  0.00    +0.000 HD
ATOM     12  H   UNL     1       1.371   1.533  22.128  0.00  0.00    +0.000 HD
ATOM     13  H   UNL     1       2.359   1.751  19.902  0.00  0.00    +0.000 HD
ENDROOT
BRANCH   8  14
ATOM     14  C   UNL     1       5.639   4.338  16.094  0.00  0.00    +0.000 A 
ATOM     15  C   UNL     1       5.193   3.811  14.870  0.00  0.00    +0.000 A 
ATOM     16  C   UNL     1       5.915   4.034  13.694  0.00  0.00    +0.000 A 
ATOM     17  C   UNL     1       7.098   4.774  13.730  0.00  0.00    +0.000 A 
ATOM     18  F   UNL     1       7.800   4.986  12.590  0.00  0.00    +0.000 F 
ATOM     19  C   UNL     1       7.559   5.293  14.941  0.00  0.00    +0.000 A 
ATOM     20  C   UNL     1       6.833   5.081  16.118  0.00  0.00    +0.000 A 
ENDBRANCH   8  14
TORSDOF 1
ENDMDL
MODEL 6
REMARK VINA RESULT:      -6.5      4.025      7.101
REMARK  Name = 
REMARK  1 active torsions:
REMARK  status: ('A' for Active; 'I' for Inactive)
REMARK    1  A    between atoms: C_8  and  C_9
REMARK                            x       y       z     vdW  Elec       q    Type
REMARK                         _______ _______ _______ _____ _____    ______ ____
ROOT
ATOM      1  N   UNL     1       0.434   3.201  20.247  0.00  0.00    +0.000 NA
ATOM      2  C   UNL     1       1.350   2.910  21.102  0.00  0.00    +0.000 C 
ATOM      3  N   UNL     1       0.989   2.551  22.428  0.00  0.00    +0.000 N 
ATOM      4  N   UNL     1       2.726   2.911  20.722  0.00  0.00    +0.000 N 
ATOM      5  C   UNL     1       3.193   3.408  19.474  0.00  0.00    +0.000 A 
ATOM      6  N   UNL     1       2.433   4.114  18.609  0.00  0.00    +0.000 NA
ATOM      7  N   UNL     1       3.101   4.512  17.530  0.00  0.00    +0.000 NA
ATOM      8  C   UNL     1       4.396   4.117  17.518  0.00  0.00    +0.000 A 
ATOM      9  S   UNL     1       4.771   3.238  18.915  0.00  0.00    +0.000 S 
ATOM     10  H   UNL     1      -0.566   3.184  20.493  0.00  0.00    +0.000 HD
ATOM     11  H   UNL     1       0.001   2.534  22.717  0.00  0.00    +0.000 HD
ATOM     12  H   UNL     1       1.716   2.342  23.126  0.00  0.00    +0.000 HD
ATOM     13  H   UNL     1       3.420   2.535  21.383  0.00  0.00    +0.000 HD
ENDROOT
BRANCH   8  14
ATOM     14  C   UNL     1       5.330   4.441  16.417  0.00  0.00    +0.000 A 
ATOM     15  C   UNL     1       5.207   3.796  15.173  0.00  0.00    +0.000 A 
ATOM     16  C   UNL     1       6.080   4.099  14.125  0.00  0.00    +0.000 A 
ATOM     17  C   UNL     1       7.096   5.040  14.310  0.00  0.00    +0.000 A 
ATOM     18  F   UNL     1       7.945   5.330  13.294  0.00  0.00    +0.000 F 
ATOM     19  C   UNL     1       7.237   5.679  15.544  0.00  0.00    +0.000 A 
ATOM     20  C   UNL     1       6.358   5.387  16.591  0.00  0.00    +0.000 A 
ENDBRANCH   8  14
TORSDOF 1
ENDMDL
MODEL 7
REMARK VINA RESULT:      -6.4      4.048      7.189
REMARK  Name = 
REMARK  1 active torsions:
REMARK  status: ('A' for Active; 'I' for Inactive)
REMARK    1  A    between atoms: C_8  and  C_9
REMARK                            x       y       z     vdW  Elec       q    Type
REMARK                         _______ _______ _______ _____ _____    ______ ____
ROOT
ATOM      1  N   UNL     1       2.275   4.586  21.507  0.00  0.00    +0.000 NA
ATOM      2  C   UNL     1       2.079   3.333  21.293  0.00  0.00    +0.000 C 
ATOM      3  N   UNL     1       1.373   2.555  22.248  0.00  0.00    +0.000 N 
ATOM      4  N   UNL     1       2.534   2.723  20.085  0.00  0.00    +0.000 N 
ATOM      5  C   UNL     1       3.383   3.377  19.150  0.00  0.00    +0.000 A 
ATOM      6  N   UNL     1       4.014   4.546  19.390  0.00  0.00    +0.000 NA
ATOM      7  N   UNL     1       4.791   4.938  18.384  0.00  0.00    +0.000 NA
ATOM      8  C   UNL     1       4.777   4.092  17.328  0.00  0.00    +0.000 A 
ATOM      9  S   UNL     1       3.770   2.766  17.630  0.00  0.00    +0.000 S 
ATOM     10  H   UNL     1       1.934   5.052  22.360  0.00  0.00    +0.000 HD
ATOM     11  H   UNL     1       1.026   2.981  23.119  0.00  0.00    +0.000 HD
ATOM     12  H   UNL     1       1.234   1.546  22.097  0.00  0.00    +0.000 HD
ATOM     13  H   UNL     1       2.237   1.759  19.877  0.00  0.00    +0.000 HD
ENDROOT
BRANCH   8  14
ATOM     14  C   UNL     1       5.562   4.325  16.095  0.00  0.00    +0.000 A 
ATOM     15  C   UNL     1       6.764   5.053  16.149  0.00  0.00    +0.000 A 
ATOM     16  C   UNL     1       7.515   5.274  14.992  0.00  0.00    +0.000 A 
ATOM     17  C   UNL     1       7.069   4.783  13.764  0.00  0.00    +0.000 A 
ATOM     18  F   UNL     1       7.796   5.002  12.641  0.00  0.00    +0.000 F 
ATOM     19  C   UNL     1       5.871   4.069  13.693  0.00  0.00    +0.000 A 
ATOM     20  C   UNL     1       5.122   3.836  14.850  0.00  0.00    +0.000 A 
ENDBRANCH   8  14
TORSDOF 1
ENDMDL
MODEL 8
REMARK VINA RESULT:      -6.4      5.180      7.208
REMARK  Name = 
REMARK  1 active torsions:
REMARK  status: ('A' for Active; 'I' for Inactive)
REMARK    1  A    between atoms: C_8  and  C_9
REMARK                            x       y       z     vdW  Elec       q    Type
REMARK                         _______ _______ _______ _____ _____    ______ ____
ROOT
ATOM      1  N   UNL     1       0.228   9.585  20.282  0.00  0.00    +0.000 NA
ATOM      2  C   UNL     1       0.582   8.900  21.312  0.00  0.00    +0.000 C 
ATOM      3  N   UNL     1       0.094   9.253  22.597  0.00  0.00    +0.000 N 
ATOM      4  N   UNL     1       1.435   7.763  21.170  0.00  0.00    +0.000 N 
ATOM      5  C   UNL     1       2.098   7.429  19.956  0.00  0.00    +0.000 A 
ATOM      6  N   UNL     1       2.165   8.244  18.882  0.00  0.00    +0.000 NA
ATOM      7  N   UNL     1       2.878   7.734  17.882  0.00  0.00    +0.000 NA
ATOM      8  C   UNL     1       3.375   6.503  18.144  0.00  0.00    +0.000 A 
ATOM      9  S   UNL     1       2.940   5.996  19.699  0.00  0.00    +0.000 S 
ATOM     10  H   UNL     1      -0.406  10.394  20.359  0.00  0.00    +0.000 HD
ATOM     11  H   UNL     1      -0.531  10.062  22.718  0.00  0.00    +0.000 HD
ATOM     12  H   UNL     1       0.393   8.726  23.430  0.00  0.00    +0.000 HD
ATOM     13  H   UNL     1       1.582   7.152  21.985  0.00  0.00    +0.000 HD
ENDROOT
BRANCH   8  14
ATOM     14  C   UNL     1       4.196   5.740  17.177  0.00  0.00    +0.000 A 
ATOM     15  C   UNL     1       4.941   6.416  16.195  0.00  0.00    +0.000 A 
ATOM     16  C   UNL     1       5.723   5.706  15.280  0.00  0.00    +0.000 A 
ATOM     17  C   UNL     1       5.760   4.310  15.327  0.00  0.00    +0.000 A 
ATOM     18  F   UNL     1       6.516   3.622  14.437  0.00  0.00    +0.000 F 
ATOM     19  C   UNL     1       5.016   3.625  16.290  0.00  0.00    +0.000 A 
ATOM     20  C   UNL     1       4.241   4.334  17.213  0.00  0.00    +0.000 A 
ENDBRANCH   8  14
TORSDOF 1
ENDMDL
MODEL 9
REMARK VINA RESULT:      -6.3      4.461      6.051
REMARK  Name = 
REMARK  1 active torsions:
REMARK  status: ('A' for Active; 'I' for Inactive)
REMARK    1  A    between atoms: C_8  and  C_9
REMARK                            x       y       z     vdW  Elec       q    Type
REMARK                         _______ _______ _______ _____ _____    ______ ____
ROOT
ATOM      1  N   UNL     1       4.861   2.148  19.997  0.00  0.00    +0.000 NA
ATOM      2  C   UNL     1       4.155   1.773  18.989  0.00  0.00    +0.000 C 
ATOM      3  N   UNL     1       4.286   0.452  18.487  0.00  0.00    +0.000 N 
ATOM      4  N   UNL     1       3.213   2.664  18.391  0.00  0.00    +0.000 N 
ATOM      5  C   UNL     1       3.126   4.045  18.717  0.00  0.00    +0.000 A 
ATOM      6  N   UNL     1       4.041   4.707  19.458  0.00  0.00    +0.000 NA
ATOM      7  N   UNL     1       3.769   6.002  19.590  0.00  0.00    +0.000 NA
ATOM      8  C   UNL     1       2.630   6.383  18.966  0.00  0.00    +0.000 A 
ATOM      9  S   UNL     1       1.902   5.071  18.184  0.00  0.00    +0.000 S 
ATOM     10  H   UNL     1       5.529   1.515  20.459  0.00  0.00    +0.000 HD
ATOM     11  H   UNL     1       4.952  -0.208  18.914  0.00  0.00    +0.000 HD
ATOM     12  H   UNL     1       3.744   0.151  17.665  0.00  0.00    +0.000 HD
ATOM     13  H   UNL     1       2.563   2.291  17.684  0.00  0.00    +0.000 HD
ENDROOT
BRANCH   8  14
ATOM     14  C   UNL     1       2.128   7.776  18.980  0.00  0.00    +0.000 A 
ATOM     15  C   UNL     1       1.465   8.276  20.114  0.00  0.00    +0.000 A 
ATOM     16  C   UNL     1       0.991   9.591  20.140  0.00  0.00    +0.000 A 
ATOM     17  C   UNL     1       1.162  10.418  19.028  0.00  0.00    +0.000 A 
ATOM     18  F   UNL     1       0.699  11.691  19.052  0.00  0.00    +0.000 F 
ATOM     19  C   UNL     1       1.809   9.930  17.890  0.00  0.00    +0.000 A 
ATOM     20  C   UNL     1       2.293   8.618  17.865  0.00  0.00    +0.000 A 
ENDBRANCH   8  14
TORSDOF 1
ENDMDL
