MODEL 1
REMARK VINA RESULT:      -6.9      0.000      0.000
REMARK  Name = 
REMARK  3 active torsions:
REMARK  status: ('A' for Active; 'I' for Inactive)
REMARK    1  A    between atoms: C_2  and  O_3
REMARK    2  A    between atoms: C_2  and  C_4
REMARK    3  A    between atoms: C_4  and  C_5
REMARK                            x       y       z     vdW  Elec       q    Type
REMARK                         _______ _______ _______ _____ _____    ______ ____
ROOT
ATOM      1  C   UNL     1       6.155   4.070  14.471  0.00  0.00    +0.000 A 
ATOM      2  C   UNL     1       5.437   3.010  15.046  0.00  0.00    +0.000 A 
ATOM      3  C   UNL     1       5.097   3.027  16.408  0.00  0.00    +0.000 A 
ATOM      4  C   UNL     1       5.403   4.141  17.197  0.00  0.00    +0.000 A 
ATOM      5  C   UNL     1       6.132   5.179  16.638  0.00  0.00    +0.000 A 
ATOM      6  C   UNL     1       6.549   5.132  15.297  0.00  0.00    +0.000 A 
ATOM      7  S   UNL     1       6.398   6.642  17.578  0.00  0.00    +0.000 S 
ATOM      8  O   UNL     1       6.937   6.283  18.872  0.00  0.00    +0.000 OA
ATOM      9  O   UNL     1       7.116   7.573  16.723  0.00  0.00    +0.000 OA
ATOM     10  C   UNL     1       4.746   7.257  17.733  0.00  0.00    +0.000 C 
ATOM     11  C   UNL     1       3.835   6.487  18.657  0.00  0.00    +0.000 A 
ATOM     12  C   UNL     1       2.727   7.234  19.125  0.00  0.00    +0.000 A 
ATOM     13  C   UNL     1       1.784   6.697  19.999  0.00  0.00    +0.000 A 
ATOM     14  C   UNL     1       1.930   5.394  20.443  0.00  0.00    +0.000 A 
ATOM     15  C   UNL     1       2.998   4.626  19.984  0.00  0.00    +0.000 A 
ATOM     16  C   UNL     1       3.939   5.145  19.070  0.00  0.00    +0.000 A 
ATOM     17  C   UNL     1       4.943   4.148  18.597  0.00  0.00    +0.000 C 
ATOM     18  O   UNL     1       5.293   3.218  19.316  0.00  0.00    +0.000 OA
ENDROOT
BRANCH   1  19
ATOM     19  C   UNL     1       6.479   4.082  12.987  0.00  0.00    +0.000 C 
BRANCH  19  21
ATOM     20  O   UNL     1       4.490   3.423  11.735  0.00  0.00    +0.000 OA
ATOM     21  C   UNL     1       5.623   3.171  12.129  0.00  0.00    +0.000 C 
BRANCH  21  22
ATOM     22  O   UNL     1       6.230   2.000  11.821  0.00  0.00    +0.000 OA
ATOM     23  H   UNL     1       6.563   1.910  10.906  0.00  0.00    +0.000 HD
ENDBRANCH  21  22
ENDBRANCH  19  21
ENDBRANCH   1  19
TORSDOF 3
ENDMDL
MODEL 2
REMARK VINA RESULT:      -6.7      8.358     11.104
REMARK  Name = 
REMARK  3 active torsions:
REMARK  status: ('A' for Active; 'I' for Inactive)
REMARK    1  A    between atoms: C_2  and  O_3
REMARK    2  A    between atoms: C_2  and  C_4
REMARK    3  A    between atoms: C_4  and  C_5
REMARK                            x       y       z     vdW  Elec       q    Type
REMARK                         _______ _______ _______ _____ _____    ______ ____
ROOT
ATOM      1  C   UNL     1      -4.578  11.278  17.949  0.00  0.00    +0.000 A 
ATOM      2  C   UNL     1      -3.844  10.170  17.498  0.00  0.00    +0.000 A 
ATOM      3  C   UNL     1      -2.499  10.001  17.865  0.00  0.00    +0.000 A 
ATOM      4  C   UNL     1      -1.892  10.896  18.752  0.00  0.00    +0.000 A 
ATOM      5  C   UNL     1      -2.608  12.003  19.181  0.00  0.00    +0.000 A 
ATOM      6  C   UNL     1      -3.926  12.226  18.751  0.00  0.00    +0.000 A 
ATOM      7  S   UNL     1      -1.905  13.055  20.404  0.00  0.00    +0.000 S 
ATOM      8  O   UNL     1      -0.573  13.441  19.990  0.00  0.00    +0.000 OA
ATOM      9  O   UNL     1      -2.896  14.074  20.709  0.00  0.00    +0.000 OA
ATOM     10  C   UNL     1      -1.841  11.968  21.798  0.00  0.00    +0.000 C 
ATOM     11  C   UNL     1      -0.806  10.872  21.737  0.00  0.00    +0.000 A 
ATOM     12  C   UNL     1      -0.455  10.343  23.003  0.00  0.00    +0.000 A 
ATOM     13  C   UNL     1       0.495   9.334  23.149  0.00  0.00    +0.000 A 
ATOM     14  C   UNL     1       1.134   8.830  22.029  0.00  0.00    +0.000 A 
ATOM     15  C   UNL     1       0.795   9.315  20.768  0.00  0.00    +0.000 A 
ATOM     16  C   UNL     1      -0.191  10.310  20.602  0.00  0.00    +0.000 A 
ATOM     17  C   UNL     1      -0.509  10.621  19.178  0.00  0.00    +0.000 C 
ATOM     18  O   UNL     1       0.343  10.506  18.303  0.00  0.00    +0.000 OA
ENDROOT
BRANCH   1  19
ATOM     19  C   UNL     1      -6.047  11.440  17.598  0.00  0.00    +0.000 C 
BRANCH  19  21
ATOM     20  O   UNL     1      -7.561  11.953  19.444  0.00  0.00    +0.000 OA
ATOM     21  C   UNL     1      -7.019  11.126  18.720  0.00  0.00    +0.000 C 
BRANCH  21  22
ATOM     22  O   UNL     1      -7.249   9.800  18.872  0.00  0.00    +0.000 OA
ATOM     23  H   UNL     1      -7.421   9.291  18.054  0.00  0.00    +0.000 HD
ENDBRANCH  21  22
ENDBRANCH  19  21
ENDBRANCH   1  19
TORSDOF 3
ENDMDL
MODEL 3
REMARK VINA RESULT:      -6.5      9.821     13.414
REMARK  Name = 
REMARK  3 active torsions:
REMARK  status: ('A' for Active; 'I' for Inactive)
REMARK    1  A    between atoms: C_2  and  O_3
REMARK    2  A    between atoms: C_2  and  C_4
REMARK    3  A    between atoms: C_4  and  C_5
REMARK                            x       y       z     vdW  Elec       q    Type
REMARK                         _______ _______ _______ _____ _____    ______ ____
ROOT
ATOM      1  C   UNL     1      -6.112  12.678  21.485  0.00  0.00    +0.000 A 
ATOM      2  C   UNL     1      -5.751  12.299  20.183  0.00  0.00    +0.000 A 
ATOM      3  C   UNL     1      -4.406  12.297  19.782  0.00  0.00    +0.000 A 
ATOM      4  C   UNL     1      -3.395  12.599  20.702  0.00  0.00    +0.000 A 
ATOM      5  C   UNL     1      -3.750  12.996  21.981  0.00  0.00    +0.000 A 
ATOM      6  C   UNL     1      -5.099  13.082  22.366  0.00  0.00    +0.000 A 
ATOM      7  S   UNL     1      -2.489  13.239  23.184  0.00  0.00    +0.000 S 
ATOM      8  O   UNL     1      -1.480  14.123  22.640  0.00  0.00    +0.000 OA
ATOM      9  O   UNL     1      -3.151  13.572  24.434  0.00  0.00    +0.000 OA
ATOM     10  C   UNL     1      -1.858  11.596  23.358  0.00  0.00    +0.000 C 
ATOM     11  C   UNL     1      -1.048  11.069  22.199  0.00  0.00    +0.000 A 
ATOM     12  C   UNL     1      -0.186   9.999  22.541  0.00  0.00    +0.000 A 
ATOM     13  C   UNL     1       0.651   9.392  21.606  0.00  0.00    +0.000 A 
ATOM     14  C   UNL     1       0.659   9.847  20.299  0.00  0.00    +0.000 A 
ATOM     15  C   UNL     1      -0.194  10.885  19.927  0.00  0.00    +0.000 A 
ATOM     16  C   UNL     1      -1.073  11.483  20.854  0.00  0.00    +0.000 A 
ATOM     17  C   UNL     1      -1.995  12.492  20.255  0.00  0.00    +0.000 C 
ATOM     18  O   UNL     1      -1.659  13.149  19.276  0.00  0.00    +0.000 OA
ENDROOT
BRANCH   1  19
ATOM     19  C   UNL     1      -7.561  12.633  21.941  0.00  0.00    +0.000 C 
BRANCH  19  21
ATOM     20  O   UNL     1      -7.916  13.126  24.305  0.00  0.00    +0.000 OA
ATOM     21  C   UNL     1      -7.768  12.305  23.407  0.00  0.00    +0.000 C 
BRANCH  21  22
ATOM     22  O   UNL     1      -7.772  10.975  23.662  0.00  0.00    +0.000 OA
ATOM     23  H   UNL     1      -7.184  10.424  23.108  0.00  0.00    +0.000 HD
ENDBRANCH  21  22
ENDBRANCH  19  21
ENDBRANCH   1  19
TORSDOF 3
ENDMDL
MODEL 4
REMARK VINA RESULT:      -6.4      2.889      5.239
REMARK  Name = 
REMARK  3 active torsions:
REMARK  status: ('A' for Active; 'I' for Inactive)
REMARK    1  A    between atoms: C_2  and  O_3
REMARK    2  A    between atoms: C_2  and  C_4
REMARK    3  A    between atoms: C_4  and  C_5
REMARK                            x       y       z     vdW  Elec       q    Type
REMARK                         _______ _______ _______ _____ _____    ______ ____
ROOT
ATOM      1  C   UNL     1       3.332   3.955  18.110  0.00  0.00    +0.000 A 
ATOM      2  C   UNL     1       3.877   4.114  19.394  0.00  0.00    +0.000 A 
ATOM      3  C   UNL     1       5.203   4.542  19.564  0.00  0.00    +0.000 A 
ATOM      4  C   UNL     1       5.979   4.893  18.453  0.00  0.00    +0.000 A 
ATOM      5  C   UNL     1       5.451   4.714  17.184  0.00  0.00    +0.000 A 
ATOM      6  C   UNL     1       4.154   4.206  17.003  0.00  0.00    +0.000 A 
ATOM      7  S   UNL     1       6.361   5.284  15.790  0.00  0.00    +0.000 S 
ATOM      8  O   UNL     1       7.709   4.759  15.858  0.00  0.00    +0.000 OA
ATOM      9  O   UNL     1       5.542   5.035  14.615  0.00  0.00    +0.000 OA
ATOM     10  C   UNL     1       6.352   7.031  16.063  0.00  0.00    +0.000 C 
ATOM     11  C   UNL     1       7.219   7.531  17.192  0.00  0.00    +0.000 A 
ATOM     12  C   UNL     1       7.564   8.901  17.088  0.00  0.00    +0.000 A 
ATOM     13  C   UNL     1       8.370   9.538  18.030  0.00  0.00    +0.000 A 
ATOM     14  C   UNL     1       8.868   8.817  19.102  0.00  0.00    +0.000 A 
ATOM     15  C   UNL     1       8.529   7.473  19.243  0.00  0.00    +0.000 A 
ATOM     16  C   UNL     1       7.684   6.825  18.318  0.00  0.00    +0.000 A 
ATOM     17  C   UNL     1       7.332   5.424  18.691  0.00  0.00    +0.000 C 
ATOM     18  O   UNL     1       8.109   4.732  19.341  0.00  0.00    +0.000 OA
ENDROOT
BRANCH   1  19
ATOM     19  C   UNL     1       1.882   3.543  17.921  0.00  0.00    +0.000 C 
BRANCH  19  21
ATOM     20  O   UNL     1       0.607   2.917  19.906  0.00  0.00    +0.000 OA
ATOM     21  C   UNL     1       1.334   2.597  18.973  0.00  0.00    +0.000 C 
BRANCH  21  22
ATOM     22  O   UNL     1       1.732   1.314  18.798  0.00  0.00    +0.000 OA
ATOM     23  H   UNL     1       1.650   0.953  17.893  0.00  0.00    +0.000 HD
ENDBRANCH  21  22
ENDBRANCH  19  21
ENDBRANCH   1  19
TORSDOF 3
ENDMDL
MODEL 5
REMARK VINA RESULT:      -6.3      2.458      6.807
REMARK  Name = 
REMARK  3 active torsions:
REMARK  status: ('A' for Active; 'I' for Inactive)
REMARK    1  A    between atoms: C_2  and  O_3
REMARK    2  A    between atoms: C_2  and  C_4
REMARK    3  A    between atoms: C_4  and  C_5
REMARK                            x       y       z     vdW  Elec       q    Type
REMARK                         _______ _______ _______ _____ _____    ______ ____
ROOT
ATOM      1  C   UNL     1       2.384   6.769  19.562  0.00  0.00    +0.000 A 
ATOM      2  C   UNL     1       2.647   7.741  18.585  0.00  0.00    +0.000 A 
ATOM      3  C   UNL     1       3.791   7.658  17.777  0.00  0.00    +0.000 A 
ATOM      4  C   UNL     1       4.648   6.557  17.880  0.00  0.00    +0.000 A 
ATOM      5  C   UNL     1       4.404   5.606  18.858  0.00  0.00    +0.000 A 
ATOM      6  C   UNL     1       3.307   5.727  19.728  0.00  0.00    +0.000 A 
ATOM      7  S   UNL     1       5.390   4.150  18.903  0.00  0.00    +0.000 S 
ATOM      8  O   UNL     1       6.788   4.524  18.898  0.00  0.00    +0.000 OA
ATOM      9  O   UNL     1       4.865   3.313  19.969  0.00  0.00    +0.000 OA
ATOM     10  C   UNL     1       4.938   3.380  17.376  0.00  0.00    +0.000 C 
ATOM     11  C   UNL     1       5.459   4.038  16.122  0.00  0.00    +0.000 A 
ATOM     12  C   UNL     1       5.497   3.179  14.997  0.00  0.00    +0.000 A 
ATOM     13  C   UNL     1       5.963   3.603  13.753  0.00  0.00    +0.000 A 
ATOM     14  C   UNL     1       6.416   4.902  13.601  0.00  0.00    +0.000 A 
ATOM     15  C   UNL     1       6.371   5.778  14.684  0.00  0.00    +0.000 A 
ATOM     16  C   UNL     1       5.868   5.372  15.938  0.00  0.00    +0.000 A 
ATOM     17  C   UNL     1       5.784   6.471  16.945  0.00  0.00    +0.000 C 
ATOM     18  O   UNL     1       6.572   7.410  16.919  0.00  0.00    +0.000 OA
ENDROOT
BRANCH   1  19
ATOM     19  C   UNL     1       1.121   6.825  20.404  0.00  0.00    +0.000 C 
BRANCH  19  21
ATOM     20  O   UNL     1      -0.066   8.863  21.035  0.00  0.00    +0.000 OA
ATOM     21  C   UNL     1       0.903   8.123  21.158  0.00  0.00    +0.000 C 
BRANCH  21  22
ATOM     22  O   UNL     1       1.909   8.418  22.015  0.00  0.00    +0.000 OA
ATOM     23  H   UNL     1       1.813   8.087  22.931  0.00  0.00    +0.000 HD
ENDBRANCH  21  22
ENDBRANCH  19  21
ENDBRANCH   1  19
TORSDOF 3
ENDMDL
MODEL 6
REMARK VINA RESULT:      -6.3      8.492     11.229
REMARK  Name = 
REMARK  3 active torsions:
REMARK  status: ('A' for Active; 'I' for Inactive)
REMARK    1  A    between atoms: C_2  and  O_3
REMARK    2  A    between atoms: C_2  and  C_4
REMARK    3  A    between atoms: C_4  and  C_5
REMARK                            x       y       z     vdW  Elec       q    Type
REMARK                         _______ _______ _______ _____ _____    ______ ____
ROOT
ATOM      1  C   UNL     1      -4.579  11.293  17.928  0.00  0.00    +0.000 A 
ATOM      2  C   UNL     1      -3.823  10.198  17.485  0.00  0.00    +0.000 A 
ATOM      3  C   UNL     1      -2.485  10.042  17.878  0.00  0.00    +0.000 A 
ATOM      4  C   UNL     1      -1.906  10.939  18.783  0.00  0.00    +0.000 A 
ATOM      5  C   UNL     1      -2.643  12.035  19.204  0.00  0.00    +0.000 A 
ATOM      6  C   UNL     1      -3.956  12.244  18.748  0.00  0.00    +0.000 A 
ATOM      7  S   UNL     1      -1.979  13.088  20.447  0.00  0.00    +0.000 S 
ATOM      8  O   UNL     1      -0.643  13.492  20.061  0.00  0.00    +0.000 OA
ATOM      9  O   UNL     1      -2.987  14.093  20.738  0.00  0.00    +0.000 OA
ATOM     10  C   UNL     1      -1.929  11.993  21.835  0.00  0.00    +0.000 C 
ATOM     11  C   UNL     1      -0.879  10.909  21.789  0.00  0.00    +0.000 A 
ATOM     12  C   UNL     1      -0.547  10.377  23.058  0.00  0.00    +0.000 A 
ATOM     13  C   UNL     1       0.412   9.379  23.217  0.00  0.00    +0.000 A 
ATOM     14  C   UNL     1       1.079   8.890  22.107  0.00  0.00    +0.000 A 
ATOM     15  C   UNL     1       0.760   9.378  20.842  0.00  0.00    +0.000 A 
ATOM     16  C   UNL     1      -0.235  10.362  20.663  0.00  0.00    +0.000 A 
ATOM     17  C   UNL     1      -0.528  10.678  19.234  0.00  0.00    +0.000 C 
ATOM     18  O   UNL     1       0.342  10.579  18.376  0.00  0.00    +0.000 OA
ENDROOT
BRANCH   1  19
ATOM     19  C   UNL     1      -6.043  11.440  17.549  0.00  0.00    +0.000 C 
BRANCH  19  21
ATOM     20  O   UNL     1      -7.395  13.098  18.725  0.00  0.00    +0.000 OA
ATOM     21  C   UNL     1      -6.644  12.810  17.800  0.00  0.00    +0.000 C 
BRANCH  21  22
ATOM     22  O   UNL     1      -6.275  13.732  16.879  0.00  0.00    +0.000 OA
ATOM     23  H   UNL     1      -5.437  14.207  17.051  0.00  0.00    +0.000 HD
ENDBRANCH  21  22
ENDBRANCH  19  21
ENDBRANCH   1  19
TORSDOF 3
ENDMDL
MODEL 7
REMARK VINA RESULT:      -6.2      8.414     11.698
REMARK  Name = 
REMARK  3 active torsions:
REMARK  status: ('A' for Active; 'I' for Inactive)
REMARK    1  A    between atoms: C_2  and  O_3
REMARK    2  A    between atoms: C_2  and  C_4
REMARK    3  A    between atoms: C_4  and  C_5
REMARK                            x       y       z     vdW  Elec       q    Type
REMARK                         _______ _______ _______ _____ _____    ______ ____
ROOT
ATOM      1  C   UNL     1      -4.515  12.662  20.518  0.00  0.00    +0.000 A 
ATOM      2  C   UNL     1      -4.170  12.169  19.251  0.00  0.00    +0.000 A 
ATOM      3  C   UNL     1      -2.836  11.870  18.934  0.00  0.00    +0.000 A 
ATOM      4  C   UNL     1      -1.837  11.985  19.908  0.00  0.00    +0.000 A 
ATOM      5  C   UNL     1      -2.171  12.493  21.153  0.00  0.00    +0.000 A 
ATOM      6  C   UNL     1      -3.490  12.875  21.451  0.00  0.00    +0.000 A 
ATOM      7  S   UNL     1      -0.956  12.509  22.426  0.00  0.00    +0.000 S 
ATOM      8  O   UNL     1       0.246  13.141  21.926  0.00  0.00    +0.000 OA
ATOM      9  O   UNL     1      -1.601  13.018  23.625  0.00  0.00    +0.000 OA
ATOM     10  C   UNL     1      -0.698  10.777  22.677  0.00  0.00    +0.000 C 
ATOM     11  C   UNL     1       0.045  10.051  21.584  0.00  0.00    +0.000 A 
ATOM     12  C   UNL     1       0.641   8.837  22.003  0.00  0.00    +0.000 A 
ATOM     13  C   UNL     1       1.381   8.034  21.136  0.00  0.00    +0.000 A 
ATOM     14  C   UNL     1       1.558   8.431  19.822  0.00  0.00    +0.000 A 
ATOM     15  C   UNL     1       0.966   9.610  19.374  0.00  0.00    +0.000 A 
ATOM     16  C   UNL     1       0.184  10.413  20.230  0.00  0.00    +0.000 A 
ATOM     17  C   UNL     1      -0.469  11.570  19.552  0.00  0.00    +0.000 C 
ATOM     18  O   UNL     1       0.053  12.107  18.581  0.00  0.00    +0.000 OA
ENDROOT
BRANCH   1  19
ATOM     19  C   UNL     1      -5.963  12.937  20.884  0.00  0.00    +0.000 C 
BRANCH  19  21
ATOM     20  O   UNL     1      -7.634  11.996  19.374  0.00  0.00    +0.000 OA
ATOM     21  C   UNL     1      -6.963  11.906  20.395  0.00  0.00    +0.000 C 
BRANCH  21  22
ATOM     22  O   UNL     1      -7.066  10.832  21.214  0.00  0.00    +0.000 OA
ATOM     23  H   UNL     1      -7.379  10.001  20.804  0.00  0.00    +0.000 HD
ENDBRANCH  21  22
ENDBRANCH  19  21
ENDBRANCH   1  19
TORSDOF 3
ENDMDL
MODEL 8
REMARK VINA RESULT:      -6.2      7.017     10.389
REMARK  Name = 
REMARK  3 active torsions:
REMARK  status: ('A' for Active; 'I' for Inactive)
REMARK    1  A    between atoms: C_2  and  O_3
REMARK    2  A    between atoms: C_2  and  C_4
REMARK    3  A    between atoms: C_4  and  C_5
REMARK                            x       y       z     vdW  Elec       q    Type
REMARK                         _______ _______ _______ _____ _____    ______ ____
ROOT
ATOM      1  C   UNL     1      -2.977  11.981  19.368  0.00  0.00    +0.000 A 
ATOM      2  C   UNL     1      -2.552  11.566  18.097  0.00  0.00    +0.000 A 
ATOM      3  C   UNL     1      -1.240  11.115  17.888  0.00  0.00    +0.000 A 
ATOM      4  C   UNL     1      -0.356  10.996  18.966  0.00  0.00    +0.000 A 
ATOM      5  C   UNL     1      -0.765  11.427  20.219  0.00  0.00    +0.000 A 
ATOM      6  C   UNL     1      -2.049  11.960  20.419  0.00  0.00    +0.000 A 
ATOM      7  S   UNL     1       0.285  11.152  21.604  0.00  0.00    +0.000 S 
ATOM      8  O   UNL     1       1.609  11.654  21.302  0.00  0.00    +0.000 OA
ATOM      9  O   UNL     1      -0.424  11.631  22.778  0.00  0.00    +0.000 OA
ATOM     10  C   UNL     1       0.287   9.385  21.690  0.00  0.00    +0.000 C 
ATOM     11  C   UNL     1       1.053   8.668  20.606  0.00  0.00    +0.000 A 
ATOM     12  C   UNL     1       1.434   7.348  20.949  0.00  0.00    +0.000 A 
ATOM     13  C   UNL     1       2.161   6.535  20.081  0.00  0.00    +0.000 A 
ATOM     14  C   UNL     1       2.540   7.026  18.843  0.00  0.00    +0.000 A 
ATOM     15  C   UNL     1       2.161   8.313  18.468  0.00  0.00    +0.000 A 
ATOM     16  C   UNL     1       1.394   9.133  19.321  0.00  0.00    +0.000 A 
ATOM     17  C   UNL     1       0.980  10.429  18.710  0.00  0.00    +0.000 C 
ATOM     18  O   UNL     1       1.677  10.977  17.862  0.00  0.00    +0.000 OA
ENDROOT
BRANCH   1  19
ATOM     19  C   UNL     1      -4.410  12.421  19.611  0.00  0.00    +0.000 C 
BRANCH  19  21
ATOM     20  O   UNL     1      -5.171  12.193  21.919  0.00  0.00    +0.000 OA
ATOM     21  C   UNL     1      -4.714  12.891  21.021  0.00  0.00    +0.000 C 
BRANCH  21  22
ATOM     22  O   UNL     1      -4.434  14.201  21.220  0.00  0.00    +0.000 OA
ATOM     23  H   UNL     1      -5.041  14.691  21.810  0.00  0.00    +0.000 HD
ENDBRANCH  21  22
ENDBRANCH  19  21
ENDBRANCH   1  19
TORSDOF 3
ENDMDL
MODEL 9
REMARK VINA RESULT:      -6.2      8.087     10.378
REMARK  Name = 
REMARK  3 active torsions:
REMARK  status: ('A' for Active; 'I' for Inactive)
REMARK    1  A    between atoms: C_2  and  O_3
REMARK    2  A    between atoms: C_2  and  C_4
REMARK    3  A    between atoms: C_4  and  C_5
REMARK                            x       y       z     vdW  Elec       q    Type
REMARK                         _______ _______ _______ _____ _____    ______ ____
ROOT
ATOM      1  C   UNL     1       2.825  14.044  19.569  0.00  0.00    +0.000 A 
ATOM      2  C   UNL     1       2.998  13.334  18.371  0.00  0.00    +0.000 A 
ATOM      3  C   UNL     1       2.256  12.172  18.110  0.00  0.00    +0.000 A 
ATOM      4  C   UNL     1       1.273  11.746  19.010  0.00  0.00    +0.000 A 
ATOM      5  C   UNL     1       1.116  12.432  20.205  0.00  0.00    +0.000 A 
ATOM      6  C   UNL     1       1.914  13.547  20.511  0.00  0.00    +0.000 A 
ATOM      7  S   UNL     1      -0.208  11.993  21.277  0.00  0.00    +0.000 S 
ATOM      8  O   UNL     1      -0.174  10.565  21.512  0.00  0.00    +0.000 OA
ATOM      9  O   UNL     1      -0.172  12.916  22.399  0.00  0.00    +0.000 OA
ATOM     10  C   UNL     1      -1.609  12.435  20.292  0.00  0.00    +0.000 C 
ATOM     11  C   UNL     1      -1.896  11.546  19.108  0.00  0.00    +0.000 A 
ATOM     12  C   UNL     1      -3.232  11.620  18.644  0.00  0.00    +0.000 A 
ATOM     13  C   UNL     1      -3.688  10.860  17.568  0.00  0.00    +0.000 A 
ATOM     14  C   UNL     1      -2.820   9.991  16.930  0.00  0.00    +0.000 A 
ATOM     15  C   UNL     1      -1.494   9.911  17.349  0.00  0.00    +0.000 A 
ATOM     16  C   UNL     1      -1.009  10.701  18.413  0.00  0.00    +0.000 A 
ATOM     17  C   UNL     1       0.459  10.573  18.646  0.00  0.00    +0.000 C 
ATOM     18  O   UNL     1       1.048   9.528  18.393  0.00  0.00    +0.000 OA
ENDROOT
BRANCH   1  19
ATOM     19  C   UNL     1       3.587  15.331  19.834  0.00  0.00    +0.000 C 
BRANCH  19  21
ATOM     20  O   UNL     1       4.124  17.121  18.263  0.00  0.00    +0.000 OA
ATOM     21  C   UNL     1       3.287  16.470  18.877  0.00  0.00    +0.000 C 
BRANCH  21  22
ATOM     22  O   UNL     1       1.964  16.728  18.752  0.00  0.00    +0.000 OA
ATOM     23  H   UNL     1       1.611  17.465  19.292  0.00  0.00    +0.000 HD
ENDBRANCH  21  22
ENDBRANCH  19  21
ENDBRANCH   1  19
TORSDOF 3
ENDMDL
