MODEL 1
REMARK VINA RESULT:      -9.9      0.000      0.000
REMARK  Name = 
REMARK  5 active torsions:
REMARK  status: ('A' for Active; 'I' for Inactive)
REMARK    1  A    between atoms: C_1  and  C_2
REMARK    2  A    between atoms: C_5  and  N_6
REMARK    3  A    between atoms: C_7  and  C_9
REMARK    4  A    between atoms: C_16  and  N_17
REMARK    5  A    between atoms: N_17  and  C_18
REMARK                            x       y       z     vdW  Elec       q    Type
REMARK                         _______ _______ _______ _____ _____    ______ ____
ROOT
ATOM      1  C   UNL     1       1.224   4.061  20.782  0.00  0.00    +0.000 C 
ATOM      2  C   UNL     1       2.033   4.116  19.515  0.00  0.00    +0.000 A 
ATOM      3  C   UNL     1       2.018   2.988  18.685  0.00  0.00    +0.000 A 
ATOM      4  C   UNL     1       2.730   2.967  17.486  0.00  0.00    +0.000 A 
ATOM      5  C   UNL     1       3.457   4.078  17.068  0.00  0.00    +0.000 A 
ATOM      6  C   UNL     1       3.468   5.210  17.892  0.00  0.00    +0.000 A 
ATOM      7  C   UNL     1       2.821   5.225  19.148  0.00  0.00    +0.000 A 
ENDROOT
BRANCH   5   8
ATOM      8  N   UNL     1       4.213   4.113  15.870  0.00  0.00    +0.000 N 
ATOM      9  C   UNL     1       5.595   4.103  15.778  0.00  0.00    +0.000 C 
ATOM     10  O   UNL     1       6.379   4.019  16.718  0.00  0.00    +0.000 OA
ATOM     11  H   UNL     1       3.680   4.251  15.020  0.00  0.00    +0.000 HD
BRANCH   9  12
ATOM     12  C   UNL     1       6.188   4.243  14.418  0.00  0.00    +0.000 A 
ATOM     13  C   UNL     1       7.250   5.154  14.274  0.00  0.00    +0.000 A 
ATOM     14  C   UNL     1       7.893   5.309  13.048  0.00  0.00    +0.000 A 
ATOM     15  C   UNL     1       7.479   4.552  11.954  0.00  0.00    +0.000 A 
ATOM     16  C   UNL     1       6.423   3.648  12.086  0.00  0.00    +0.000 A 
ATOM     17  C   UNL     1       5.775   3.490  13.315  0.00  0.00    +0.000 A 
ENDBRANCH   9  12
ENDBRANCH   5   8
BRANCH   7  18
ATOM     18  N   UNL     1       2.914   6.372  19.982  0.00  0.00    +0.000 N 
ATOM     19  H   UNL     1       3.879   6.669  20.103  0.00  0.00    +0.000 HD
BRANCH  18  20
ATOM     20  C   UNL     1       2.083   7.524  19.967  0.00  0.00    +0.000 A 
ATOM     21  C   UNL     1       1.918   8.330  18.843  0.00  0.00    +0.000 A 
ATOM     22  C   UNL     1       1.136   9.497  18.884  0.00  0.00    +0.000 A 
ATOM     23  C   UNL     1       0.490   9.935  20.057  0.00  0.00    +0.000 A 
ATOM     24  C   UNL     1       0.671   9.086  21.235  0.00  0.00    +0.000 A 
ATOM     25  C   UNL     1       1.470   7.919  21.159  0.00  0.00    +0.000 A 
ATOM     26  C   UNL     1       0.037   9.340  22.646  0.00  0.00    +0.000 C 
ATOM     27  C   UNL     1      -0.614  10.610  22.349  0.00  0.00    +0.000 C 
ATOM     28  C   UNL     1      -1.374  11.850  22.374  0.00  0.00    +0.000 C 
ATOM     29  C   UNL     1      -1.080  12.288  20.893  0.00  0.00    +0.000 C 
ATOM     30  C   UNL     1      -0.339  11.313  19.822  0.00  0.00    +0.000 C 
ATOM     31  O   UNL     1      -0.385  11.716  18.648  0.00  0.00    +0.000 OA
ENDBRANCH  18  20
ENDBRANCH   7  18
TORSDOF 4
ENDMDL
MODEL 2
REMARK VINA RESULT:      -9.5      0.611      1.082
REMARK  Name = 
REMARK  5 active torsions:
REMARK  status: ('A' for Active; 'I' for Inactive)
REMARK    1  A    between atoms: C_1  and  C_2
REMARK    2  A    between atoms: C_5  and  N_6
REMARK    3  A    between atoms: C_7  and  C_9
REMARK    4  A    between atoms: C_16  and  N_17
REMARK    5  A    between atoms: N_17  and  C_18
REMARK                            x       y       z     vdW  Elec       q    Type
REMARK                         _______ _______ _______ _____ _____    ______ ____
ROOT
ATOM      1  C   UNL     1       1.112   3.697  20.782  0.00  0.00    +0.000 C 
ATOM      2  C   UNL     1       2.038   3.725  19.596  0.00  0.00    +0.000 A 
ATOM      3  C   UNL     1       2.067   2.597  18.766  0.00  0.00    +0.000 A 
ATOM      4  C   UNL     1       2.888   2.553  17.640  0.00  0.00    +0.000 A 
ATOM      5  C   UNL     1       3.683   3.642  17.293  0.00  0.00    +0.000 A 
ATOM      6  C   UNL     1       3.650   4.774  18.116  0.00  0.00    +0.000 A 
ATOM      7  C   UNL     1       2.890   4.810  19.306  0.00  0.00    +0.000 A 
ENDROOT
BRANCH   5   8
ATOM      8  N   UNL     1       4.549   3.652  16.171  0.00  0.00    +0.000 N 
ATOM      9  C   UNL     1       5.204   4.760  15.658  0.00  0.00    +0.000 C 
ATOM     10  O   UNL     1       5.169   5.896  16.120  0.00  0.00    +0.000 OA
ATOM     11  H   UNL     1       4.609   2.783  15.657  0.00  0.00    +0.000 HD
BRANCH   9  12
ATOM     12  C   UNL     1       5.994   4.566  14.410  0.00  0.00    +0.000 A 
ATOM     13  C   UNL     1       5.471   3.677  13.453  0.00  0.00    +0.000 A 
ATOM     14  C   UNL     1       6.122   3.476  12.238  0.00  0.00    +0.000 A 
ATOM     15  C   UNL     1       7.303   4.164  11.968  0.00  0.00    +0.000 A 
ATOM     16  C   UNL     1       7.831   5.046  12.913  0.00  0.00    +0.000 A 
ATOM     17  C   UNL     1       7.181   5.250  14.134  0.00  0.00    +0.000 A 
ENDBRANCH   9  12
ENDBRANCH   5   8
BRANCH   7  18
ATOM     18  N   UNL     1       2.938   5.955  20.146  0.00  0.00    +0.000 N 
ATOM     19  H   UNL     1       3.895   6.203  20.385  0.00  0.00    +0.000 HD
BRANCH  18  20
ATOM     20  C   UNL     1       2.175   7.148  20.030  0.00  0.00    +0.000 A 
ATOM     21  C   UNL     1       2.159   7.934  18.881  0.00  0.00    +0.000 A 
ATOM     22  C   UNL     1       1.440   9.140  18.826  0.00  0.00    +0.000 A 
ATOM     23  C   UNL     1       0.711   9.639  19.924  0.00  0.00    +0.000 A 
ATOM     24  C   UNL     1       0.736   8.810  21.129  0.00  0.00    +0.000 A 
ATOM     25  C   UNL     1       1.475   7.602  21.151  0.00  0.00    +0.000 A 
ATOM     26  C   UNL     1      -0.013   9.130  22.469  0.00  0.00    +0.000 C 
ATOM     27  C   UNL     1      -0.565  10.424  22.088  0.00  0.00    +0.000 C 
ATOM     28  C   UNL     1      -1.257  11.702  22.016  0.00  0.00    +0.000 C 
ATOM     29  C   UNL     1      -0.802  12.089  20.562  0.00  0.00    +0.000 C 
ATOM     30  C   UNL     1      -0.017  11.052  19.585  0.00  0.00    +0.000 C 
ATOM     31  O   UNL     1       0.069  11.429  18.405  0.00  0.00    +0.000 OA
ENDBRANCH  18  20
ENDBRANCH   7  18
TORSDOF 4
ENDMDL
MODEL 3
REMARK VINA RESULT:      -9.0      0.935      2.041
REMARK  Name = 
REMARK  5 active torsions:
REMARK  status: ('A' for Active; 'I' for Inactive)
REMARK    1  A    between atoms: C_1  and  C_2
REMARK    2  A    between atoms: C_5  and  N_6
REMARK    3  A    between atoms: C_7  and  C_9
REMARK    4  A    between atoms: C_16  and  N_17
REMARK    5  A    between atoms: N_17  and  C_18
REMARK                            x       y       z     vdW  Elec       q    Type
REMARK                         _______ _______ _______ _____ _____    ______ ____
ROOT
ATOM      1  C   UNL     1       1.078   4.022  20.701  0.00  0.00    +0.000 C 
ATOM      2  C   UNL     1       1.946   4.062  19.473  0.00  0.00    +0.000 A 
ATOM      3  C   UNL     1       1.857   2.988  18.579  0.00  0.00    +0.000 A 
ATOM      4  C   UNL     1       2.618   2.959  17.410  0.00  0.00    +0.000 A 
ATOM      5  C   UNL     1       3.470   4.011  17.087  0.00  0.00    +0.000 A 
ATOM      6  C   UNL     1       3.555   5.090  17.975  0.00  0.00    +0.000 A 
ATOM      7  C   UNL     1       2.857   5.104  19.203  0.00  0.00    +0.000 A 
ENDROOT
BRANCH   5   8
ATOM      8  N   UNL     1       4.279   4.033  15.924  0.00  0.00    +0.000 N 
ATOM      9  C   UNL     1       5.651   4.221  15.890  0.00  0.00    +0.000 C 
ATOM     10  O   UNL     1       6.385   4.356  16.864  0.00  0.00    +0.000 OA
ATOM     11  H   UNL     1       3.782   3.999  15.043  0.00  0.00    +0.000 HD
BRANCH   9  12
ATOM     12  C   UNL     1       6.294   4.305  14.548  0.00  0.00    +0.000 A 
ATOM     13  C   UNL     1       5.763   3.491  13.532  0.00  0.00    +0.000 A 
ATOM     14  C   UNL     1       6.273   3.545  12.237  0.00  0.00    +0.000 A 
ATOM     15  C   UNL     1       7.322   4.416  11.947  0.00  0.00    +0.000 A 
ATOM     16  C   UNL     1       7.858   5.225  12.950  0.00  0.00    +0.000 A 
ATOM     17  C   UNL     1       7.349   5.173  14.251  0.00  0.00    +0.000 A 
ENDBRANCH   9  12
ENDBRANCH   5   8
BRANCH   7  18
ATOM     18  N   UNL     1       3.024   6.189  20.105  0.00  0.00    +0.000 N 
ATOM     19  H   UNL     1       3.995   6.491  20.149  0.00  0.00    +0.000 HD
BRANCH  18  20
ATOM     20  C   UNL     1       2.188   7.326  20.257  0.00  0.00    +0.000 A 
ATOM     21  C   UNL     1       1.495   7.611  21.432  0.00  0.00    +0.000 A 
ATOM     22  C   UNL     1       0.628   8.713  21.525  0.00  0.00    +0.000 A 
ATOM     23  C   UNL     1       0.389   9.583  20.442  0.00  0.00    +0.000 A 
ATOM     24  C   UNL     1       1.116   9.275  19.210  0.00  0.00    +0.000 A 
ATOM     25  C   UNL     1       1.978   8.153  19.150  0.00  0.00    +0.000 A 
ATOM     26  C   UNL     1       1.043  10.101  17.880  0.00  0.00    +0.000 C 
ATOM     27  C   UNL     1       0.045  11.076  18.302  0.00  0.00    +0.000 C 
ATOM     28  C   UNL     1      -0.899  12.178  18.414  0.00  0.00    +0.000 C 
ATOM     29  C   UNL     1      -1.377  11.877  19.881  0.00  0.00    +0.000 C 
ATOM     30  C   UNL     1      -0.658  10.764  20.825  0.00  0.00    +0.000 C 
ATOM     31  O   UNL     1      -1.004  10.808  22.018  0.00  0.00    +0.000 OA
ENDBRANCH  18  20
ENDBRANCH   7  18
TORSDOF 4
ENDMDL
MODEL 4
REMARK VINA RESULT:      -8.5      4.737      5.647
REMARK  Name = 
REMARK  5 active torsions:
REMARK  status: ('A' for Active; 'I' for Inactive)
REMARK    1  A    between atoms: C_1  and  C_2
REMARK    2  A    between atoms: C_5  and  N_6
REMARK    3  A    between atoms: C_7  and  C_9
REMARK    4  A    between atoms: C_16  and  N_17
REMARK    5  A    between atoms: N_17  and  C_18
REMARK                            x       y       z     vdW  Elec       q    Type
REMARK                         _______ _______ _______ _____ _____    ______ ____
ROOT
ATOM      1  C   UNL     1       5.045   4.300  18.425  0.00  0.00    +0.000 C 
ATOM      2  C   UNL     1       5.808   5.575  18.186  0.00  0.00    +0.000 A 
ATOM      3  C   UNL     1       7.177   5.578  18.480  0.00  0.00    +0.000 A 
ATOM      4  C   UNL     1       7.955   6.716  18.271  0.00  0.00    +0.000 A 
ATOM      5  C   UNL     1       7.397   7.875  17.738  0.00  0.00    +0.000 A 
ATOM      6  C   UNL     1       6.031   7.872  17.436  0.00  0.00    +0.000 A 
ATOM      7  C   UNL     1       5.206   6.759  17.715  0.00  0.00    +0.000 A 
ENDROOT
BRANCH   5   8
ATOM      8  N   UNL     1       8.131   9.067  17.517  0.00  0.00    +0.000 N 
ATOM      9  C   UNL     1       8.817   9.792  18.479  0.00  0.00    +0.000 C 
ATOM     10  O   UNL     1       8.929   9.492  19.663  0.00  0.00    +0.000 OA
ATOM     11  H   UNL     1       8.061   9.458  16.587  0.00  0.00    +0.000 HD
BRANCH   9  12
ATOM     12  C   UNL     1       9.444  11.072  18.047  0.00  0.00    +0.000 A 
ATOM     13  C   UNL     1       8.595  12.184  17.903  0.00  0.00    +0.000 A 
ATOM     14  C   UNL     1       9.108  13.431  17.551  0.00  0.00    +0.000 A 
ATOM     15  C   UNL     1      10.478  13.576  17.340  0.00  0.00    +0.000 A 
ATOM     16  C   UNL     1      11.328  12.477  17.477  0.00  0.00    +0.000 A 
ATOM     17  C   UNL     1      10.816  11.224  17.830  0.00  0.00    +0.000 A 
ENDBRANCH   9  12
ENDBRANCH   5   8
BRANCH   7  18
ATOM     18  N   UNL     1       3.811   6.824  17.453  0.00  0.00    +0.000 N 
ATOM     19  H   UNL     1       3.403   5.896  17.370  0.00  0.00    +0.000 HD
BRANCH  18  20
ATOM     20  C   UNL     1       2.856   7.687  18.053  0.00  0.00    +0.000 A 
ATOM     21  C   UNL     1       2.378   8.841  17.437  0.00  0.00    +0.000 A 
ATOM     22  C   UNL     1       1.479   9.704  18.087  0.00  0.00    +0.000 A 
ATOM     23  C   UNL     1       1.020   9.471  19.399  0.00  0.00    +0.000 A 
ATOM     24  C   UNL     1       1.530   8.259  20.042  0.00  0.00    +0.000 A 
ATOM     25  C   UNL     1       2.439   7.415  19.359  0.00  0.00    +0.000 A 
ATOM     26  C   UNL     1       1.152   7.765  21.482  0.00  0.00    +0.000 C 
ATOM     27  C   UNL     1       0.302   8.886  21.863  0.00  0.00    +0.000 C 
ATOM     28  C   UNL     1      -0.588   9.825  22.529  0.00  0.00    +0.000 C 
ATOM     29  C   UNL     1      -0.641  10.894  21.378  0.00  0.00    +0.000 C 
ATOM     30  C   UNL     1      -0.003  10.626  19.905  0.00  0.00    +0.000 C 
ATOM     31  O   UNL     1      -0.324  11.469  19.050  0.00  0.00    +0.000 OA
ENDBRANCH  18  20
ENDBRANCH   7  18
TORSDOF 4
ENDMDL
MODEL 5
REMARK VINA RESULT:      -8.4      4.373      5.465
REMARK  Name = 
REMARK  5 active torsions:
REMARK  status: ('A' for Active; 'I' for Inactive)
REMARK    1  A    between atoms: C_1  and  C_2
REMARK    2  A    between atoms: C_5  and  N_6
REMARK    3  A    between atoms: C_7  and  C_9
REMARK    4  A    between atoms: C_16  and  N_17
REMARK    5  A    between atoms: N_17  and  C_18
REMARK                            x       y       z     vdW  Elec       q    Type
REMARK                         _______ _______ _______ _____ _____    ______ ____
ROOT
ATOM      1  C   UNL     1       4.632   3.555  17.023  0.00  0.00    +0.000 C 
ATOM      2  C   UNL     1       5.319   4.888  17.136  0.00  0.00    +0.000 A 
ATOM      3  C   UNL     1       6.695   4.935  16.873  0.00  0.00    +0.000 A 
ATOM      4  C   UNL     1       7.400   6.136  16.942  0.00  0.00    +0.000 A 
ATOM      5  C   UNL     1       6.751   7.328  17.249  0.00  0.00    +0.000 A 
ATOM      6  C   UNL     1       5.376   7.286  17.504  0.00  0.00    +0.000 A 
ATOM      7  C   UNL     1       4.656   6.071  17.520  0.00  0.00    +0.000 A 
ENDROOT
BRANCH   5   8
ATOM      8  N   UNL     1       7.415   8.577  17.349  0.00  0.00    +0.000 N 
ATOM      9  C   UNL     1       8.375   8.916  18.288  0.00  0.00    +0.000 C 
ATOM     10  O   UNL     1       8.832   8.174  19.152  0.00  0.00    +0.000 OA
ATOM     11  H   UNL     1       7.078   9.302  16.730  0.00  0.00    +0.000 HD
BRANCH   9  12
ATOM     12  C   UNL     1       8.876  10.319  18.273  0.00  0.00    +0.000 A 
ATOM     13  C   UNL     1      10.064  10.582  18.980  0.00  0.00    +0.000 A 
ATOM     14  C   UNL     1      10.626  11.856  18.977  0.00  0.00    +0.000 A 
ATOM     15  C   UNL     1      10.005  12.880  18.265  0.00  0.00    +0.000 A 
ATOM     16  C   UNL     1       8.824  12.630  17.563  0.00  0.00    +0.000 A 
ATOM     17  C   UNL     1       8.256  11.352  17.565  0.00  0.00    +0.000 A 
ENDBRANCH   9  12
ENDBRANCH   5   8
BRANCH   7  18
ATOM     18  N   UNL     1       3.274   6.067  17.850  0.00  0.00    +0.000 N 
ATOM     19  H   UNL     1       2.929   5.122  18.004  0.00  0.00    +0.000 HD
BRANCH  18  20
ATOM     20  C   UNL     1       2.590   6.948  18.729  0.00  0.00    +0.000 A 
ATOM     21  C   UNL     1       2.247   6.608  20.035  0.00  0.00    +0.000 A 
ATOM     22  C   UNL     1       1.515   7.485  20.855  0.00  0.00    +0.000 A 
ATOM     23  C   UNL     1       1.068   8.744  20.408  0.00  0.00    +0.000 A 
ATOM     24  C   UNL     1       1.428   9.093  19.033  0.00  0.00    +0.000 A 
ATOM     25  C   UNL     1       2.162   8.183  18.234  0.00  0.00    +0.000 A 
ATOM     26  C   UNL     1       1.074  10.440  18.314  0.00  0.00    +0.000 C 
ATOM     27  C   UNL     1       0.292  11.043  19.387  0.00  0.00    +0.000 C 
ATOM     28  C   UNL     1      -0.508  11.906  20.242  0.00  0.00    +0.000 C 
ATOM     29  C   UNL     1      -0.611  10.926  21.466  0.00  0.00    +0.000 C 
ATOM     30  C   UNL     1       0.244   9.545  21.557  0.00  0.00    +0.000 C 
ATOM     31  O   UNL     1       0.222   9.004  22.675  0.00  0.00    +0.000 OA
ENDBRANCH  18  20
ENDBRANCH   7  18
TORSDOF 4
ENDMDL
MODEL 6
REMARK VINA RESULT:      -8.4      4.263      5.268
REMARK  Name = 
REMARK  5 active torsions:
REMARK  status: ('A' for Active; 'I' for Inactive)
REMARK    1  A    between atoms: C_1  and  C_2
REMARK    2  A    between atoms: C_5  and  N_6
REMARK    3  A    between atoms: C_7  and  C_9
REMARK    4  A    between atoms: C_16  and  N_17
REMARK    5  A    between atoms: N_17  and  C_18
REMARK                            x       y       z     vdW  Elec       q    Type
REMARK                         _______ _______ _______ _____ _____    ______ ____
ROOT
ATOM      1  C   UNL     1       4.276   3.844  16.433  0.00  0.00    +0.000 C 
ATOM      2  C   UNL     1       5.053   5.096  16.735  0.00  0.00    +0.000 A 
ATOM      3  C   UNL     1       6.386   5.154  16.308  0.00  0.00    +0.000 A 
ATOM      4  C   UNL     1       7.167   6.287  16.537  0.00  0.00    +0.000 A 
ATOM      5  C   UNL     1       6.635   7.403  17.175  0.00  0.00    +0.000 A 
ATOM      6  C   UNL     1       5.301   7.352  17.597  0.00  0.00    +0.000 A 
ATOM      7  C   UNL     1       4.516   6.187  17.448  0.00  0.00    +0.000 A 
ENDROOT
BRANCH   5   8
ATOM      8  N   UNL     1       7.381   8.576  17.451  0.00  0.00    +0.000 N 
ATOM      9  C   UNL     1       8.373   8.705  18.409  0.00  0.00    +0.000 C 
ATOM     10  O   UNL     1       8.789   7.811  19.140  0.00  0.00    +0.000 OA
ATOM     11  H   UNL     1       7.086   9.409  16.958  0.00  0.00    +0.000 HD
BRANCH   9  12
ATOM     12  C   UNL     1       8.966  10.058  18.599  0.00  0.00    +0.000 A 
ATOM     13  C   UNL     1       8.585  11.058  17.685  0.00  0.00    +0.000 A 
ATOM     14  C   UNL     1       9.054  12.362  17.821  0.00  0.00    +0.000 A 
ATOM     15  C   UNL     1       9.910  12.679  18.873  0.00  0.00    +0.000 A 
ATOM     16  C   UNL     1      10.297  11.694  19.783  0.00  0.00    +0.000 A 
ATOM     17  C   UNL     1       9.828  10.383  19.650  0.00  0.00    +0.000 A 
ENDBRANCH   9  12
ENDBRANCH   5   8
BRANCH   7  18
ATOM     18  N   UNL     1       3.187   6.156  17.950  0.00  0.00    +0.000 N 
ATOM     19  H   UNL     1       3.049   5.382  18.596  0.00  0.00    +0.000 HD
BRANCH  18  20
ATOM     20  C   UNL     1       2.399   7.255  18.385  0.00  0.00    +0.000 A 
ATOM     21  C   UNL     1       1.968   8.268  17.533  0.00  0.00    +0.000 A 
ATOM     22  C   UNL     1       1.241   9.372  18.012  0.00  0.00    +0.000 A 
ATOM     23  C   UNL     1       0.921   9.535  19.375  0.00  0.00    +0.000 A 
ATOM     24  C   UNL     1       1.382   8.469  20.265  0.00  0.00    +0.000 A 
ATOM     25  C   UNL     1       2.115   7.374  19.749  0.00  0.00    +0.000 A 
ATOM     26  C   UNL     1       1.131   8.403  21.811  0.00  0.00    +0.000 C 
ATOM     27  C   UNL     1       0.446   9.682  21.959  0.00  0.00    +0.000 C 
ATOM     28  C   UNL     1      -0.262  10.862  22.433  0.00  0.00    +0.000 C 
ATOM     29  C   UNL     1      -0.345  11.605  21.050  0.00  0.00    +0.000 C 
ATOM     30  C   UNL     1       0.083  10.900  19.649  0.00  0.00    +0.000 C 
ATOM     31  O   UNL     1      -0.253  11.534  18.634  0.00  0.00    +0.000 OA
ENDBRANCH  18  20
ENDBRANCH   7  18
TORSDOF 4
ENDMDL
MODEL 7
REMARK VINA RESULT:      -8.2      1.199      1.685
REMARK  Name = 
REMARK  5 active torsions:
REMARK  status: ('A' for Active; 'I' for Inactive)
REMARK    1  A    between atoms: C_1  and  C_2
REMARK    2  A    between atoms: C_5  and  N_6
REMARK    3  A    between atoms: C_7  and  C_9
REMARK    4  A    between atoms: C_16  and  N_17
REMARK    5  A    between atoms: N_17  and  C_18
REMARK                            x       y       z     vdW  Elec       q    Type
REMARK                         _______ _______ _______ _____ _____    ______ ____
ROOT
ATOM      1  C   UNL     1       1.828   2.748  21.690  0.00  0.00    +0.000 C 
ATOM      2  C   UNL     1       2.555   2.961  20.390  0.00  0.00    +0.000 A 
ATOM      3  C   UNL     1       2.917   1.826  19.654  0.00  0.00    +0.000 A 
ATOM      4  C   UNL     1       3.580   1.941  18.432  0.00  0.00    +0.000 A 
ATOM      5  C   UNL     1       3.878   3.190  17.896  0.00  0.00    +0.000 A 
ATOM      6  C   UNL     1       3.510   4.327  18.626  0.00  0.00    +0.000 A 
ATOM      7  C   UNL     1       2.912   4.235  19.902  0.00  0.00    +0.000 A 
ENDROOT
BRANCH   5   8
ATOM      8  N   UNL     1       4.562   3.373  16.669  0.00  0.00    +0.000 N 
ATOM      9  C   UNL     1       5.773   4.025  16.500  0.00  0.00    +0.000 C 
ATOM     10  O   UNL     1       6.461   4.510  17.393  0.00  0.00    +0.000 OA
ATOM     11  H   UNL     1       4.063   3.074  15.841  0.00  0.00    +0.000 HD
BRANCH   9  12
ATOM     12  C   UNL     1       6.270   4.187  15.105  0.00  0.00    +0.000 A 
ATOM     13  C   UNL     1       5.632   3.431  14.106  0.00  0.00    +0.000 A 
ATOM     14  C   UNL     1       6.003   3.561  12.770  0.00  0.00    +0.000 A 
ATOM     15  C   UNL     1       7.017   4.450  12.420  0.00  0.00    +0.000 A 
ATOM     16  C   UNL     1       7.659   5.202  13.405  0.00  0.00    +0.000 A 
ATOM     17  C   UNL     1       7.289   5.074  14.748  0.00  0.00    +0.000 A 
ENDBRANCH   9  12
ENDBRANCH   5   8
BRANCH   7  18
ATOM     18  N   UNL     1       2.616   5.414  20.637  0.00  0.00    +0.000 N 
ATOM     19  H   UNL     1       3.276   5.555  21.398  0.00  0.00    +0.000 HD
BRANCH  18  20
ATOM     20  C   UNL     1       2.238   6.683  20.123  0.00  0.00    +0.000 A 
ATOM     21  C   UNL     1       2.755   7.213  18.943  0.00  0.00    +0.000 A 
ATOM     22  C   UNL     1       2.403   8.499  18.498  0.00  0.00    +0.000 A 
ATOM     23  C   UNL     1       1.528   9.336  19.218  0.00  0.00    +0.000 A 
ATOM     24  C   UNL     1       0.993   8.776  20.459  0.00  0.00    +0.000 A 
ATOM     25  C   UNL     1       1.372   7.478  20.880  0.00  0.00    +0.000 A 
ATOM     26  C   UNL     1      -0.016   9.493  21.422  0.00  0.00    +0.000 C 
ATOM     27  C   UNL     1      -0.096  10.767  20.716  0.00  0.00    +0.000 C 
ATOM     28  C   UNL     1      -0.401  12.113  20.256  0.00  0.00    +0.000 C 
ATOM     29  C   UNL     1       0.543  12.108  18.999  0.00  0.00    +0.000 C 
ATOM     30  C   UNL     1       1.302  10.766  18.480  0.00  0.00    +0.000 C 
ATOM     31  O   UNL     1       1.821  10.876  17.356  0.00  0.00    +0.000 OA
ENDBRANCH  18  20
ENDBRANCH   7  18
TORSDOF 4
ENDMDL
MODEL 8
REMARK VINA RESULT:      -8.2      2.462      3.872
REMARK  Name = 
REMARK  5 active torsions:
REMARK  status: ('A' for Active; 'I' for Inactive)
REMARK    1  A    between atoms: C_1  and  C_2
REMARK    2  A    between atoms: C_5  and  N_6
REMARK    3  A    between atoms: C_7  and  C_9
REMARK    4  A    between atoms: C_16  and  N_17
REMARK    5  A    between atoms: N_17  and  C_18
REMARK                            x       y       z     vdW  Elec       q    Type
REMARK                         _______ _______ _______ _____ _____    ______ ____
ROOT
ATOM      1  C   UNL     1       0.527   8.207  21.773  0.00  0.00    +0.000 C 
ATOM      2  C   UNL     1       1.358   7.664  20.643  0.00  0.00    +0.000 A 
ATOM      3  C   UNL     1       1.718   6.311  20.691  0.00  0.00    +0.000 A 
ATOM      4  C   UNL     1       2.474   5.730  19.674  0.00  0.00    +0.000 A 
ATOM      5  C   UNL     1       2.872   6.473  18.566  0.00  0.00    +0.000 A 
ATOM      6  C   UNL     1       2.508   7.824  18.511  0.00  0.00    +0.000 A 
ATOM      7  C   UNL     1       1.812   8.454  19.567  0.00  0.00    +0.000 A 
ENDROOT
BRANCH   5   8
ATOM      8  N   UNL     1       3.654   5.945  17.509  0.00  0.00    +0.000 N 
ATOM      9  C   UNL     1       4.967   5.513  17.604  0.00  0.00    +0.000 C 
ATOM     10  O   UNL     1       5.643   5.481  18.627  0.00  0.00    +0.000 OA
ATOM     11  H   UNL     1       3.229   5.980  16.591  0.00  0.00    +0.000 HD
BRANCH   9  12
ATOM     12  C   UNL     1       5.634   5.081  16.344  0.00  0.00    +0.000 A 
ATOM     13  C   UNL     1       4.866   4.327  15.439  0.00  0.00    +0.000 A 
ATOM     14  C   UNL     1       5.398   3.926  14.216  0.00  0.00    +0.000 A 
ATOM     15  C   UNL     1       6.706   4.276  13.886  0.00  0.00    +0.000 A 
ATOM     16  C   UNL     1       7.477   5.022  14.779  0.00  0.00    +0.000 A 
ATOM     17  C   UNL     1       6.946   5.426  16.008  0.00  0.00    +0.000 A 
ENDBRANCH   9  12
ENDBRANCH   5   8
BRANCH   7  18
ATOM     18  N   UNL     1       1.521   9.843  19.499  0.00  0.00    +0.000 N 
ATOM     19  H   UNL     1       2.157  10.327  18.869  0.00  0.00    +0.000 HD
BRANCH  18  20
ATOM     20  C   UNL     1       0.244  10.458  19.414  0.00  0.00    +0.000 A 
ATOM     21  C   UNL     1      -0.253  11.321  20.388  0.00  0.00    +0.000 A 
ATOM     22  C   UNL     1      -1.547  11.862  20.300  0.00  0.00    +0.000 A 
ATOM     23  C   UNL     1      -2.426  11.556  19.241  0.00  0.00    +0.000 A 
ATOM     24  C   UNL     1      -1.899  10.644  18.225  0.00  0.00    +0.000 A 
ATOM     25  C   UNL     1      -0.592  10.114  18.348  0.00  0.00    +0.000 A 
ATOM     26  C   UNL     1      -2.666  10.171  16.942  0.00  0.00    +0.000 C 
ATOM     27  C   UNL     1      -3.934  10.840  17.207  0.00  0.00    +0.000 C 
ATOM     28  C   UNL     1      -5.287  11.375  17.170  0.00  0.00    +0.000 C 
ATOM     29  C   UNL     1      -5.231  12.138  18.543  0.00  0.00    +0.000 C 
ATOM     30  C   UNL     1      -3.855  12.312  19.393  0.00  0.00    +0.000 C 
ATOM     31  O   UNL     1      -3.934  13.126  20.329  0.00  0.00    +0.000 OA
ENDBRANCH  18  20
ENDBRANCH   7  18
TORSDOF 4
ENDMDL
MODEL 9
REMARK VINA RESULT:      -8.1      2.777      4.328
REMARK  Name = 
REMARK  5 active torsions:
REMARK  status: ('A' for Active; 'I' for Inactive)
REMARK    1  A    between atoms: C_1  and  C_2
REMARK    2  A    between atoms: C_5  and  N_6
REMARK    3  A    between atoms: C_7  and  C_9
REMARK    4  A    between atoms: C_16  and  N_17
REMARK    5  A    between atoms: N_17  and  C_18
REMARK                            x       y       z     vdW  Elec       q    Type
REMARK                         _______ _______ _______ _____ _____    ______ ____
ROOT
ATOM      1  C   UNL     1      -0.062   8.925  21.928  0.00  0.00    +0.000 C 
ATOM      2  C   UNL     1       0.864   8.333  20.900  0.00  0.00    +0.000 A 
ATOM      3  C   UNL     1       1.436   7.086  21.181  0.00  0.00    +0.000 A 
ATOM      4  C   UNL     1       2.292   6.466  20.271  0.00  0.00    +0.000 A 
ATOM      5  C   UNL     1       2.583   7.058  19.046  0.00  0.00    +0.000 A 
ATOM      6  C   UNL     1       2.007   8.301  18.759  0.00  0.00    +0.000 A 
ATOM      7  C   UNL     1       1.202   8.986  19.697  0.00  0.00    +0.000 A 
ENDROOT
BRANCH   5   8
ATOM      8  N   UNL     1       3.456   6.486  18.088  0.00  0.00    +0.000 N 
ATOM      9  C   UNL     1       4.592   5.742  18.362  0.00  0.00    +0.000 C 
ATOM     10  O   UNL     1       4.995   5.427  19.478  0.00  0.00    +0.000 OA
ATOM     11  H   UNL     1       3.270   6.731  17.124  0.00  0.00    +0.000 HD
BRANCH   9  12
ATOM     12  C   UNL     1       5.423   5.314  17.202  0.00  0.00    +0.000 A 
ATOM     13  C   UNL     1       4.893   5.539  15.918  0.00  0.00    +0.000 A 
ATOM     14  C   UNL     1       5.627   5.214  14.780  0.00  0.00    +0.000 A 
ATOM     15  C   UNL     1       6.899   4.662  14.915  0.00  0.00    +0.000 A 
ATOM     16  C   UNL     1       7.431   4.432  16.185  0.00  0.00    +0.000 A 
ATOM     17  C   UNL     1       6.698   4.756  17.330  0.00  0.00    +0.000 A 
ENDBRANCH   9  12
ENDBRANCH   5   8
BRANCH   7  18
ATOM     18  N   UNL     1       0.692  10.276  19.390  0.00  0.00    +0.000 N 
ATOM     19  H   UNL     1       1.345  10.810  18.821  0.00  0.00    +0.000 HD
BRANCH  18  20
ATOM     20  C   UNL     1      -0.631  10.615  19.001  0.00  0.00    +0.000 A 
ATOM     21  C   UNL     1      -1.188  10.236  17.783  0.00  0.00    +0.000 A 
ATOM     22  C   UNL     1      -2.480  10.642  17.407  0.00  0.00    +0.000 A 
ATOM     23  C   UNL     1      -3.282  11.467  18.221  0.00  0.00    +0.000 A 
ATOM     24  C   UNL     1      -2.688  11.866  19.498  0.00  0.00    +0.000 A 
ATOM     25  C   UNL     1      -1.381  11.442  19.842  0.00  0.00    +0.000 A 
ATOM     26  C   UNL     1      -3.383  12.755  20.586  0.00  0.00    +0.000 C 
ATOM     27  C   UNL     1      -4.615  13.036  19.860  0.00  0.00    +0.000 C 
ATOM     28  C   UNL     1      -5.929  13.483  19.421  0.00  0.00    +0.000 C 
ATOM     29  C   UNL     1      -5.893  12.819  17.997  0.00  0.00    +0.000 C 
ATOM     30  C   UNL     1      -4.722  11.786  17.541  0.00  0.00    +0.000 C 
ATOM     31  O   UNL     1      -4.960  11.181  16.482  0.00  0.00    +0.000 OA
ENDBRANCH  18  20
ENDBRANCH   7  18
TORSDOF 4
ENDMDL
