MODEL 1
REMARK VINA RESULT:      -9.0      0.000      0.000
REMARK  Name = 
REMARK  7 active torsions:
REMARK  status: ('A' for Active; 'I' for Inactive)
REMARK    1  A    between atoms: C_1  and  C_2
REMARK    2  A    between atoms: C_10  and  C_11
REMARK    3  A    between atoms: N_13  and  N_14
REMARK    4  A    between atoms: C_15  and  C_16
REMARK    5  A    between atoms: C_18  and  C_19
REMARK    6  A    between atoms: N_20  and  C_21
REMARK    7  A    between atoms: C_28  and  C_29
REMARK                            x       y       z     vdW  Elec       q    Type
REMARK                         _______ _______ _______ _____ _____    ______ ____
ROOT
ATOM      1  N   UNL     1       8.192   8.500  17.386  0.00  0.00    +0.000 NA
ATOM      2  C   UNL     1       7.797   9.632  17.870  0.00  0.00    +0.000 C 
ENDROOT
BRANCH   2   3
ATOM      3  C   UNL     1       8.789  10.624  18.259  0.00  0.00    +0.000 A 
ATOM      4  C   UNL     1       9.968  10.416  19.007  0.00  0.00    +0.000 A 
ATOM      5  C   UNL     1      10.616  11.623  19.167  0.00  0.00    +0.000 A 
ATOM      6  C   UNL     1      11.838  11.847  19.997  0.00  0.00    +0.000 C 
ATOM      7  N   UNL     1       9.870  12.612  18.518  0.00  0.00    +0.000 N 
ATOM      8  C   UNL     1       8.757  11.980  17.937  0.00  0.00    +0.000 A 
ATOM      9  C   UNL     1       7.758  12.637  17.038  0.00  0.00    +0.000 C 
BRANCH   7  10
ATOM     10  C   UNL     1      10.182  14.014  18.481  0.00  0.00    +0.000 A 
ATOM     11  C   UNL     1       9.682  14.887  19.462  0.00  0.00    +0.000 A 
ATOM     12  C   UNL     1       9.950  16.260  19.403  0.00  0.00    +0.000 A 
ATOM     13  C   UNL     1      10.749  16.767  18.384  0.00  0.00    +0.000 A 
ATOM     14 BR   UNL     1      11.115  18.619  18.308  0.00  0.00    +0.000 Br
ATOM     15  C   UNL     1      11.275  15.915  17.418  0.00  0.00    +0.000 A 
ATOM     16  C   UNL     1      10.977  14.545  17.455  0.00  0.00    +0.000 A 
ENDBRANCH   7  10
ENDBRANCH   2   3
BRANCH   1  19
ATOM     17  C   UNL     1       7.145   6.402  17.792  0.00  0.00    +0.000 C 
ATOM     18  O   UNL     1       7.922   6.153  18.714  0.00  0.00    +0.000 OA
ATOM     19  N   UNL     1       7.221   7.582  17.060  0.00  0.00    +0.000 N 
ATOM     20  H   UNL     1       6.478   7.852  16.429  0.00  0.00    +0.000 HD
BRANCH  17  30
ATOM     21  C   UNL     1       6.946   4.618  15.181  0.00  0.00    +0.000 C 
ATOM     22  C   UNL     1       5.976   4.727  16.299  0.00  0.00    +0.000 A 
ATOM     23  N   UNL     1       4.816   3.997  16.255  0.00  0.00    +0.000 NA
ATOM     24  C   UNL     1       4.161   4.322  17.343  0.00  0.00    +0.000 A 
ATOM     25  C   UNL     1       2.877   3.905  17.792  0.00  0.00    +0.000 A 
ATOM     26  C   UNL     1       2.386   4.378  18.953  0.00  0.00    +0.000 A 
ATOM     27  C   UNL     1       3.137   5.327  19.757  0.00  0.00    +0.000 A 
ATOM     28  C   UNL     1       4.343   5.742  19.326  0.00  0.00    +0.000 A 
ATOM     29  N   UNL     1       4.869   5.238  18.127  0.00  0.00    +0.000 N 
ATOM     30  C   UNL     1       6.062   5.491  17.462  0.00  0.00    +0.000 A 
ENDBRANCH  17  30
ENDBRANCH   1  19
TORSDOF 4
ENDMDL
MODEL 2
REMARK VINA RESULT:      -7.8      6.908      9.206
REMARK  Name = 
REMARK  7 active torsions:
REMARK  status: ('A' for Active; 'I' for Inactive)
REMARK    1  A    between atoms: C_1  and  C_2
REMARK    2  A    between atoms: C_10  and  C_11
REMARK    3  A    between atoms: N_13  and  N_14
REMARK    4  A    between atoms: C_15  and  C_16
REMARK    5  A    between atoms: C_18  and  C_19
REMARK    6  A    between atoms: N_20  and  C_21
REMARK    7  A    between atoms: C_28  and  C_29
REMARK                            x       y       z     vdW  Elec       q    Type
REMARK                         _______ _______ _______ _____ _____    ______ ____
ROOT
ATOM      1  N   UNL     1       1.965   8.845  18.779  0.00  0.00    +0.000 NA
ATOM      2  C   UNL     1       1.687   9.951  18.171  0.00  0.00    +0.000 C 
ENDROOT
BRANCH   2   3
ATOM      3  C   UNL     1       1.023  11.019  18.906  0.00  0.00    +0.000 A 
ATOM      4  C   UNL     1       1.506  12.321  19.158  0.00  0.00    +0.000 A 
ATOM      5  C   UNL     1       0.572  13.008  19.905  0.00  0.00    +0.000 A 
ATOM      6  C   UNL     1       0.756  14.377  20.475  0.00  0.00    +0.000 C 
ATOM      7  N   UNL     1      -0.519  12.163  20.131  0.00  0.00    +0.000 N 
ATOM      8  C   UNL     1      -0.242  10.945  19.487  0.00  0.00    +0.000 A 
ATOM      9  C   UNL     1      -1.192   9.796  19.360  0.00  0.00    +0.000 C 
BRANCH   7  10
ATOM     10  C   UNL     1      -1.688  12.485  20.901  0.00  0.00    +0.000 A 
ATOM     11  C   UNL     1      -1.752  12.180  22.271  0.00  0.00    +0.000 A 
ATOM     12  C   UNL     1      -2.907  12.454  23.013  0.00  0.00    +0.000 A 
ATOM     13  C   UNL     1      -3.994  13.068  22.402  0.00  0.00    +0.000 A 
ATOM     14 BR   UNL     1      -5.550  13.444  23.405  0.00  0.00    +0.000 Br
ATOM     15  C   UNL     1      -3.940  13.402  21.052  0.00  0.00    +0.000 A 
ATOM     16  C   UNL     1      -2.798  13.095  20.299  0.00  0.00    +0.000 A 
ENDBRANCH   7  10
ENDBRANCH   2   3
BRANCH   1  19
ATOM     17  C   UNL     1       2.902   6.661  18.669  0.00  0.00    +0.000 C 
ATOM     18  O   UNL     1       2.688   6.469  19.865  0.00  0.00    +0.000 OA
ATOM     19  N   UNL     1       2.565   7.853  18.039  0.00  0.00    +0.000 N 
ATOM     20  H   UNL     1       2.585   7.934  17.031  0.00  0.00    +0.000 HD
BRANCH  17  30
ATOM     21  C   UNL     1       1.499   3.922  17.910  0.00  0.00    +0.000 C 
ATOM     22  C   UNL     1       2.850   4.403  17.527  0.00  0.00    +0.000 A 
ATOM     23  N   UNL     1       3.653   3.605  16.754  0.00  0.00    +0.000 NA
ATOM     24  C   UNL     1       4.772   4.272  16.611  0.00  0.00    +0.000 A 
ATOM     25  C   UNL     1       5.974   3.905  15.945  0.00  0.00    +0.000 A 
ATOM     26  C   UNL     1       7.019   4.753  15.929  0.00  0.00    +0.000 A 
ATOM     27  C   UNL     1       6.954   6.040  16.600  0.00  0.00    +0.000 A 
ATOM     28  C   UNL     1       5.827   6.384  17.251  0.00  0.00    +0.000 A 
ATOM     29  N   UNL     1       4.727   5.514  17.253  0.00  0.00    +0.000 N 
ATOM     30  C   UNL     1       3.469   5.614  17.836  0.00  0.00    +0.000 A 
ENDBRANCH  17  30
ENDBRANCH   1  19
TORSDOF 4
ENDMDL
MODEL 3
REMARK VINA RESULT:      -7.7      6.233      8.053
REMARK  Name = 
REMARK  7 active torsions:
REMARK  status: ('A' for Active; 'I' for Inactive)
REMARK    1  A    between atoms: C_1  and  C_2
REMARK    2  A    between atoms: C_10  and  C_11
REMARK    3  A    between atoms: N_13  and  N_14
REMARK    4  A    between atoms: C_15  and  C_16
REMARK    5  A    between atoms: C_18  and  C_19
REMARK    6  A    between atoms: N_20  and  C_21
REMARK    7  A    between atoms: C_28  and  C_29
REMARK                            x       y       z     vdW  Elec       q    Type
REMARK                         _______ _______ _______ _____ _____    ______ ____
ROOT
ATOM      1  N   UNL     1       1.800   8.922  18.630  0.00  0.00    +0.000 NA
ATOM      2  C   UNL     1       0.943   9.634  17.973  0.00  0.00    +0.000 C 
ENDROOT
BRANCH   2   3
ATOM      3  C   UNL     1       0.237  10.708  18.658  0.00  0.00    +0.000 A 
ATOM      4  C   UNL     1      -1.067  10.674  19.197  0.00  0.00    +0.000 A 
ATOM      5  C   UNL     1      -1.358  11.907  19.742  0.00  0.00    +0.000 A 
ATOM      6  C   UNL     1      -2.680  12.315  20.308  0.00  0.00    +0.000 C 
ATOM      7  N   UNL     1      -0.246  12.738  19.569  0.00  0.00    +0.000 N 
ATOM      8  C   UNL     1       0.744  11.979  18.921  0.00  0.00    +0.000 A 
ATOM      9  C   UNL     1       2.144  12.430  18.652  0.00  0.00    +0.000 C 
BRANCH   7  10
ATOM     10  C   UNL     1      -0.156  14.117  19.963  0.00  0.00    +0.000 A 
ATOM     11  C   UNL     1      -0.340  15.145  19.024  0.00  0.00    +0.000 A 
ATOM     12  C   UNL     1      -0.209  16.488  19.396  0.00  0.00    +0.000 A 
ATOM     13  C   UNL     1       0.070  16.817  20.719  0.00  0.00    +0.000 A 
ATOM     14 BR   UNL     1       0.240  18.629  21.223  0.00  0.00    +0.000 Br
ATOM     15  C   UNL     1       0.230  15.813  21.669  0.00  0.00    +0.000 A 
ATOM     16  C   UNL     1       0.136  14.467  21.289  0.00  0.00    +0.000 A 
ENDBRANCH   7  10
ENDBRANCH   2   3
BRANCH   1  19
ATOM     17  C   UNL     1       2.825   6.776  18.662  0.00  0.00    +0.000 C 
ATOM     18  O   UNL     1       2.652   6.672  19.876  0.00  0.00    +0.000 OA
ATOM     19  N   UNL     1       2.421   7.900  17.951  0.00  0.00    +0.000 N 
ATOM     20  H   UNL     1       2.410   7.901  16.940  0.00  0.00    +0.000 HD
BRANCH  17  30
ATOM     21  C   UNL     1       1.449   3.995  18.020  0.00  0.00    +0.000 C 
ATOM     22  C   UNL     1       2.806   4.461  17.639  0.00  0.00    +0.000 A 
ATOM     23  N   UNL     1       3.627   3.628  16.926  0.00  0.00    +0.000 NA
ATOM     24  C   UNL     1       4.746   4.292  16.771  0.00  0.00    +0.000 A 
ATOM     25  C   UNL     1       5.963   3.896  16.149  0.00  0.00    +0.000 A 
ATOM     26  C   UNL     1       7.005   4.748  16.110  0.00  0.00    +0.000 A 
ATOM     27  C   UNL     1       6.921   6.068  16.711  0.00  0.00    +0.000 A 
ATOM     28  C   UNL     1       5.780   6.440  17.321  0.00  0.00    +0.000 A 
ATOM     29  N   UNL     1       4.683   5.565  17.346  0.00  0.00    +0.000 N 
ATOM     30  C   UNL     1       3.414   5.690  17.897  0.00  0.00    +0.000 A 
ENDBRANCH  17  30
ENDBRANCH   1  19
TORSDOF 4
ENDMDL
MODEL 4
REMARK VINA RESULT:      -7.6      7.021      9.154
REMARK  Name = 
REMARK  7 active torsions:
REMARK  status: ('A' for Active; 'I' for Inactive)
REMARK    1  A    between atoms: C_1  and  C_2
REMARK    2  A    between atoms: C_10  and  C_11
REMARK    3  A    between atoms: N_13  and  N_14
REMARK    4  A    between atoms: C_15  and  C_16
REMARK    5  A    between atoms: C_18  and  C_19
REMARK    6  A    between atoms: N_20  and  C_21
REMARK    7  A    between atoms: C_28  and  C_29
REMARK                            x       y       z     vdW  Elec       q    Type
REMARK                         _______ _______ _______ _____ _____    ______ ____
ROOT
ATOM      1  N   UNL     1       1.832   8.355  20.016  0.00  0.00    +0.000 NA
ATOM      2  C   UNL     1       0.654   8.516  20.523  0.00  0.00    +0.000 C 
ENDROOT
BRANCH   2   3
ATOM      3  C   UNL     1       0.084   9.855  20.587  0.00  0.00    +0.000 A 
ATOM      4  C   UNL     1      -0.093  10.767  19.525  0.00  0.00    +0.000 A 
ATOM      5  C   UNL     1      -0.651  11.927  20.020  0.00  0.00    +0.000 A 
ATOM      6  C   UNL     1      -0.888  13.178  19.236  0.00  0.00    +0.000 C 
ATOM      7  N   UNL     1      -0.845  11.770  21.396  0.00  0.00    +0.000 N 
ATOM      8  C   UNL     1      -0.412  10.476  21.732  0.00  0.00    +0.000 A 
ATOM      9  C   UNL     1      -0.556   9.835  23.076  0.00  0.00    +0.000 C 
BRANCH   7  10
ATOM     10  C   UNL     1      -1.368  12.764  22.292  0.00  0.00    +0.000 A 
ATOM     11  C   UNL     1      -0.568  13.836  22.721  0.00  0.00    +0.000 A 
ATOM     12  C   UNL     1      -1.062  14.781  23.627  0.00  0.00    +0.000 A 
ATOM     13  C   UNL     1      -2.372  14.685  24.084  0.00  0.00    +0.000 A 
ATOM     14 BR   UNL     1      -3.041  15.964  25.303  0.00  0.00    +0.000 Br
ATOM     15  C   UNL     1      -3.188  13.645  23.650  0.00  0.00    +0.000 A 
ATOM     16  C   UNL     1      -2.683  12.677  22.771  0.00  0.00    +0.000 A 
ENDBRANCH   7  10
ENDBRANCH   2   3
BRANCH   1  19
ATOM     17  C   UNL     1       3.021   6.642  18.871  0.00  0.00    +0.000 C 
ATOM     18  O   UNL     1       3.171   7.358  17.881  0.00  0.00    +0.000 OA
ATOM     19  N   UNL     1       2.343   7.078  20.003  0.00  0.00    +0.000 N 
ATOM     20  H   UNL     1       2.376   6.551  20.866  0.00  0.00    +0.000 HD
BRANCH  17  30
ATOM     21  C   UNL     1       6.118   5.972  18.947  0.00  0.00    +0.000 C 
ATOM     22  C   UNL     1       4.971   5.030  18.936  0.00  0.00    +0.000 A 
ATOM     23  N   UNL     1       5.210   3.680  18.948  0.00  0.00    +0.000 NA
ATOM     24  C   UNL     1       4.028   3.118  18.901  0.00  0.00    +0.000 A 
ATOM     25  C   UNL     1       3.675   1.741  18.844  0.00  0.00    +0.000 A 
ATOM     26  C   UNL     1       2.378   1.381  18.792  0.00  0.00    +0.000 A 
ATOM     27  C   UNL     1       1.321   2.377  18.776  0.00  0.00    +0.000 A 
ATOM     28  C   UNL     1       1.650   3.682  18.808  0.00  0.00    +0.000 A 
ATOM     29  N   UNL     1       2.998   4.063  18.882  0.00  0.00    +0.000 N 
ATOM     30  C   UNL     1       3.605   5.312  18.924  0.00  0.00    +0.000 A 
ENDBRANCH  17  30
ENDBRANCH   1  19
TORSDOF 4
ENDMDL
MODEL 5
REMARK VINA RESULT:      -7.6      7.195      9.177
REMARK  Name = 
REMARK  7 active torsions:
REMARK  status: ('A' for Active; 'I' for Inactive)
REMARK    1  A    between atoms: C_1  and  C_2
REMARK    2  A    between atoms: C_10  and  C_11
REMARK    3  A    between atoms: N_13  and  N_14
REMARK    4  A    between atoms: C_15  and  C_16
REMARK    5  A    between atoms: C_18  and  C_19
REMARK    6  A    between atoms: N_20  and  C_21
REMARK    7  A    between atoms: C_28  and  C_29
REMARK                            x       y       z     vdW  Elec       q    Type
REMARK                         _______ _______ _______ _____ _____    ______ ____
ROOT
ATOM      1  N   UNL     1       1.627   8.691  19.649  0.00  0.00    +0.000 NA
ATOM      2  C   UNL     1       0.752   8.961  20.561  0.00  0.00    +0.000 C 
ENDROOT
BRANCH   2   3
ATOM      3  C   UNL     1       0.179  10.298  20.623  0.00  0.00    +0.000 A 
ATOM      4  C   UNL     1       0.153  11.272  19.601  0.00  0.00    +0.000 A 
ATOM      5  C   UNL     1      -0.469  12.406  20.080  0.00  0.00    +0.000 A 
ATOM      6  C   UNL     1      -0.594  13.702  19.345  0.00  0.00    +0.000 C 
ATOM      7  N   UNL     1      -0.857  12.171  21.403  0.00  0.00    +0.000 N 
ATOM      8  C   UNL     1      -0.475  10.856  21.720  0.00  0.00    +0.000 A 
ATOM      9  C   UNL     1      -0.807  10.140  22.991  0.00  0.00    +0.000 C 
BRANCH   7  10
ATOM     10  C   UNL     1      -1.502  13.115  22.272  0.00  0.00    +0.000 A 
ATOM     11  C   UNL     1      -2.903  13.168  22.362  0.00  0.00    +0.000 A 
ATOM     12  C   UNL     1      -3.534  14.116  23.175  0.00  0.00    +0.000 A 
ATOM     13  C   UNL     1      -2.771  14.996  23.934  0.00  0.00    +0.000 A 
ATOM     14 BR   UNL     1      -3.622  16.272  25.037  0.00  0.00    +0.000 Br
ATOM     15  C   UNL     1      -1.381  14.943  23.878  0.00  0.00    +0.000 A 
ATOM     16  C   UNL     1      -0.749  14.018  23.036  0.00  0.00    +0.000 A 
ENDBRANCH   7  10
ENDBRANCH   2   3
BRANCH   1  19
ATOM     17  C   UNL     1       2.718   6.937  18.469  0.00  0.00    +0.000 C 
ATOM     18  O   UNL     1       2.736   7.597  17.431  0.00  0.00    +0.000 OA
ATOM     19  N   UNL     1       2.164   7.425  19.647  0.00  0.00    +0.000 N 
ATOM     20  H   UNL     1       2.310   6.949  20.528  0.00  0.00    +0.000 HD
BRANCH  17  30
ATOM     21  C   UNL     1       5.805   6.317  18.103  0.00  0.00    +0.000 C 
ATOM     22  C   UNL     1       4.695   5.361  18.343  0.00  0.00    +0.000 A 
ATOM     23  N   UNL     1       4.968   4.020  18.418  0.00  0.00    +0.000 NA
ATOM     24  C   UNL     1       3.807   3.439  18.601  0.00  0.00    +0.000 A 
ATOM     25  C   UNL     1       3.485   2.057  18.701  0.00  0.00    +0.000 A 
ATOM     26  C   UNL     1       2.206   1.677  18.883  0.00  0.00    +0.000 A 
ATOM     27  C   UNL     1       1.134   2.655  18.960  0.00  0.00    +0.000 A 
ATOM     28  C   UNL     1       1.430   3.963  18.843  0.00  0.00    +0.000 A 
ATOM     29  N   UNL     1       2.763   4.367  18.675  0.00  0.00    +0.000 N 
ATOM     30  C   UNL     1       3.337   5.623  18.528  0.00  0.00    +0.000 A 
ENDBRANCH  17  30
ENDBRANCH   1  19
TORSDOF 4
ENDMDL
MODEL 6
REMARK VINA RESULT:      -7.5      8.018     11.400
REMARK  Name = 
REMARK  7 active torsions:
REMARK  status: ('A' for Active; 'I' for Inactive)
REMARK    1  A    between atoms: C_1  and  C_2
REMARK    2  A    between atoms: C_10  and  C_11
REMARK    3  A    between atoms: N_13  and  N_14
REMARK    4  A    between atoms: C_15  and  C_16
REMARK    5  A    between atoms: C_18  and  C_19
REMARK    6  A    between atoms: N_20  and  C_21
REMARK    7  A    between atoms: C_28  and  C_29
REMARK                            x       y       z     vdW  Elec       q    Type
REMARK                         _______ _______ _______ _____ _____    ______ ____
ROOT
ATOM      1  N   UNL     1      -0.365   9.665  20.639  0.00  0.00    +0.000 NA
ATOM      2  C   UNL     1       0.899   9.624  20.369  0.00  0.00    +0.000 C 
ENDROOT
BRANCH   2   3
ATOM      3  C   UNL     1       1.515   8.347  20.036  0.00  0.00    +0.000 A 
ATOM      4  C   UNL     1       1.523   7.167  20.811  0.00  0.00    +0.000 A 
ATOM      5  C   UNL     1       2.231   6.194  20.136  0.00  0.00    +0.000 A 
ATOM      6  C   UNL     1       2.567   4.840  20.671  0.00  0.00    +0.000 C 
ATOM      7  N   UNL     1       2.674   6.733  18.924  0.00  0.00    +0.000 N 
ATOM      8  C   UNL     1       2.204   8.056  18.860  0.00  0.00    +0.000 A 
ATOM      9  C   UNL     1       2.334   8.966  17.680  0.00  0.00    +0.000 C 
BRANCH   7  10
ATOM     10  C   UNL     1       3.481   6.056  17.946  0.00  0.00    +0.000 A 
ATOM     11  C   UNL     1       3.182   4.740  17.556  0.00  0.00    +0.000 A 
ATOM     12  C   UNL     1       3.992   4.064  16.636  0.00  0.00    +0.000 A 
ATOM     13  C   UNL     1       5.087   4.709  16.071  0.00  0.00    +0.000 A 
ATOM     14 BR   UNL     1       6.176   3.800  14.825  0.00  0.00    +0.000 Br
ATOM     15  C   UNL     1       5.384   6.022  16.426  0.00  0.00    +0.000 A 
ATOM     16  C   UNL     1       4.595   6.687  17.375  0.00  0.00    +0.000 A 
ENDBRANCH   7  10
ENDBRANCH   2   3
BRANCH   1  19
ATOM     17  C   UNL     1      -0.737  11.347  22.279  0.00  0.00    +0.000 C 
ATOM     18  O   UNL     1      -0.143  10.694  23.136  0.00  0.00    +0.000 OA
ATOM     19  N   UNL     1      -0.897  10.886  20.977  0.00  0.00    +0.000 N 
ATOM     20  H   UNL     1      -1.230  11.500  20.244  0.00  0.00    +0.000 HD
BRANCH  17  30
ATOM     21  C   UNL     1       0.773  14.087  21.773  0.00  0.00    +0.000 C 
ATOM     22  C   UNL     1      -0.570  13.871  22.369  0.00  0.00    +0.000 A 
ATOM     23  N   UNL     1      -1.302  14.952  22.786  0.00  0.00    +0.000 NA
ATOM     24  C   UNL     1      -2.405  14.452  23.287  0.00  0.00    +0.000 A 
ATOM     25  C   UNL     1      -3.504  15.108  23.906  0.00  0.00    +0.000 A 
ATOM     26  C   UNL     1      -4.546  14.388  24.364  0.00  0.00    +0.000 A 
ATOM     27  C   UNL     1      -4.564  12.939  24.254  0.00  0.00    +0.000 A 
ATOM     28  C   UNL     1      -3.517  12.311  23.689  0.00  0.00    +0.000 A 
ATOM     29  N   UNL     1      -2.438  13.057  23.192  0.00  0.00    +0.000 N 
ATOM     30  C   UNL     1      -1.253  12.673  22.576  0.00  0.00    +0.000 A 
ENDBRANCH  17  30
ENDBRANCH   1  19
TORSDOF 4
ENDMDL
MODEL 7
REMARK VINA RESULT:      -7.5      6.391      8.333
REMARK  Name = 
REMARK  7 active torsions:
REMARK  status: ('A' for Active; 'I' for Inactive)
REMARK    1  A    between atoms: C_1  and  C_2
REMARK    2  A    between atoms: C_10  and  C_11
REMARK    3  A    between atoms: N_13  and  N_14
REMARK    4  A    between atoms: C_15  and  C_16
REMARK    5  A    between atoms: C_18  and  C_19
REMARK    6  A    between atoms: N_20  and  C_21
REMARK    7  A    between atoms: C_28  and  C_29
REMARK                            x       y       z     vdW  Elec       q    Type
REMARK                         _______ _______ _______ _____ _____    ______ ____
ROOT
ATOM      1  N   UNL     1       1.866   8.035  19.568  0.00  0.00    +0.000 NA
ATOM      2  C   UNL     1       1.459   9.190  19.155  0.00  0.00    +0.000 C 
ENDROOT
BRANCH   2   3
ATOM      3  C   UNL     1       0.784  10.082  20.089  0.00  0.00    +0.000 A 
ATOM      4  C   UNL     1       0.146   9.737  21.299  0.00  0.00    +0.000 A 
ATOM      5  C   UNL     1      -0.380  10.878  21.868  0.00  0.00    +0.000 A 
ATOM      6  C   UNL     1      -1.231  10.921  23.096  0.00  0.00    +0.000 C 
ATOM      7  N   UNL     1      -0.078  11.962  21.039  0.00  0.00    +0.000 N 
ATOM      8  C   UNL     1       0.664  11.464  19.955  0.00  0.00    +0.000 A 
ATOM      9  C   UNL     1       1.306  12.293  18.888  0.00  0.00    +0.000 C 
BRANCH   7  10
ATOM     10  C   UNL     1      -0.481  13.325  21.254  0.00  0.00    +0.000 A 
ATOM     11  C   UNL     1      -1.677  13.816  20.704  0.00  0.00    +0.000 A 
ATOM     12  C   UNL     1      -2.049  15.154  20.876  0.00  0.00    +0.000 A 
ATOM     13  C   UNL     1      -1.248  16.005  21.630  0.00  0.00    +0.000 A 
ATOM     14 BR   UNL     1      -1.753  17.809  21.868  0.00  0.00    +0.000 Br
ATOM     15  C   UNL     1      -0.073  15.531  22.205  0.00  0.00    +0.000 A 
ATOM     16  C   UNL     1       0.319  14.200  22.002  0.00  0.00    +0.000 A 
ENDBRANCH   7  10
ENDBRANCH   2   3
BRANCH   1  19
ATOM     17  C   UNL     1       2.998   6.002  19.073  0.00  0.00    +0.000 C 
ATOM     18  O   UNL     1       2.948   5.646  20.250  0.00  0.00    +0.000 OA
ATOM     19  N   UNL     1       2.471   7.214  18.644  0.00  0.00    +0.000 N 
ATOM     20  H   UNL     1       2.363   7.416  17.659  0.00  0.00    +0.000 HD
BRANCH  17  30
ATOM     21  C   UNL     1       1.683   3.346  17.950  0.00  0.00    +0.000 C 
ATOM     22  C   UNL     1       2.987   3.955  17.585  0.00  0.00    +0.000 A 
ATOM     23  N   UNL     1       3.781   3.336  16.655  0.00  0.00    +0.000 NA
ATOM     24  C   UNL     1       4.857   4.078  16.568  0.00  0.00    +0.000 A 
ATOM     25  C   UNL     1       6.035   3.887  15.793  0.00  0.00    +0.000 A 
ATOM     26  C   UNL     1       7.038   4.784  15.864  0.00  0.00    +0.000 A 
ATOM     27  C   UNL     1       6.951   5.942  16.737  0.00  0.00    +0.000 A 
ATOM     28  C   UNL     1       5.848   6.115  17.489  0.00  0.00    +0.000 A 
ATOM     29  N   UNL     1       4.791   5.197  17.404  0.00  0.00    +0.000 N 
ATOM     30  C   UNL     1       3.566   5.134  18.055  0.00  0.00    +0.000 A 
ENDBRANCH  17  30
ENDBRANCH   1  19
TORSDOF 4
ENDMDL
MODEL 8
REMARK VINA RESULT:      -7.5      6.785      8.773
REMARK  Name = 
REMARK  7 active torsions:
REMARK  status: ('A' for Active; 'I' for Inactive)
REMARK    1  A    between atoms: C_1  and  C_2
REMARK    2  A    between atoms: C_10  and  C_11
REMARK    3  A    between atoms: N_13  and  N_14
REMARK    4  A    between atoms: C_15  and  C_16
REMARK    5  A    between atoms: C_18  and  C_19
REMARK    6  A    between atoms: N_20  and  C_21
REMARK    7  A    between atoms: C_28  and  C_29
REMARK                            x       y       z     vdW  Elec       q    Type
REMARK                         _______ _______ _______ _____ _____    ______ ____
ROOT
ATOM      1  N   UNL     1       1.490   9.010  18.059  0.00  0.00    +0.000 NA
ATOM      2  C   UNL     1       2.093  10.140  18.234  0.00  0.00    +0.000 C 
ENDROOT
BRANCH   2   3
ATOM      3  C   UNL     1       1.339  11.276  18.745  0.00  0.00    +0.000 A 
ATOM      4  C   UNL     1       1.309  12.591  18.232  0.00  0.00    +0.000 A 
ATOM      5  C   UNL     1       0.482  13.361  19.023  0.00  0.00    +0.000 A 
ATOM      6  C   UNL     1       0.275  14.835  18.884  0.00  0.00    +0.000 C 
ATOM      7  N   UNL     1      -0.032  12.552  20.041  0.00  0.00    +0.000 N 
ATOM      8  C   UNL     1       0.482  11.259  19.845  0.00  0.00    +0.000 A 
ATOM      9  C   UNL     1       0.095  10.043  20.626  0.00  0.00    +0.000 C 
BRANCH   7  10
ATOM     10  C   UNL     1      -0.904  12.981  21.100  0.00  0.00    +0.000 A 
ATOM     11  C   UNL     1      -0.381  13.435  22.321  0.00  0.00    +0.000 A 
ATOM     12  C   UNL     1      -1.229  13.813  23.369  0.00  0.00    +0.000 A 
ATOM     13  C   UNL     1      -2.608  13.775  23.192  0.00  0.00    +0.000 A 
ATOM     14 BR   UNL     1      -3.753  14.291  24.602  0.00  0.00    +0.000 Br
ATOM     15  C   UNL     1      -3.145  13.353  21.980  0.00  0.00    +0.000 A 
ATOM     16  C   UNL     1      -2.297  12.939  20.943  0.00  0.00    +0.000 A 
ENDBRANCH   7  10
ENDBRANCH   2   3
BRANCH   1  19
ATOM     17  C   UNL     1       2.652   6.963  18.405  0.00  0.00    +0.000 C 
ATOM     18  O   UNL     1       2.385   6.973  19.606  0.00  0.00    +0.000 OA
ATOM     19  N   UNL     1       2.233   7.973  17.546  0.00  0.00    +0.000 N 
ATOM     20  H   UNL     1       2.307   7.867  16.543  0.00  0.00    +0.000 HD
BRANCH  17  30
ATOM     21  C   UNL     1       1.518   4.039  17.950  0.00  0.00    +0.000 C 
ATOM     22  C   UNL     1       2.871   4.562  17.636  0.00  0.00    +0.000 A 
ATOM     23  N   UNL     1       3.805   3.722  17.085  0.00  0.00    +0.000 NA
ATOM     24  C   UNL     1       4.888   4.447  16.954  0.00  0.00    +0.000 A 
ATOM     25  C   UNL     1       6.179   4.080  16.481  0.00  0.00    +0.000 A 
ATOM     26  C   UNL     1       7.164   4.997  16.438  0.00  0.00    +0.000 A 
ATOM     27  C   UNL     1       6.943   6.361  16.886  0.00  0.00    +0.000 A 
ATOM     28  C   UNL     1       5.730   6.708  17.356  0.00  0.00    +0.000 A 
ATOM     29  N   UNL     1       4.693   5.764  17.384  0.00  0.00    +0.000 N 
ATOM     30  C   UNL     1       3.374   5.851  17.811  0.00  0.00    +0.000 A 
ENDBRANCH  17  30
ENDBRANCH   1  19
TORSDOF 4
ENDMDL
MODEL 9
REMARK VINA RESULT:      -7.5      7.503      9.410
REMARK  Name = 
REMARK  7 active torsions:
REMARK  status: ('A' for Active; 'I' for Inactive)
REMARK    1  A    between atoms: C_1  and  C_2
REMARK    2  A    between atoms: C_10  and  C_11
REMARK    3  A    between atoms: N_13  and  N_14
REMARK    4  A    between atoms: C_15  and  C_16
REMARK    5  A    between atoms: C_18  and  C_19
REMARK    6  A    between atoms: N_20  and  C_21
REMARK    7  A    between atoms: C_28  and  C_29
REMARK                            x       y       z     vdW  Elec       q    Type
REMARK                         _______ _______ _______ _____ _____    ______ ____
ROOT
ATOM      1  N   UNL     1       1.556   8.923  20.035  0.00  0.00    +0.000 NA
ATOM      2  C   UNL     1       0.742   9.275  20.976  0.00  0.00    +0.000 C 
ENDROOT
BRANCH   2   3
ATOM      3  C   UNL     1       0.107  10.584  20.914  0.00  0.00    +0.000 A 
ATOM      4  C   UNL     1       0.113  11.493  19.834  0.00  0.00    +0.000 A 
ATOM      5  C   UNL     1      -0.592  12.622  20.196  0.00  0.00    +0.000 A 
ATOM      6  C   UNL     1      -0.719  13.865  19.376  0.00  0.00    +0.000 C 
ATOM      7  N   UNL     1      -1.063  12.447  21.501  0.00  0.00    +0.000 N 
ATOM      8  C   UNL     1      -0.649  11.173  21.926  0.00  0.00    +0.000 A 
ATOM      9  C   UNL     1      -1.040  10.518  23.212  0.00  0.00    +0.000 C 
BRANCH   7  10
ATOM     10  C   UNL     1      -1.811  13.409  22.263  0.00  0.00    +0.000 A 
ATOM     11  C   UNL     1      -1.168  14.250  23.187  0.00  0.00    +0.000 A 
ATOM     12  C   UNL     1      -1.900  15.157  23.962  0.00  0.00    +0.000 A 
ATOM     13  C   UNL     1      -3.276  15.259  23.793  0.00  0.00    +0.000 A 
ATOM     14 BR   UNL     1      -4.264  16.488  24.833  0.00  0.00    +0.000 Br
ATOM     15  C   UNL     1      -3.928  14.454  22.864  0.00  0.00    +0.000 A 
ATOM     16  C   UNL     1      -3.201  13.518  22.115  0.00  0.00    +0.000 A 
ENDBRANCH   7  10
ENDBRANCH   2   3
BRANCH   1  19
ATOM     17  C   UNL     1       2.516   7.013  18.991  0.00  0.00    +0.000 C 
ATOM     18  O   UNL     1       2.310   7.477  17.870  0.00  0.00    +0.000 OA
ATOM     19  N   UNL     1       2.155   7.690  20.150  0.00  0.00    +0.000 N 
ATOM     20  H   UNL     1       2.483   7.384  21.057  0.00  0.00    +0.000 HD
BRANCH  17  30
ATOM     21  C   UNL     1       5.046   6.047  17.345  0.00  0.00    +0.000 C 
ATOM     22  C   UNL     1       4.309   5.324  18.411  0.00  0.00    +0.000 A 
ATOM     23  N   UNL     1       4.716   4.066  18.774  0.00  0.00    +0.000 NA
ATOM     24  C   UNL     1       3.869   3.681  19.697  0.00  0.00    +0.000 A 
ATOM     25  C   UNL     1       3.782   2.444  20.395  0.00  0.00    +0.000 A 
ATOM     26  C   UNL     1       2.813   2.256  21.310  0.00  0.00    +0.000 A 
ATOM     27  C   UNL     1       1.833   3.291  21.591  0.00  0.00    +0.000 A 
ATOM     28  C   UNL     1       1.897   4.455  20.918  0.00  0.00    +0.000 A 
ATOM     29  N   UNL     1       2.917   4.665  19.978  0.00  0.00    +0.000 N 
ATOM     30  C   UNL     1       3.210   5.747  19.158  0.00  0.00    +0.000 A 
ENDBRANCH  17  30
ENDBRANCH   1  19
TORSDOF 4
ENDMDL
