MODEL 1
REMARK VINA RESULT:      -6.9      0.000      0.000
REMARK  Name = 
REMARK  8 active torsions:
REMARK  status: ('A' for Active; 'I' for Inactive)
REMARK    1  A    between atoms: C_2  and  O_3
REMARK    2  A    between atoms: C_2  and  C_4
REMARK    3  A    between atoms: C_8  and  C_9
REMARK    4  A    between atoms: C_9  and  C_10
REMARK    5  A    between atoms: C_10  and  N_11
REMARK    6  A    between atoms: N_11  and  N_12
REMARK    7  A    between atoms: C_13  and  C_14
REMARK    8  A    between atoms: C_18  and  N_19
REMARK                            x       y       z     vdW  Elec       q    Type
REMARK                         _______ _______ _______ _____ _____    ______ ____
ROOT
ATOM      1  N   UNL     1       2.183   6.675  20.456  0.00  0.00    +0.000 N 
ATOM      2  H   UNL     1       1.885   5.696  20.463  0.00  0.00    +0.000 HD
ENDROOT
BRANCH   1   3
ATOM      3  N   UNL     1       1.273   7.482  21.056  0.00  0.00    +0.000 NA
ATOM      4  C   UNL     1       1.467   8.751  20.878  0.00  0.00    +0.000 C 
BRANCH   4   5
ATOM      5  C   UNL     1       0.583   9.745  21.452  0.00  0.00    +0.000 A 
ATOM      6  S   UNL     1      -0.522   9.275  22.680  0.00  0.00    +0.000 S 
ATOM      7  C   UNL     1      -1.001  10.886  22.967  0.00  0.00    +0.000 A 
ATOM      8  C   UNL     1      -0.350  11.773  22.141  0.00  0.00    +0.000 A 
ATOM      9  C   UNL     1       0.526  11.112  21.218  0.00  0.00    +0.000 A 
BRANCH   9  10
ATOM     10  N   UNL     1       1.236  11.806  20.190  0.00  0.00    +0.000 N 
ATOM     11  C   UNL     1       1.305  11.461  18.854  0.00  0.00    +0.000 A 
ATOM     12  C   UNL     1       2.096  12.371  18.190  0.00  0.00    +0.000 A 
ATOM     13  C   UNL     1       2.520  13.323  19.139  0.00  0.00    +0.000 A 
ATOM     14  C   UNL     1       1.949  12.979  20.345  0.00  0.00    +0.000 A 
ENDBRANCH   9  10
ENDBRANCH   4   5
ENDBRANCH   1   3
BRANCH   1  15
ATOM     15  C   UNL     1       2.490   7.074  19.078  0.00  0.00    +0.000 C 
BRANCH  15  16
ATOM     16  C   UNL     1       3.025   5.900  18.260  0.00  0.00    +0.000 C 
BRANCH  16  21
ATOM     17  C   UNL     1       6.665   6.041  16.790  0.00  0.00    +0.000 C 
ATOM     18  C   UNL     1       7.021   4.616  17.222  0.00  0.00    +0.000 C 
ATOM     19  N   UNL     1       6.481   4.252  18.533  0.00  0.00    +0.000 NA
ATOM     20  C   UNL     1       5.028   4.411  18.583  0.00  0.00    +0.000 C 
ATOM     21  C   UNL     1       4.570   5.838  18.238  0.00  0.00    +0.000 C 
ATOM     22  C   UNL     1       5.157   6.288  16.886  0.00  0.00    +0.000 C 
ATOM     23  H   UNL     1       6.907   4.875  19.231  0.00  0.00    +0.000 HD
BRANCH  17  25
ATOM     24  O   UNL     1       7.528   8.257  17.316  0.00  0.00    +0.000 OA
ATOM     25  C   UNL     1       7.438   7.070  17.599  0.00  0.00    +0.000 C 
BRANCH  25  26
ATOM     26  O   UNL     1       8.068   6.547  18.674  0.00  0.00    +0.000 OA
ATOM     27  H   UNL     1       7.541   6.545  19.495  0.00  0.00    +0.000 HD
ENDBRANCH  25  26
ENDBRANCH  17  25
ENDBRANCH  16  21
ENDBRANCH  15  16
ENDBRANCH   1  15
TORSDOF 8
ENDMDL
MODEL 2
REMARK VINA RESULT:      -6.9      3.926      8.502
REMARK  Name = 
REMARK  8 active torsions:
REMARK  status: ('A' for Active; 'I' for Inactive)
REMARK    1  A    between atoms: C_2  and  O_3
REMARK    2  A    between atoms: C_2  and  C_4
REMARK    3  A    between atoms: C_8  and  C_9
REMARK    4  A    between atoms: C_9  and  C_10
REMARK    5  A    between atoms: C_10  and  N_11
REMARK    6  A    between atoms: N_11  and  N_12
REMARK    7  A    between atoms: C_13  and  C_14
REMARK    8  A    between atoms: C_18  and  N_19
REMARK                            x       y       z     vdW  Elec       q    Type
REMARK                         _______ _______ _______ _____ _____    ______ ____
ROOT
ATOM      1  N   UNL     1       2.001   8.113  19.301  0.00  0.00    +0.000 N 
ATOM      2  H   UNL     1       2.351   8.687  20.074  0.00  0.00    +0.000 HD
ENDROOT
BRANCH   1   3
ATOM      3  N   UNL     1       2.773   7.015  19.101  0.00  0.00    +0.000 NA
ATOM      4  C   UNL     1       2.966   6.704  17.858  0.00  0.00    +0.000 C 
BRANCH   4   5
ATOM      5  C   UNL     1       3.769   5.560  17.474  0.00  0.00    +0.000 A 
ATOM      6  S   UNL     1       5.085   5.784  16.393  0.00  0.00    +0.000 S 
ATOM      7  C   UNL     1       5.616   4.176  16.591  0.00  0.00    +0.000 A 
ATOM      8  C   UNL     1       4.807   3.469  17.450  0.00  0.00    +0.000 A 
ATOM      9  C   UNL     1       3.699   4.248  17.919  0.00  0.00    +0.000 A 
BRANCH   9  10
ATOM     10  N   UNL     1       2.663   3.706  18.741  0.00  0.00    +0.000 N 
ATOM     11  C   UNL     1       2.703   3.525  20.110  0.00  0.00    +0.000 A 
ATOM     12  C   UNL     1       1.517   2.965  20.529  0.00  0.00    +0.000 A 
ATOM     13  C   UNL     1       0.706   2.807  19.386  0.00  0.00    +0.000 A 
ATOM     14  C   UNL     1       1.414   3.303  18.312  0.00  0.00    +0.000 A 
ENDBRANCH   9  10
ENDBRANCH   4   5
ENDBRANCH   1   3
BRANCH   1  15
ATOM     15  C   UNL     1       1.863   8.949  18.105  0.00  0.00    +0.000 C 
BRANCH  15  16
ATOM     16  C   UNL     1       0.961  10.156  18.365  0.00  0.00    +0.000 C 
BRANCH  16  21
ATOM     17  C   UNL     1      -0.926  10.685  21.768  0.00  0.00    +0.000 C 
ATOM     18  C   UNL     1      -0.391  12.104  21.980  0.00  0.00    +0.000 C 
ATOM     19  N   UNL     1       1.006  12.266  21.570  0.00  0.00    +0.000 NA
ATOM     20  C   UNL     1       1.207  11.891  20.171  0.00  0.00    +0.000 C 
ATOM     21  C   UNL     1       0.768  10.447  19.870  0.00  0.00    +0.000 C 
ATOM     22  C   UNL     1      -0.684  10.210  20.333  0.00  0.00    +0.000 C 
ATOM     23  H   UNL     1       1.580  11.654  22.164  0.00  0.00    +0.000 HD
BRANCH  17  25
ATOM     24  O   UNL     1       0.631   9.959  23.494  0.00  0.00    +0.000 OA
ATOM     25  C   UNL     1      -0.326   9.714  22.773  0.00  0.00    +0.000 C 
BRANCH  25  26
ATOM     26  O   UNL     1      -0.933   8.508  22.783  0.00  0.00    +0.000 OA
ATOM     27  H   UNL     1      -0.395   7.782  23.149  0.00  0.00    +0.000 HD
ENDBRANCH  25  26
ENDBRANCH  17  25
ENDBRANCH  16  21
ENDBRANCH  15  16
ENDBRANCH   1  15
TORSDOF 8
ENDMDL
MODEL 3
REMARK VINA RESULT:      -6.9      1.107      1.166
REMARK  Name = 
REMARK  8 active torsions:
REMARK  status: ('A' for Active; 'I' for Inactive)
REMARK    1  A    between atoms: C_2  and  O_3
REMARK    2  A    between atoms: C_2  and  C_4
REMARK    3  A    between atoms: C_8  and  C_9
REMARK    4  A    between atoms: C_9  and  C_10
REMARK    5  A    between atoms: C_10  and  N_11
REMARK    6  A    between atoms: N_11  and  N_12
REMARK    7  A    between atoms: C_13  and  C_14
REMARK    8  A    between atoms: C_18  and  N_19
REMARK                            x       y       z     vdW  Elec       q    Type
REMARK                         _______ _______ _______ _____ _____    ______ ____
ROOT
ATOM      1  N   UNL     1       2.265   6.889  20.672  0.00  0.00    +0.000 N 
ATOM      2  H   UNL     1       2.227   6.212  21.440  0.00  0.00    +0.000 HD
ENDROOT
BRANCH   1   3
ATOM      3  N   UNL     1       1.279   7.815  20.770  0.00  0.00    +0.000 NA
ATOM      4  C   UNL     1       1.524   8.790  21.588  0.00  0.00    +0.000 C 
BRANCH   4   5
ATOM      5  C   UNL     1       0.573   9.862  21.804  0.00  0.00    +0.000 A 
ATOM      6  S   UNL     1      -0.554   9.735  23.094  0.00  0.00    +0.000 S 
ATOM      7  C   UNL     1      -1.118  11.326  22.854  0.00  0.00    +0.000 A 
ATOM      8  C   UNL     1      -0.479  11.947  21.806  0.00  0.00    +0.000 A 
ATOM      9  C   UNL     1       0.461  11.082  21.154  0.00  0.00    +0.000 A 
BRANCH   9  10
ATOM     10  N   UNL     1       1.176  11.462  19.976  0.00  0.00    +0.000 N 
ATOM     11  C   UNL     1       1.294  10.733  18.809  0.00  0.00    +0.000 A 
ATOM     12  C   UNL     1       2.072  11.431  17.913  0.00  0.00    +0.000 A 
ATOM     13  C   UNL     1       2.437  12.642  18.537  0.00  0.00    +0.000 A 
ATOM     14  C   UNL     1       1.845  12.654  19.781  0.00  0.00    +0.000 A 
ENDBRANCH   9  10
ENDBRANCH   4   5
ENDBRANCH   1   3
BRANCH   1  15
ATOM     15  C   UNL     1       2.257   6.168  19.395  0.00  0.00    +0.000 C 
BRANCH  15  16
ATOM     16  C   UNL     1       3.085   6.894  18.336  0.00  0.00    +0.000 C 
BRANCH  16  21
ATOM     17  C   UNL     1       5.799   5.549  15.836  0.00  0.00    +0.000 C 
ATOM     18  C   UNL     1       5.343   4.091  15.940  0.00  0.00    +0.000 C 
ATOM     19  N   UNL     1       4.943   3.701  17.294  0.00  0.00    +0.000 NA
ATOM     20  C   UNL     1       3.885   4.565  17.816  0.00  0.00    +0.000 C 
ATOM     21  C   UNL     1       4.277   6.053  17.825  0.00  0.00    +0.000 C 
ATOM     22  C   UNL     1       4.757   6.499  16.429  0.00  0.00    +0.000 C 
ATOM     23  H   UNL     1       5.769   3.784  17.901  0.00  0.00    +0.000 HD
BRANCH  17  25
ATOM     24  O   UNL     1       7.734   6.823  16.588  0.00  0.00    +0.000 OA
ATOM     25  C   UNL     1       7.156   5.749  16.493  0.00  0.00    +0.000 C 
BRANCH  25  26
ATOM     26  O   UNL     1       7.707   4.602  16.949  0.00  0.00    +0.000 OA
ATOM     27  H   UNL     1       7.068   3.955  17.302  0.00  0.00    +0.000 HD
ENDBRANCH  25  26
ENDBRANCH  17  25
ENDBRANCH  16  21
ENDBRANCH  15  16
ENDBRANCH   1  15
TORSDOF 8
ENDMDL
MODEL 4
REMARK VINA RESULT:      -6.9      2.121      3.265
REMARK  Name = 
REMARK  8 active torsions:
REMARK  status: ('A' for Active; 'I' for Inactive)
REMARK    1  A    between atoms: C_2  and  O_3
REMARK    2  A    between atoms: C_2  and  C_4
REMARK    3  A    between atoms: C_8  and  C_9
REMARK    4  A    between atoms: C_9  and  C_10
REMARK    5  A    between atoms: C_10  and  N_11
REMARK    6  A    between atoms: N_11  and  N_12
REMARK    7  A    between atoms: C_13  and  C_14
REMARK    8  A    between atoms: C_18  and  N_19
REMARK                            x       y       z     vdW  Elec       q    Type
REMARK                         _______ _______ _______ _____ _____    ______ ____
ROOT
ATOM      1  N   UNL     1       2.164   5.236  20.955  0.00  0.00    +0.000 N 
ATOM      2  H   UNL     1       1.343   4.797  21.382  0.00  0.00    +0.000 HD
ENDROOT
BRANCH   1   3
ATOM      3  N   UNL     1       1.813   6.199  20.067  0.00  0.00    +0.000 NA
ATOM      4  C   UNL     1       1.979   7.415  20.486  0.00  0.00    +0.000 C 
BRANCH   4   5
ATOM      5  C   UNL     1       1.654   8.558  19.658  0.00  0.00    +0.000 A 
ATOM      6  S   UNL     1       2.282   8.642  18.061  0.00  0.00    +0.000 S 
ATOM      7  C   UNL     1       1.361  10.029  17.694  0.00  0.00    +0.000 A 
ATOM      8  C   UNL     1       0.597  10.438  18.762  0.00  0.00    +0.000 A 
ATOM      9  C   UNL     1       0.807   9.625  19.924  0.00  0.00    +0.000 A 
BRANCH   9  10
ATOM     10  N   UNL     1       0.206   9.909  21.189  0.00  0.00    +0.000 N 
ATOM     11  C   UNL     1       0.043   9.032  22.243  0.00  0.00    +0.000 A 
ATOM     12  C   UNL     1      -0.590   9.679  23.280  0.00  0.00    +0.000 A 
ATOM     13  C   UNL     1      -0.815  11.008  22.863  0.00  0.00    +0.000 A 
ATOM     14  C   UNL     1      -0.284  11.134  21.598  0.00  0.00    +0.000 A 
ENDBRANCH   9  10
ENDBRANCH   4   5
ENDBRANCH   1   3
BRANCH   1  15
ATOM     15  C   UNL     1       3.016   4.195  20.372  0.00  0.00    +0.000 C 
BRANCH  15  16
ATOM     16  C   UNL     1       3.048   4.285  18.846  0.00  0.00    +0.000 C 
BRANCH  16  21
ATOM     17  C   UNL     1       6.472   5.618  17.459  0.00  0.00    +0.000 C 
ATOM     18  C   UNL     1       6.351   4.884  16.121  0.00  0.00    +0.000 C 
ATOM     19  N   UNL     1       5.769   3.546  16.241  0.00  0.00    +0.000 NA
ATOM     20  C   UNL     1       4.454   3.583  16.880  0.00  0.00    +0.000 C 
ATOM     21  C   UNL     1       4.483   4.236  18.272  0.00  0.00    +0.000 C 
ATOM     22  C   UNL     1       5.137   5.631  18.207  0.00  0.00    +0.000 C 
ATOM     23  H   UNL     1       6.402   2.979  16.819  0.00  0.00    +0.000 HD
BRANCH  17  25
ATOM     24  O   UNL     1       7.838   5.366  19.461  0.00  0.00    +0.000 OA
ATOM     25  C   UNL     1       7.573   5.015  18.319  0.00  0.00    +0.000 C 
BRANCH  25  26
ATOM     26  O   UNL     1       8.280   4.052  17.689  0.00  0.00    +0.000 OA
ATOM     27  H   UNL     1       8.312   3.197  18.157  0.00  0.00    +0.000 HD
ENDBRANCH  25  26
ENDBRANCH  17  25
ENDBRANCH  16  21
ENDBRANCH  15  16
ENDBRANCH   1  15
TORSDOF 8
ENDMDL
MODEL 5
REMARK VINA RESULT:      -6.9      2.087      2.274
REMARK  Name = 
REMARK  8 active torsions:
REMARK  status: ('A' for Active; 'I' for Inactive)
REMARK    1  A    between atoms: C_2  and  O_3
REMARK    2  A    between atoms: C_2  and  C_4
REMARK    3  A    between atoms: C_8  and  C_9
REMARK    4  A    between atoms: C_9  and  C_10
REMARK    5  A    between atoms: C_10  and  N_11
REMARK    6  A    between atoms: N_11  and  N_12
REMARK    7  A    between atoms: C_13  and  C_14
REMARK    8  A    between atoms: C_18  and  N_19
REMARK                            x       y       z     vdW  Elec       q    Type
REMARK                         _______ _______ _______ _____ _____    ______ ____
ROOT
ATOM      1  N   UNL     1       2.869   8.436  17.646  0.00  0.00    +0.000 N 
ATOM      2  H   UNL     1       3.723   8.880  17.995  0.00  0.00    +0.000 HD
ENDROOT
BRANCH   1   3
ATOM      3  N   UNL     1       1.864   9.333  17.487  0.00  0.00    +0.000 NA
ATOM      4  C   UNL     1       1.302   9.724  18.588  0.00  0.00    +0.000 C 
BRANCH   4   5
ATOM      5  C   UNL     1       0.215  10.682  18.591  0.00  0.00    +0.000 A 
ATOM      6  S   UNL     1      -1.385  10.135  18.283  0.00  0.00    +0.000 S 
ATOM      7  C   UNL     1      -2.053  11.661  18.645  0.00  0.00    +0.000 A 
ATOM      8  C   UNL     1      -1.087  12.581  18.982  0.00  0.00    +0.000 A 
ATOM      9  C   UNL     1       0.236  12.035  18.894  0.00  0.00    +0.000 A 
BRANCH   9  10
ATOM     10  N   UNL     1       1.414  12.821  19.095  0.00  0.00    +0.000 N 
ATOM     11  C   UNL     1       1.959  13.198  20.307  0.00  0.00    +0.000 A 
ATOM     12  C   UNL     1       3.083  13.959  20.082  0.00  0.00    +0.000 A 
ATOM     13  C   UNL     1       3.253  14.046  18.685  0.00  0.00    +0.000 A 
ATOM     14  C   UNL     1       2.243  13.309  18.105  0.00  0.00    +0.000 A 
ENDBRANCH   9  10
ENDBRANCH   4   5
ENDBRANCH   1   3
BRANCH   1  15
ATOM     15  C   UNL     1       2.513   7.319  18.527  0.00  0.00    +0.000 C 
BRANCH  15  16
ATOM     16  C   UNL     1       3.065   5.994  18.004  0.00  0.00    +0.000 C 
BRANCH  16  21
ATOM     17  C   UNL     1       6.804   5.999  16.801  0.00  0.00    +0.000 C 
ATOM     18  C   UNL     1       7.100   4.593  17.330  0.00  0.00    +0.000 C 
ATOM     19  N   UNL     1       6.459   4.308  18.615  0.00  0.00    +0.000 NA
ATOM     20  C   UNL     1       5.010   4.492  18.550  0.00  0.00    +0.000 C 
ATOM     21  C   UNL     1       4.606   5.906  18.100  0.00  0.00    +0.000 C 
ATOM     22  C   UNL     1       5.299   6.275  16.772  0.00  0.00    +0.000 C 
ATOM     23  H   UNL     1       6.845   4.960  19.310  0.00  0.00    +0.000 HD
BRANCH  17  25
ATOM     24  O   UNL     1       7.657   8.229  17.280  0.00  0.00    +0.000 OA
ATOM     25  C   UNL     1       7.537   7.057  17.610  0.00  0.00    +0.000 C 
BRANCH  25  26
ATOM     26  O   UNL     1       8.092   6.578  18.744  0.00  0.00    +0.000 OA
ATOM     27  H   UNL     1       9.058   6.449  18.703  0.00  0.00    +0.000 HD
ENDBRANCH  25  26
ENDBRANCH  17  25
ENDBRANCH  16  21
ENDBRANCH  15  16
ENDBRANCH   1  15
TORSDOF 8
ENDMDL
MODEL 6
REMARK VINA RESULT:      -6.8      2.554      3.270
REMARK  Name = 
REMARK  8 active torsions:
REMARK  status: ('A' for Active; 'I' for Inactive)
REMARK    1  A    between atoms: C_2  and  O_3
REMARK    2  A    between atoms: C_2  and  C_4
REMARK    3  A    between atoms: C_8  and  C_9
REMARK    4  A    between atoms: C_9  and  C_10
REMARK    5  A    between atoms: C_10  and  N_11
REMARK    6  A    between atoms: N_11  and  N_12
REMARK    7  A    between atoms: C_13  and  C_14
REMARK    8  A    between atoms: C_18  and  N_19
REMARK                            x       y       z     vdW  Elec       q    Type
REMARK                         _______ _______ _______ _____ _____    ______ ____
ROOT
ATOM      1  N   UNL     1       1.892   8.065  19.177  0.00  0.00    +0.000 N 
ATOM      2  H   UNL     1       1.003   7.614  19.411  0.00  0.00    +0.000 HD
ENDROOT
BRANCH   1   3
ATOM      3  N   UNL     1       1.722   9.368  18.843  0.00  0.00    +0.000 NA
ATOM      4  C   UNL     1       0.768   9.975  19.477  0.00  0.00    +0.000 C 
BRANCH   4   5
ATOM      5  C   UNL     1       0.459  11.370  19.236  0.00  0.00    +0.000 A 
ATOM      6  S   UNL     1       1.571  12.575  19.750  0.00  0.00    +0.000 S 
ATOM      7  C   UNL     1       0.689  13.817  18.985  0.00  0.00    +0.000 A 
ATOM      8  C   UNL     1      -0.439  13.339  18.359  0.00  0.00    +0.000 A 
ATOM      9  C   UNL     1      -0.611  11.929  18.552  0.00  0.00    +0.000 A 
BRANCH   9  10
ATOM     10  N   UNL     1      -1.760  11.216  18.087  0.00  0.00    +0.000 N 
ATOM     11  C   UNL     1      -1.766  10.089  17.289  0.00  0.00    +0.000 A 
ATOM     12  C   UNL     1      -3.068   9.710  17.048  0.00  0.00    +0.000 A 
ATOM     13  C   UNL     1      -3.898  10.622  17.732  0.00  0.00    +0.000 A 
ATOM     14  C   UNL     1      -3.074  11.509  18.391  0.00  0.00    +0.000 A 
ENDBRANCH   9  10
ENDBRANCH   4   5
ENDBRANCH   1   3
BRANCH   1  15
ATOM     15  C   UNL     1       2.568   7.284  18.136  0.00  0.00    +0.000 C 
BRANCH  15  16
ATOM     16  C   UNL     1       3.124   5.973  18.690  0.00  0.00    +0.000 C 
BRANCH  16  21
ATOM     17  C   UNL     1       6.607   6.131  16.882  0.00  0.00    +0.000 C 
ATOM     18  C   UNL     1       6.919   4.647  17.097  0.00  0.00    +0.000 C 
ATOM     19  N   UNL     1       6.487   4.145  18.403  0.00  0.00    +0.000 NA
ATOM     20  C   UNL     1       5.057   4.363  18.621  0.00  0.00    +0.000 C 
ATOM     21  C   UNL     1       4.653   5.842  18.502  0.00  0.00    +0.000 C 
ATOM     22  C   UNL     1       5.133   6.434  17.162  0.00  0.00    +0.000 C 
ATOM     23  H   UNL     1       7.014   4.653  19.124  0.00  0.00    +0.000 HD
BRANCH  17  25
ATOM     24  O   UNL     1       8.059   6.661  18.765  0.00  0.00    +0.000 OA
ATOM     25  C   UNL     1       7.514   7.012  17.727  0.00  0.00    +0.000 C 
BRANCH  25  26
ATOM     26  O   UNL     1       7.649   8.265  17.242  0.00  0.00    +0.000 OA
ATOM     27  H   UNL     1       8.157   8.330  16.412  0.00  0.00    +0.000 HD
ENDBRANCH  25  26
ENDBRANCH  17  25
ENDBRANCH  16  21
ENDBRANCH  15  16
ENDBRANCH   1  15
TORSDOF 8
ENDMDL
MODEL 7
REMARK VINA RESULT:      -6.8      3.388      3.988
REMARK  Name = 
REMARK  8 active torsions:
REMARK  status: ('A' for Active; 'I' for Inactive)
REMARK    1  A    between atoms: C_2  and  O_3
REMARK    2  A    between atoms: C_2  and  C_4
REMARK    3  A    between atoms: C_8  and  C_9
REMARK    4  A    between atoms: C_9  and  C_10
REMARK    5  A    between atoms: C_10  and  N_11
REMARK    6  A    between atoms: N_11  and  N_12
REMARK    7  A    between atoms: C_13  and  C_14
REMARK    8  A    between atoms: C_18  and  N_19
REMARK                            x       y       z     vdW  Elec       q    Type
REMARK                         _______ _______ _______ _____ _____    ______ ____
ROOT
ATOM      1  N   UNL     1       1.924   8.695  18.256  0.00  0.00    +0.000 N 
ATOM      2  H   UNL     1       2.699   9.291  17.949  0.00  0.00    +0.000 HD
ENDROOT
BRANCH   1   3
ATOM      3  N   UNL     1       1.002   9.394  18.964  0.00  0.00    +0.000 NA
ATOM      4  C   UNL     1       1.172   9.376  20.249  0.00  0.00    +0.000 C 
BRANCH   4   5
ATOM      5  C   UNL     1       0.275  10.075  21.146  0.00  0.00    +0.000 A 
ATOM      6  S   UNL     1      -0.331   9.259  22.530  0.00  0.00    +0.000 S 
ATOM      7  C   UNL     1      -1.062  10.675  23.136  0.00  0.00    +0.000 A 
ATOM      8  C   UNL     1      -0.867  11.752  22.303  0.00  0.00    +0.000 A 
ATOM      9  C   UNL     1      -0.144  11.398  21.117  0.00  0.00    +0.000 A 
BRANCH   9  10
ATOM     10  N   UNL     1       0.095  12.319  20.050  0.00  0.00    +0.000 N 
ATOM     11  C   UNL     1      -0.797  12.691  19.063  0.00  0.00    +0.000 A 
ATOM     12  C   UNL     1      -0.188  13.587  18.214  0.00  0.00    +0.000 A 
ATOM     13  C   UNL     1       1.120  13.793  18.697  0.00  0.00    +0.000 A 
ATOM     14  C   UNL     1       1.256  13.037  19.842  0.00  0.00    +0.000 A 
ENDBRANCH   9  10
ENDBRANCH   4   5
ENDBRANCH   1   3
BRANCH   1  15
ATOM     15  C   UNL     1       2.463   7.543  18.986  0.00  0.00    +0.000 C 
BRANCH  15  16
ATOM     16  C   UNL     1       2.611   6.322  18.079  0.00  0.00    +0.000 C 
BRANCH  16  21
ATOM     17  C   UNL     1       2.856   2.893  19.978  0.00  0.00    +0.000 C 
ATOM     18  C   UNL     1       2.165   2.095  18.870  0.00  0.00    +0.000 C 
ATOM     19  N   UNL     1       1.058   2.816  18.236  0.00  0.00    +0.000 NA
ATOM     20  C   UNL     1       1.492   4.102  17.692  0.00  0.00    +0.000 C 
ATOM     21  C   UNL     1       2.134   5.014  18.751  0.00  0.00    +0.000 C 
ATOM     22  C   UNL     1       3.274   4.280  19.484  0.00  0.00    +0.000 C 
ATOM     23  H   UNL     1       0.342   2.983  18.954  0.00  0.00    +0.000 HD
BRANCH  17  25
ATOM     24  O   UNL     1       2.387   3.139  22.356  0.00  0.00    +0.000 OA
ATOM     25  C   UNL     1       1.974   2.997  21.213  0.00  0.00    +0.000 C 
BRANCH  25  26
ATOM     26  O   UNL     1       0.655   2.884  20.942  0.00  0.00    +0.000 OA
ATOM     27  H   UNL     1       0.066   3.078  21.695  0.00  0.00    +0.000 HD
ENDBRANCH  25  26
ENDBRANCH  17  25
ENDBRANCH  16  21
ENDBRANCH  15  16
ENDBRANCH   1  15
TORSDOF 8
ENDMDL
MODEL 8
REMARK VINA RESULT:      -6.7      5.249      8.593
REMARK  Name = 
REMARK  8 active torsions:
REMARK  status: ('A' for Active; 'I' for Inactive)
REMARK    1  A    between atoms: C_2  and  O_3
REMARK    2  A    between atoms: C_2  and  C_4
REMARK    3  A    between atoms: C_8  and  C_9
REMARK    4  A    between atoms: C_9  and  C_10
REMARK    5  A    between atoms: C_10  and  N_11
REMARK    6  A    between atoms: N_11  and  N_12
REMARK    7  A    between atoms: C_13  and  C_14
REMARK    8  A    between atoms: C_18  and  N_19
REMARK                            x       y       z     vdW  Elec       q    Type
REMARK                         _______ _______ _______ _____ _____    ______ ____
ROOT
ATOM      1  N   UNL     1       8.198   8.246  18.195  0.00  0.00    +0.000 N 
ATOM      2  H   UNL     1       9.158   7.904  18.303  0.00  0.00    +0.000 HD
ENDROOT
BRANCH   1   3
ATOM      3  N   UNL     1       7.494   7.495  17.311  0.00  0.00    +0.000 NA
ATOM      4  C   UNL     1       7.133   6.330  17.750  0.00  0.00    +0.000 C 
BRANCH   4   5
ATOM      5  C   UNL     1       6.373   5.409  16.931  0.00  0.00    +0.000 A 
ATOM      6  S   UNL     1       7.109   4.722  15.539  0.00  0.00    +0.000 S 
ATOM      7  C   UNL     1       5.787   3.680  15.265  0.00  0.00    +0.000 A 
ATOM      8  C   UNL     1       4.793   3.853  16.200  0.00  0.00    +0.000 A 
ATOM      9  C   UNL     1       5.100   4.896  17.134  0.00  0.00    +0.000 A 
BRANCH   9  10
ATOM     10  N   UNL     1       4.181   5.333  18.137  0.00  0.00    +0.000 N 
ATOM     11  C   UNL     1       3.391   6.466  18.098  0.00  0.00    +0.000 A 
ATOM     12  C   UNL     1       2.653   6.546  19.257  0.00  0.00    +0.000 A 
ATOM     13  C   UNL     1       2.982   5.418  20.037  0.00  0.00    +0.000 A 
ATOM     14  C   UNL     1       3.888   4.672  19.313  0.00  0.00    +0.000 A 
ENDBRANCH   9  10
ENDBRANCH   4   5
ENDBRANCH   1   3
BRANCH   1  15
ATOM     15  C   UNL     1       8.232   9.670  17.846  0.00  0.00    +0.000 C 
BRANCH  15  16
ATOM     16  C   UNL     1       9.379  10.394  18.550  0.00  0.00    +0.000 C 
BRANCH  16  21
ATOM     17  C   UNL     1      10.042  14.252  18.862  0.00  0.00    +0.000 C 
ATOM     18  C   UNL     1       8.663  14.652  18.329  0.00  0.00    +0.000 C 
ATOM     19  N   UNL     1       8.192  13.799  17.236  0.00  0.00    +0.000 NA
ATOM     20  C   UNL     1       8.157  12.390  17.625  0.00  0.00    +0.000 C 
ATOM     21  C   UNL     1       9.521  11.868  18.106  0.00  0.00    +0.000 C 
ATOM     22  C   UNL     1      10.086  12.766  19.225  0.00  0.00    +0.000 C 
ATOM     23  H   UNL     1       8.843  13.909  16.448  0.00  0.00    +0.000 HD
BRANCH  17  25
ATOM     24  O   UNL     1      12.329  14.374  18.033  0.00  0.00    +0.000 OA
ATOM     25  C   UNL     1      11.139  14.603  17.869  0.00  0.00    +0.000 C 
BRANCH  25  26
ATOM     26  O   UNL     1      10.683  15.239  16.767  0.00  0.00    +0.000 OA
ATOM     27  H   UNL     1      10.499  16.189  16.891  0.00  0.00    +0.000 HD
ENDBRANCH  25  26
ENDBRANCH  17  25
ENDBRANCH  16  21
ENDBRANCH  15  16
ENDBRANCH   1  15
TORSDOF 8
ENDMDL
MODEL 9
REMARK VINA RESULT:      -6.7      3.505      8.185
REMARK  Name = 
REMARK  8 active torsions:
REMARK  status: ('A' for Active; 'I' for Inactive)
REMARK    1  A    between atoms: C_2  and  O_3
REMARK    2  A    between atoms: C_2  and  C_4
REMARK    3  A    between atoms: C_8  and  C_9
REMARK    4  A    between atoms: C_9  and  C_10
REMARK    5  A    between atoms: C_10  and  N_11
REMARK    6  A    between atoms: N_11  and  N_12
REMARK    7  A    between atoms: C_13  and  C_14
REMARK    8  A    between atoms: C_18  and  N_19
REMARK                            x       y       z     vdW  Elec       q    Type
REMARK                         _______ _______ _______ _____ _____    ______ ____
ROOT
ATOM      1  N   UNL     1       2.129   8.354  18.793  0.00  0.00    +0.000 N 
ATOM      2  H   UNL     1       2.929   8.859  19.184  0.00  0.00    +0.000 HD
ENDROOT
BRANCH   1   3
ATOM      3  N   UNL     1       2.508   7.197  18.196  0.00  0.00    +0.000 NA
ATOM      4  C   UNL     1       2.647   6.189  18.999  0.00  0.00    +0.000 C 
BRANCH   4   5
ATOM      5  C   UNL     1       3.045   4.881  18.520  0.00  0.00    +0.000 A 
ATOM      6  S   UNL     1       1.879   3.620  18.458  0.00  0.00    +0.000 S 
ATOM      7  C   UNL     1       2.954   2.568  17.655  0.00  0.00    +0.000 A 
ATOM      8  C   UNL     1       4.183   3.148  17.445  0.00  0.00    +0.000 A 
ATOM      9  C   UNL     1       4.263   4.468  17.998  0.00  0.00    +0.000 A 
BRANCH   9  10
ATOM     10  N   UNL     1       5.468   5.237  17.999  0.00  0.00    +0.000 N 
ATOM     11  C   UNL     1       6.405   5.304  19.011  0.00  0.00    +0.000 A 
ATOM     12  C   UNL     1       7.415   6.162  18.640  0.00  0.00    +0.000 A 
ATOM     13  C   UNL     1       7.105   6.633  17.347  0.00  0.00    +0.000 A 
ATOM     14  C   UNL     1       5.930   6.023  16.962  0.00  0.00    +0.000 A 
ENDBRANCH   9  10
ENDBRANCH   4   5
ENDBRANCH   1   3
BRANCH   1  15
ATOM     15  C   UNL     1       1.386   9.249  17.899  0.00  0.00    +0.000 C 
BRANCH  15  16
ATOM     16  C   UNL     1       1.463  10.701  18.369  0.00  0.00    +0.000 C 
BRANCH  16  21
ATOM     17  C   UNL     1      -0.941  10.908  21.468  0.00  0.00    +0.000 C 
ATOM     18  C   UNL     1      -0.524  12.331  21.846  0.00  0.00    +0.000 C 
ATOM     19  N   UNL     1       0.907  12.586  21.666  0.00  0.00    +0.000 NA
ATOM     20  C   UNL     1       1.336  12.317  20.294  0.00  0.00    +0.000 C 
ATOM     21  C   UNL     1       1.030  10.879  19.842  0.00  0.00    +0.000 C 
ATOM     22  C   UNL     1      -0.459  10.544  20.061  0.00  0.00    +0.000 C 
ATOM     23  H   UNL     1       1.419  11.962  22.302  0.00  0.00    +0.000 HD
BRANCH  17  25
ATOM     24  O   UNL     1       0.068  10.187  23.565  0.00  0.00    +0.000 OA
ATOM     25  C   UNL     1      -0.445   9.898  22.492  0.00  0.00    +0.000 C 
BRANCH  25  26
ATOM     26  O   UNL     1      -0.590   8.615  22.095  0.00  0.00    +0.000 OA
ATOM     27  H   UNL     1      -1.193   8.487  21.339  0.00  0.00    +0.000 HD
ENDBRANCH  25  26
ENDBRANCH  17  25
ENDBRANCH  16  21
ENDBRANCH  15  16
ENDBRANCH   1  15
TORSDOF 8
ENDMDL
