MODEL 1
REMARK VINA RESULT:      -8.0      0.000      0.000
REMARK  Name = 
REMARK  7 active torsions:
REMARK  status: ('A' for Active; 'I' for Inactive)
REMARK    1  A    between atoms: O_1  and  C_2
REMARK    2  A    between atoms: C_2  and  C_3
REMARK    3  A    between atoms: C_5  and  C_6
REMARK    4  A    between atoms: C_8  and  C_9
REMARK    5  A    between atoms: C_17  and  O_18
REMARK    6  A    between atoms: C_19  and  O_20
REMARK    7  A    between atoms: C_21  and  O_22
REMARK                            x       y       z     vdW  Elec       q    Type
REMARK                         _______ _______ _______ _____ _____    ______ ____
ROOT
ATOM      1  C   UNL     1       2.434   2.670  19.297  0.00  0.00    +0.000 C 
ATOM      2  O   UNL     1       3.416   3.017  18.313  0.00  0.00    +0.000 OA
ATOM      3  C   UNL     1       4.452   3.853  18.833  0.00  0.00    +0.000 C 
ATOM      4  C   UNL     1       3.875   5.193  19.316  0.00  0.00    +0.000 C 
ATOM      5  C   UNL     1       2.699   4.960  20.271  0.00  0.00    +0.000 C 
ATOM      6  C   UNL     1       1.686   3.942  19.719  0.00  0.00    +0.000 C 
ENDROOT
BRANCH   3   7
ATOM      7  C   UNL     1       5.456   4.072  17.750  0.00  0.00    +0.000 A 
ATOM      8  N   UNL     1       5.303   4.070  16.445  0.00  0.00    +0.000 NA
ATOM      9  C   UNL     1       6.567   4.333  15.950  0.00  0.00    +0.000 A 
ATOM     10  N   UNL     1       7.488   4.513  16.917  0.00  0.00    +0.000 NA
ATOM     11  N   UNL     1       6.765   4.346  18.033  0.00  0.00    +0.000 N 
ATOM     12  H   UNL     1       7.202   4.466  18.953  0.00  0.00    +0.000 HD
BRANCH   9  13
ATOM     13  C   UNL     1       6.843   4.442  14.508  0.00  0.00    +0.000 A 
ATOM     14  C   UNL     1       6.152   3.628  13.614  0.00  0.00    +0.000 A 
ATOM     15  C   UNL     1       6.419   3.751  12.251  0.00  0.00    +0.000 A 
ATOM     16  C   UNL     1       7.363   4.679  11.824  0.00  0.00    +0.000 A 
ATOM     17  C   UNL     1       8.006   5.441  12.776  0.00  0.00    +0.000 A 
ATOM     18  N   UNL     1       7.767   5.350  14.108  0.00  0.00    +0.000 NA
ENDBRANCH   9  13
ENDBRANCH   3   7
BRANCH   4  19
ATOM     19  O   UNL     1       4.910   5.938  19.992  0.00  0.00    +0.000 OA
ATOM     20  H   UNL     1       5.740   5.798  19.490  0.00  0.00    +0.000 HD
ENDBRANCH   4  19
BRANCH   5  21
ATOM     21  O   UNL     1       2.089   6.219  20.569  0.00  0.00    +0.000 OA
ATOM     22  H   UNL     1       1.562   6.120  21.392  0.00  0.00    +0.000 HD
ENDBRANCH   5  21
BRANCH   6  23
ATOM     23  O   UNL     1       0.680   3.660  20.692  0.00  0.00    +0.000 OA
ATOM     24  H   UNL     1       0.076   4.422  20.753  0.00  0.00    +0.000 HD
ENDBRANCH   6  23
BRANCH   1  25
ATOM     25  C   UNL     1       1.480   1.627  18.702  0.00  0.00    +0.000 C 
BRANCH  25  26
ATOM     26  O   UNL     1       0.212   2.233  18.445  0.00  0.00    +0.000 OA
ATOM     27  H   UNL     1      -0.138   1.825  17.634  0.00  0.00    +0.000 HD
ENDBRANCH  25  26
ENDBRANCH   1  25
TORSDOF 7
ENDMDL
MODEL 2
REMARK VINA RESULT:      -7.4      1.720      2.117
REMARK  Name = 
REMARK  7 active torsions:
REMARK  status: ('A' for Active; 'I' for Inactive)
REMARK    1  A    between atoms: O_1  and  C_2
REMARK    2  A    between atoms: C_2  and  C_3
REMARK    3  A    between atoms: C_5  and  C_6
REMARK    4  A    between atoms: C_8  and  C_9
REMARK    5  A    between atoms: C_17  and  O_18
REMARK    6  A    between atoms: C_19  and  O_20
REMARK    7  A    between atoms: C_21  and  O_22
REMARK                            x       y       z     vdW  Elec       q    Type
REMARK                         _______ _______ _______ _____ _____    ______ ____
ROOT
ATOM      1  C   UNL     1       4.450   2.707  20.644  0.00  0.00    +0.000 C 
ATOM      2  O   UNL     1       4.976   3.180  19.397  0.00  0.00    +0.000 OA
ATOM      3  C   UNL     1       4.818   4.590  19.228  0.00  0.00    +0.000 C 
ATOM      4  C   UNL     1       3.329   4.970  19.207  0.00  0.00    +0.000 C 
ATOM      5  C   UNL     1       2.607   4.386  20.427  0.00  0.00    +0.000 C 
ATOM      6  C   UNL     1       2.927   2.897  20.641  0.00  0.00    +0.000 C 
ENDROOT
BRANCH   3   7
ATOM      7  C   UNL     1       5.479   4.978  17.947  0.00  0.00    +0.000 A 
ATOM      8  N   UNL     1       5.570   4.322  16.813  0.00  0.00    +0.000 NA
ATOM      9  C   UNL     1       6.285   5.166  15.983  0.00  0.00    +0.000 A 
ATOM     10  N   UNL     1       6.621   6.330  16.573  0.00  0.00    +0.000 NA
ATOM     11  N   UNL     1       6.103   6.186  17.800  0.00  0.00    +0.000 N 
ATOM     12  H   UNL     1       6.169   6.950  18.481  0.00  0.00    +0.000 HD
BRANCH   9  13
ATOM     13  C   UNL     1       6.597   4.821  14.587  0.00  0.00    +0.000 A 
ATOM     14  C   UNL     1       5.846   3.846  13.936  0.00  0.00    +0.000 A 
ATOM     15  C   UNL     1       6.149   3.538  12.610  0.00  0.00    +0.000 A 
ATOM     16  C   UNL     1       7.189   4.211  11.977  0.00  0.00    +0.000 A 
ATOM     17  C   UNL     1       7.886   5.159  12.695  0.00  0.00    +0.000 A 
ATOM     18  N   UNL     1       7.614   5.485  13.983  0.00  0.00    +0.000 NA
ENDBRANCH   9  13
ENDBRANCH   3   7
BRANCH   4  19
ATOM     19  O   UNL     1       3.208   6.408  19.213  0.00  0.00    +0.000 OA
ATOM     20  H   UNL     1       2.573   6.641  19.922  0.00  0.00    +0.000 HD
ENDBRANCH   4  19
BRANCH   5  21
ATOM     21  O   UNL     1       1.203   4.621  20.288  0.00  0.00    +0.000 OA
ATOM     22  H   UNL     1       0.754   4.289  21.095  0.00  0.00    +0.000 HD
ENDBRANCH   5  21
BRANCH   6  23
ATOM     23  O   UNL     1       2.338   2.430  21.855  0.00  0.00    +0.000 OA
ATOM     24  H   UNL     1       2.399   3.132  22.528  0.00  0.00    +0.000 HD
ENDBRANCH   6  23
BRANCH   1  25
ATOM     25  C   UNL     1       4.833   1.231  20.818  0.00  0.00    +0.000 C 
BRANCH  25  26
ATOM     26  O   UNL     1       5.832   1.115  21.832  0.00  0.00    +0.000 OA
ATOM     27  H   UNL     1       6.431   0.398  21.560  0.00  0.00    +0.000 HD
ENDBRANCH  25  26
ENDBRANCH   1  25
TORSDOF 7
ENDMDL
MODEL 3
REMARK VINA RESULT:      -7.3      0.638      1.034
REMARK  Name = 
REMARK  7 active torsions:
REMARK  status: ('A' for Active; 'I' for Inactive)
REMARK    1  A    between atoms: O_1  and  C_2
REMARK    2  A    between atoms: C_2  and  C_3
REMARK    3  A    between atoms: C_5  and  C_6
REMARK    4  A    between atoms: C_8  and  C_9
REMARK    5  A    between atoms: C_17  and  O_18
REMARK    6  A    between atoms: C_19  and  O_20
REMARK    7  A    between atoms: C_21  and  O_22
REMARK                            x       y       z     vdW  Elec       q    Type
REMARK                         _______ _______ _______ _____ _____    ______ ____
ROOT
ATOM      1  C   UNL     1       2.483   2.551  19.402  0.00  0.00    +0.000 C 
ATOM      2  O   UNL     1       3.429   2.907  18.386  0.00  0.00    +0.000 OA
ATOM      3  C   UNL     1       4.449   3.787  18.862  0.00  0.00    +0.000 C 
ATOM      4  C   UNL     1       3.841   5.119  19.329  0.00  0.00    +0.000 C 
ATOM      5  C   UNL     1       2.696   4.870  20.319  0.00  0.00    +0.000 C 
ATOM      6  C   UNL     1       1.705   3.808  19.815  0.00  0.00    +0.000 C 
ENDROOT
BRANCH   3   7
ATOM      7  C   UNL     1       5.419   4.014  17.750  0.00  0.00    +0.000 A 
ATOM      8  N   UNL     1       5.241   3.948  16.450  0.00  0.00    +0.000 NA
ATOM      9  C   UNL     1       6.479   4.256  15.917  0.00  0.00    +0.000 A 
ATOM     10  N   UNL     1       7.408   4.525  16.856  0.00  0.00    +0.000 NA
ATOM     11  N   UNL     1       6.717   4.367  17.993  0.00  0.00    +0.000 N 
ATOM     12  H   UNL     1       7.164   4.549  18.898  0.00  0.00    +0.000 HD
BRANCH   9  13
ATOM     13  C   UNL     1       6.721   4.319  14.467  0.00  0.00    +0.000 A 
ATOM     14  C   UNL     1       7.623   5.251  13.961  0.00  0.00    +0.000 A 
ATOM     15  C   UNL     1       7.847   5.292  12.585  0.00  0.00    +0.000 A 
ATOM     16  C   UNL     1       7.167   4.403  11.760  0.00  0.00    +0.000 A 
ATOM     17  C   UNL     1       6.287   3.515  12.341  0.00  0.00    +0.000 A 
ATOM     18  N   UNL     1       6.049   3.448  13.674  0.00  0.00    +0.000 NA
ENDBRANCH   9  13
ENDBRANCH   3   7
BRANCH   4  19
ATOM     19  O   UNL     1       4.867   5.912  19.963  0.00  0.00    +0.000 OA
ATOM     20  H   UNL     1       4.927   5.614  20.895  0.00  0.00    +0.000 HD
ENDBRANCH   4  19
BRANCH   5  21
ATOM     21  O   UNL     1       2.053   6.116  20.604  0.00  0.00    +0.000 OA
ATOM     22  H   UNL     1       1.128   6.067  20.278  0.00  0.00    +0.000 HD
ENDBRANCH   5  21
BRANCH   6  23
ATOM     23  O   UNL     1       0.732   3.517  20.819  0.00  0.00    +0.000 OA
ATOM     24  H   UNL     1       1.132   2.934  21.489  0.00  0.00    +0.000 HD
ENDBRANCH   6  23
BRANCH   1  25
ATOM     25  C   UNL     1       1.548   1.465  18.854  0.00  0.00    +0.000 C 
BRANCH  25  26
ATOM     26  O   UNL     1       0.359   2.071  18.346  0.00  0.00    +0.000 OA
ATOM     27  H   UNL     1       0.576   2.998  18.146  0.00  0.00    +0.000 HD
ENDBRANCH  25  26
ENDBRANCH   1  25
TORSDOF 7
ENDMDL
MODEL 4
REMARK VINA RESULT:      -7.2      1.512      2.003
REMARK  Name = 
REMARK  7 active torsions:
REMARK  status: ('A' for Active; 'I' for Inactive)
REMARK    1  A    between atoms: O_1  and  C_2
REMARK    2  A    between atoms: C_2  and  C_3
REMARK    3  A    between atoms: C_5  and  C_6
REMARK    4  A    between atoms: C_8  and  C_9
REMARK    5  A    between atoms: C_17  and  O_18
REMARK    6  A    between atoms: C_19  and  O_20
REMARK    7  A    between atoms: C_21  and  O_22
REMARK                            x       y       z     vdW  Elec       q    Type
REMARK                         _______ _______ _______ _____ _____    ______ ____
ROOT
ATOM      1  C   UNL     1       4.034   2.707  20.614  0.00  0.00    +0.000 C 
ATOM      2  O   UNL     1       4.878   2.894  19.471  0.00  0.00    +0.000 OA
ATOM      3  C   UNL     1       4.687   4.163  18.842  0.00  0.00    +0.000 C 
ATOM      4  C   UNL     1       3.252   4.294  18.309  0.00  0.00    +0.000 C 
ATOM      5  C   UNL     1       2.236   3.965  19.410  0.00  0.00    +0.000 C 
ATOM      6  C   UNL     1       2.573   2.657  20.147  0.00  0.00    +0.000 C 
ENDROOT
BRANCH   3   7
ATOM      7  C   UNL     1       5.675   4.280  17.729  0.00  0.00    +0.000 A 
ATOM      8  N   UNL     1       5.479   4.340  16.431  0.00  0.00    +0.000 NA
ATOM      9  C   UNL     1       6.750   4.446  15.896  0.00  0.00    +0.000 A 
ATOM     10  N   UNL     1       7.719   4.470  16.832  0.00  0.00    +0.000 NA
ATOM     11  N   UNL     1       7.018   4.367  17.970  0.00  0.00    +0.000 N 
ATOM     12  H   UNL     1       7.497   4.398  18.876  0.00  0.00    +0.000 HD
BRANCH   9  13
ATOM     13  C   UNL     1       6.989   4.563  14.449  0.00  0.00    +0.000 A 
ATOM     14  C   UNL     1       6.278   3.751  13.568  0.00  0.00    +0.000 A 
ATOM     15  C   UNL     1       6.511   3.881  12.199  0.00  0.00    +0.000 A 
ATOM     16  C   UNL     1       7.441   4.814  11.754  0.00  0.00    +0.000 A 
ATOM     17  C   UNL     1       8.106   5.573  12.692  0.00  0.00    +0.000 A 
ATOM     18  N   UNL     1       7.900   5.475  14.029  0.00  0.00    +0.000 NA
ENDBRANCH   9  13
ENDBRANCH   3   7
BRANCH   4  19
ATOM     19  O   UNL     1       3.042   5.643  17.842  0.00  0.00    +0.000 OA
ATOM     20  H   UNL     1       2.999   6.219  18.634  0.00  0.00    +0.000 HD
ENDBRANCH   4  19
BRANCH   5  21
ATOM     21  O   UNL     1       0.926   3.938  18.836  0.00  0.00    +0.000 OA
ATOM     22  H   UNL     1       0.415   3.220  19.268  0.00  0.00    +0.000 HD
ENDBRANCH   5  21
BRANCH   6  23
ATOM     23  O   UNL     1       1.679   2.457  21.242  0.00  0.00    +0.000 OA
ATOM     24  H   UNL     1       2.189   2.166  22.019  0.00  0.00    +0.000 HD
ENDBRANCH   6  23
BRANCH   1  25
ATOM     25  C   UNL     1       4.442   1.411  21.326  0.00  0.00    +0.000 C 
BRANCH  25  26
ATOM     26  O   UNL     1       5.659   0.919  20.762  0.00  0.00    +0.000 OA
ATOM     27  H   UNL     1       5.431   0.510  19.909  0.00  0.00    +0.000 HD
ENDBRANCH  25  26
ENDBRANCH   1  25
TORSDOF 7
ENDMDL
MODEL 5
REMARK VINA RESULT:      -7.1      4.473      7.880
REMARK  Name = 
REMARK  7 active torsions:
REMARK  status: ('A' for Active; 'I' for Inactive)
REMARK    1  A    between atoms: O_1  and  C_2
REMARK    2  A    between atoms: C_2  and  C_3
REMARK    3  A    between atoms: C_5  and  C_6
REMARK    4  A    between atoms: C_8  and  C_9
REMARK    5  A    between atoms: C_17  and  O_18
REMARK    6  A    between atoms: C_19  and  O_20
REMARK    7  A    between atoms: C_21  and  O_22
REMARK                            x       y       z     vdW  Elec       q    Type
REMARK                         _______ _______ _______ _____ _____    ______ ____
ROOT
ATOM      1  C   UNL     1       4.433   3.842  18.862  0.00  0.00    +0.000 C 
ATOM      2  O   UNL     1       3.785   5.118  18.944  0.00  0.00    +0.000 OA
ATOM      3  C   UNL     1       2.701   5.131  19.874  0.00  0.00    +0.000 C 
ATOM      4  C   UNL     1       1.601   4.149  19.438  0.00  0.00    +0.000 C 
ATOM      5  C   UNL     1       2.196   2.762  19.166  0.00  0.00    +0.000 C 
ATOM      6  C   UNL     1       3.446   2.824  18.273  0.00  0.00    +0.000 C 
ENDROOT
BRANCH   3   7
ATOM      7  C   UNL     1       2.166   6.523  19.941  0.00  0.00    +0.000 A 
ATOM      8  N   UNL     1       1.490   7.121  20.895  0.00  0.00    +0.000 NA
ATOM      9  C   UNL     1       1.268   8.397  20.410  0.00  0.00    +0.000 A 
ATOM     10  N   UNL     1       1.806   8.603  19.191  0.00  0.00    +0.000 NA
ATOM     11  N   UNL     1       2.362   7.415  18.923  0.00  0.00    +0.000 N 
ATOM     12  H   UNL     1       2.892   7.278  18.055  0.00  0.00    +0.000 HD
BRANCH   9  13
ATOM     13  C   UNL     1       0.552   9.423  21.187  0.00  0.00    +0.000 A 
ATOM     14  C   UNL     1      -0.034   9.078  22.402  0.00  0.00    +0.000 A 
ATOM     15  C   UNL     1      -0.701  10.064  23.129  0.00  0.00    +0.000 A 
ATOM     16  C   UNL     1      -0.762  11.358  22.622  0.00  0.00    +0.000 A 
ATOM     17  C   UNL     1      -0.160  11.613  21.409  0.00  0.00    +0.000 A 
ATOM     18  N   UNL     1       0.499  10.679  20.679  0.00  0.00    +0.000 NA
ENDBRANCH   9  13
ENDBRANCH   3   7
BRANCH   4  19
ATOM     19  O   UNL     1       0.609   4.056  20.482  0.00  0.00    +0.000 OA
ATOM     20  H   UNL     1      -0.246   3.851  20.050  0.00  0.00    +0.000 HD
ENDBRANCH   4  19
BRANCH   5  21
ATOM     21  O   UNL     1       1.177   1.925  18.610  0.00  0.00    +0.000 OA
ATOM     22  H   UNL     1       1.310   1.013  18.949  0.00  0.00    +0.000 HD
ENDBRANCH   5  21
BRANCH   6  23
ATOM     23  O   UNL     1       4.038   1.530  18.151  0.00  0.00    +0.000 OA
ATOM     24  H   UNL     1       4.444   1.448  17.270  0.00  0.00    +0.000 HD
ENDBRANCH   6  23
BRANCH   1  25
ATOM     25  C   UNL     1       5.690   3.976  17.992  0.00  0.00    +0.000 C 
BRANCH  25  26
ATOM     26  O   UNL     1       5.392   3.563  16.657  0.00  0.00    +0.000 OA
ATOM     27  H   UNL     1       5.707   4.267  16.065  0.00  0.00    +0.000 HD
ENDBRANCH  25  26
ENDBRANCH   1  25
TORSDOF 7
ENDMDL
MODEL 6
REMARK VINA RESULT:      -7.1      4.550      7.669
REMARK  Name = 
REMARK  7 active torsions:
REMARK  status: ('A' for Active; 'I' for Inactive)
REMARK    1  A    between atoms: O_1  and  C_2
REMARK    2  A    between atoms: C_2  and  C_3
REMARK    3  A    between atoms: C_5  and  C_6
REMARK    4  A    between atoms: C_8  and  C_9
REMARK    5  A    between atoms: C_17  and  O_18
REMARK    6  A    between atoms: C_19  and  O_20
REMARK    7  A    between atoms: C_21  and  O_22
REMARK                            x       y       z     vdW  Elec       q    Type
REMARK                         _______ _______ _______ _____ _____    ______ ____
ROOT
ATOM      1  C   UNL     1       2.876   3.349  19.722  0.00  0.00    +0.000 C 
ATOM      2  O   UNL     1       2.436   4.694  19.943  0.00  0.00    +0.000 OA
ATOM      3  C   UNL     1       2.898   5.601  18.940  0.00  0.00    +0.000 C 
ATOM      4  C   UNL     1       4.433   5.675  18.942  0.00  0.00    +0.000 C 
ATOM      5  C   UNL     1       5.040   4.269  18.863  0.00  0.00    +0.000 C 
ATOM      6  C   UNL     1       4.403   3.298  19.872  0.00  0.00    +0.000 C 
ENDROOT
BRANCH   3   7
ATOM      7  C   UNL     1       2.306   6.942  19.223  0.00  0.00    +0.000 A 
ATOM      8  N   UNL     1       1.655   7.371  20.280  0.00  0.00    +0.000 NA
ATOM      9  C   UNL     1       1.352   8.688  19.987  0.00  0.00    +0.000 A 
ATOM     10  N   UNL     1       1.816   9.084  18.785  0.00  0.00    +0.000 NA
ATOM     11  N   UNL     1       2.410   7.973  18.330  0.00  0.00    +0.000 N 
ATOM     12  H   UNL     1       2.900   7.982  17.429  0.00  0.00    +0.000 HD
BRANCH   9  13
ATOM     13  C   UNL     1       0.632   9.560  20.930  0.00  0.00    +0.000 A 
ATOM     14  C   UNL     1       0.181   9.039  22.139  0.00  0.00    +0.000 A 
ATOM     15  C   UNL     1      -0.491   9.882  23.024  0.00  0.00    +0.000 A 
ATOM     16  C   UNL     1      -0.691  11.213  22.676  0.00  0.00    +0.000 A 
ATOM     17  C   UNL     1      -0.217  11.647  21.456  0.00  0.00    +0.000 A 
ATOM     18  N   UNL     1       0.444  10.855  20.575  0.00  0.00    +0.000 NA
ENDBRANCH   9  13
ENDBRANCH   3   7
BRANCH   4  19
ATOM     19  O   UNL     1       4.871   6.457  17.811  0.00  0.00    +0.000 OA
ATOM     20  H   UNL     1       4.175   6.385  17.124  0.00  0.00    +0.000 HD
ENDBRANCH   4  19
BRANCH   5  21
ATOM     21  O   UNL     1       6.457   4.368  19.031  0.00  0.00    +0.000 OA
ATOM     22  H   UNL     1       6.861   4.522  18.149  0.00  0.00    +0.000 HD
ENDBRANCH   5  21
BRANCH   6  23
ATOM     23  O   UNL     1       4.905   1.975  19.676  0.00  0.00    +0.000 OA
ATOM     24  H   UNL     1       4.179   1.339  19.800  0.00  0.00    +0.000 HD
ENDBRANCH   6  23
BRANCH   1  25
ATOM     25  C   UNL     1       2.180   2.425  20.730  0.00  0.00    +0.000 C 
BRANCH  25  26
ATOM     26  O   UNL     1       2.899   2.439  21.964  0.00  0.00    +0.000 OA
ATOM     27  H   UNL     1       3.651   3.044  21.848  0.00  0.00    +0.000 HD
ENDBRANCH  25  26
ENDBRANCH   1  25
TORSDOF 7
ENDMDL
MODEL 7
REMARK VINA RESULT:      -7.0      4.522      7.951
REMARK  Name = 
REMARK  7 active torsions:
REMARK  status: ('A' for Active; 'I' for Inactive)
REMARK    1  A    between atoms: O_1  and  C_2
REMARK    2  A    between atoms: C_2  and  C_3
REMARK    3  A    between atoms: C_5  and  C_6
REMARK    4  A    between atoms: C_8  and  C_9
REMARK    5  A    between atoms: C_17  and  O_18
REMARK    6  A    between atoms: C_19  and  O_20
REMARK    7  A    between atoms: C_21  and  O_22
REMARK                            x       y       z     vdW  Elec       q    Type
REMARK                         _______ _______ _______ _____ _____    ______ ____
ROOT
ATOM      1  C   UNL     1       4.400   3.899  18.570  0.00  0.00    +0.000 C 
ATOM      2  O   UNL     1       3.739   5.163  18.710  0.00  0.00    +0.000 OA
ATOM      3  C   UNL     1       2.746   5.159  19.737  0.00  0.00    +0.000 C 
ATOM      4  C   UNL     1       1.629   4.156  19.406  0.00  0.00    +0.000 C 
ATOM      5  C   UNL     1       2.220   2.779  19.081  0.00  0.00    +0.000 C 
ATOM      6  C   UNL     1       3.382   2.862  18.076  0.00  0.00    +0.000 C 
ENDROOT
BRANCH   3   7
ATOM      7  C   UNL     1       2.194   6.541  19.851  0.00  0.00    +0.000 A 
ATOM      8  N   UNL     1       1.511   7.098  20.825  0.00  0.00    +0.000 NA
ATOM      9  C   UNL     1       1.273   8.387  20.385  0.00  0.00    +0.000 A 
ATOM     10  N   UNL     1       1.808   8.642  19.174  0.00  0.00    +0.000 NA
ATOM     11  N   UNL     1       2.379   7.470  18.865  0.00  0.00    +0.000 N 
ATOM     12  H   UNL     1       2.910   7.369  17.993  0.00  0.00    +0.000 HD
BRANCH   9  13
ATOM     13  C   UNL     1       0.545   9.377  21.196  0.00  0.00    +0.000 A 
ATOM     14  C   UNL     1       0.321  10.652  20.685  0.00  0.00    +0.000 A 
ATOM     15  C   UNL     1      -0.379  11.574  21.463  0.00  0.00    +0.000 A 
ATOM     16  C   UNL     1      -0.832  11.195  22.722  0.00  0.00    +0.000 A 
ATOM     17  C   UNL     1      -0.564   9.915  23.155  0.00  0.00    +0.000 A 
ATOM     18  N   UNL     1       0.110   8.993  22.422  0.00  0.00    +0.000 NA
ENDBRANCH   9  13
ENDBRANCH   3   7
BRANCH   4  19
ATOM     19  O   UNL     1       0.739   4.048  20.537  0.00  0.00    +0.000 OA
ATOM     20  H   UNL     1       0.729   4.922  20.981  0.00  0.00    +0.000 HD
ENDBRANCH   4  19
BRANCH   5  21
ATOM     21  O   UNL     1       1.171   1.922  18.623  0.00  0.00    +0.000 OA
ATOM     22  H   UNL     1       0.320   2.406  18.704  0.00  0.00    +0.000 HD
ENDBRANCH   5  21
BRANCH   6  23
ATOM     23  O   UNL     1       3.983   1.578  17.901  0.00  0.00    +0.000 OA
ATOM     24  H   UNL     1       4.903   1.614  18.218  0.00  0.00    +0.000 HD
ENDBRANCH   6  23
BRANCH   1  25
ATOM     25  C   UNL     1       5.568   4.054  17.587  0.00  0.00    +0.000 C 
BRANCH  25  26
ATOM     26  O   UNL     1       6.793   4.152  18.316  0.00  0.00    +0.000 OA
ATOM     27  H   UNL     1       7.393   3.477  17.954  0.00  0.00    +0.000 HD
ENDBRANCH  25  26
ENDBRANCH   1  25
TORSDOF 7
ENDMDL
MODEL 8
REMARK VINA RESULT:      -7.0      3.422      7.228
REMARK  Name = 
REMARK  7 active torsions:
REMARK  status: ('A' for Active; 'I' for Inactive)
REMARK    1  A    between atoms: O_1  and  C_2
REMARK    2  A    between atoms: C_2  and  C_3
REMARK    3  A    between atoms: C_5  and  C_6
REMARK    4  A    between atoms: C_8  and  C_9
REMARK    5  A    between atoms: C_17  and  O_18
REMARK    6  A    between atoms: C_19  and  O_20
REMARK    7  A    between atoms: C_21  and  O_22
REMARK                            x       y       z     vdW  Elec       q    Type
REMARK                         _______ _______ _______ _____ _____    ______ ____
ROOT
ATOM      1  C   UNL     1       5.513   4.008  12.998  0.00  0.00    +0.000 C 
ATOM      2  O   UNL     1       5.273   3.692  14.375  0.00  0.00    +0.000 OA
ATOM      3  C   UNL     1       5.570   4.779  15.254  0.00  0.00    +0.000 C 
ATOM      4  C   UNL     1       7.061   5.145  15.179  0.00  0.00    +0.000 C 
ATOM      5  C   UNL     1       7.489   5.363  13.723  0.00  0.00    +0.000 C 
ATOM      6  C   UNL     1       7.019   4.228  12.797  0.00  0.00    +0.000 C 
ENDROOT
BRANCH   3   7
ATOM      7  C   UNL     1       5.199   4.366  16.640  0.00  0.00    +0.000 A 
ATOM      8  N   UNL     1       4.013   4.214  17.185  0.00  0.00    +0.000 NA
ATOM      9  C   UNL     1       4.280   3.817  18.482  0.00  0.00    +0.000 A 
ATOM     10  N   UNL     1       5.597   3.706  18.743  0.00  0.00    +0.000 NA
ATOM     11  N   UNL     1       6.149   4.054  17.573  0.00  0.00    +0.000 N 
ATOM     12  H   UNL     1       7.167   4.026  17.453  0.00  0.00    +0.000 HD
BRANCH   9  13
ATOM     13  C   UNL     1       3.212   3.512  19.449  0.00  0.00    +0.000 A 
ATOM     14  C   UNL     1       1.909   3.925  19.185  0.00  0.00    +0.000 A 
ATOM     15  C   UNL     1       0.908   3.619  20.108  0.00  0.00    +0.000 A 
ATOM     16  C   UNL     1       1.239   2.913  21.259  0.00  0.00    +0.000 A 
ATOM     17  C   UNL     1       2.554   2.546  21.446  0.00  0.00    +0.000 A 
ATOM     18  N   UNL     1       3.549   2.824  20.568  0.00  0.00    +0.000 NA
ENDBRANCH   9  13
ENDBRANCH   3   7
BRANCH   4  19
ATOM     19  O   UNL     1       7.291   6.350  15.939  0.00  0.00    +0.000 OA
ATOM     20  H   UNL     1       7.349   6.089  16.882  0.00  0.00    +0.000 HD
ENDBRANCH   4  19
BRANCH   5  21
ATOM     21  O   UNL     1       8.908   5.540  13.681  0.00  0.00    +0.000 OA
ATOM     22  H   UNL     1       9.260   5.430  14.592  0.00  0.00    +0.000 HD
ENDBRANCH   5  21
BRANCH   6  23
ATOM     23  O   UNL     1       7.327   4.535  11.437  0.00  0.00    +0.000 OA
ATOM     24  H   UNL     1       8.265   4.789  11.374  0.00  0.00    +0.000 HD
ENDBRANCH   6  23
BRANCH   1  25
ATOM     25  C   UNL     1       4.990   2.861  12.125  0.00  0.00    +0.000 C 
BRANCH  25  26
ATOM     26  O   UNL     1       6.056   1.952  11.843  0.00  0.00    +0.000 OA
ATOM     27  H   UNL     1       6.007   1.242  12.507  0.00  0.00    +0.000 HD
ENDBRANCH  25  26
ENDBRANCH   1  25
TORSDOF 7
ENDMDL
MODEL 9
REMARK VINA RESULT:      -6.9      1.681      2.583
REMARK  Name = 
REMARK  7 active torsions:
REMARK  status: ('A' for Active; 'I' for Inactive)
REMARK    1  A    between atoms: O_1  and  C_2
REMARK    2  A    between atoms: C_2  and  C_3
REMARK    3  A    between atoms: C_5  and  C_6
REMARK    4  A    between atoms: C_8  and  C_9
REMARK    5  A    between atoms: C_17  and  O_18
REMARK    6  A    between atoms: C_19  and  O_20
REMARK    7  A    between atoms: C_21  and  O_22
REMARK                            x       y       z     vdW  Elec       q    Type
REMARK                         _______ _______ _______ _____ _____    ______ ____
ROOT
ATOM      1  C   UNL     1       1.958   4.630  20.142  0.00  0.00    +0.000 C 
ATOM      2  O   UNL     1       2.886   5.038  19.129  0.00  0.00    +0.000 OA
ATOM      3  C   UNL     1       3.385   3.942  18.360  0.00  0.00    +0.000 C 
ATOM      4  C   UNL     1       4.167   2.965  19.252  0.00  0.00    +0.000 C 
ATOM      5  C   UNL     1       3.330   2.563  20.472  0.00  0.00    +0.000 C 
ATOM      6  C   UNL     1       2.701   3.776  21.178  0.00  0.00    +0.000 C 
ENDROOT
BRANCH   3   7
ATOM      7  C   UNL     1       4.265   4.493  17.287  0.00  0.00    +0.000 A 
ATOM      8  N   UNL     1       4.751   3.912  16.213  0.00  0.00    +0.000 NA
ATOM      9  C   UNL     1       5.489   4.902  15.591  0.00  0.00    +0.000 A 
ATOM     10  N   UNL     1       5.455   6.080  16.245  0.00  0.00    +0.000 NA
ATOM     11  N   UNL     1       4.681   5.796  17.301  0.00  0.00    +0.000 N 
ATOM     12  H   UNL     1       4.438   6.530  17.975  0.00  0.00    +0.000 HD
BRANCH   9  13
ATOM     13  C   UNL     1       6.196   4.678  14.319  0.00  0.00    +0.000 A 
ATOM     14  C   UNL     1       5.684   3.764  13.402  0.00  0.00    +0.000 A 
ATOM     15  C   UNL     1       6.362   3.570  12.198  0.00  0.00    +0.000 A 
ATOM     16  C   UNL     1       7.524   4.292  11.949  0.00  0.00    +0.000 A 
ATOM     17  C   UNL     1       7.965   5.172  12.913  0.00  0.00    +0.000 A 
ATOM     18  N   UNL     1       7.329   5.387  14.091  0.00  0.00    +0.000 NA
ENDBRANCH   9  13
ENDBRANCH   3   7
BRANCH   4  19
ATOM     19  O   UNL     1       4.504   1.790  18.485  0.00  0.00    +0.000 OA
ATOM     20  H   UNL     1       3.878   1.083  18.751  0.00  0.00    +0.000 HD
ENDBRANCH   4  19
BRANCH   5  21
ATOM     21  O   UNL     1       4.146   1.788  21.356  0.00  0.00    +0.000 OA
ATOM     22  H   UNL     1       5.087   2.001  21.174  0.00  0.00    +0.000 HD
ENDBRANCH   5  21
BRANCH   6  23
ATOM     23  O   UNL     1       1.831   3.348  22.226  0.00  0.00    +0.000 OA
ATOM     24  H   UNL     1       1.818   4.026  22.925  0.00  0.00    +0.000 HD
ENDBRANCH   6  23
BRANCH   1  25
ATOM     25  C   UNL     1       1.338   5.879  20.781  0.00  0.00    +0.000 C 
BRANCH  25  26
ATOM     26  O   UNL     1       2.269   6.960  20.715  0.00  0.00    +0.000 OA
ATOM     27  H   UNL     1       2.582   7.120  21.622  0.00  0.00    +0.000 HD
ENDBRANCH  25  26
ENDBRANCH   1  25
TORSDOF 7
ENDMDL
