MODEL 1
REMARK VINA RESULT:      -9.2      0.000      0.000
REMARK  Name = 
REMARK  6 active torsions:
REMARK  status: ('A' for Active; 'I' for Inactive)
REMARK    1  A    between atoms: C_1  and  S_2
REMARK    2  A    between atoms: S_2  and  C_5
REMARK    3  A    between atoms: C_8  and  N_9
REMARK    4  A    between atoms: N_9  and  S_10
REMARK    5  A    between atoms: S_10  and  C_13
REMARK    6  A    between atoms: C_17  and  C_18
REMARK                            x       y       z     vdW  Elec       q    Type
REMARK                         _______ _______ _______ _____ _____    ______ ____
ROOT
ATOM      1  C   UNL     1       7.171   5.672  16.895  0.00  0.00    +0.000 A 
ATOM      2  C   UNL     1       7.296   4.570  17.741  0.00  0.00    +0.000 A 
ATOM      3  C   UNL     1       7.841   4.870  18.980  0.00  0.00    +0.000 A 
ATOM      4  C   UNL     1       8.232   6.281  19.313  0.00  0.00    +0.000 A 
ATOM      5  C   UNL     1       8.010   7.471  18.414  0.00  0.00    +0.000 A 
ATOM      6  C   UNL     1       7.573   7.014  17.212  0.00  0.00    +0.000 A 
ENDROOT
BRANCH   5   7
ATOM      7  C   UNL     1       8.559   9.110  18.402  0.00  0.00    +0.000 A 
ATOM      8  N   UNL     1       7.599   9.763  17.777  0.00  0.00    +0.000 NA
ATOM      9  N   UNL     1       8.316  10.770  17.437  0.00  0.00    +0.000 N 
ATOM     10  C   UNL     1       8.950  11.375  18.461  0.00  0.00    +0.000 A 
ATOM     11  C   UNL     1       9.018  12.844  18.435  0.00  0.00    +0.000 A 
ATOM     12  C   UNL     1       9.751  13.667  19.232  0.00  0.00    +0.000 A 
ATOM     13  F   UNL     1       9.722  15.006  19.098  0.00  0.00    +0.000 F 
ATOM     14  C   UNL     1      10.472  12.971  20.124  0.00  0.00    +0.000 A 
ATOM     15  C   UNL     1      10.387  11.409  20.065  0.00  0.00    +0.000 A 
ATOM     16  C   UNL     1       9.533  10.289  19.285  0.00  0.00    +0.000 A 
ATOM     17  H   UNL     1       8.615  10.799  16.486  0.00  0.00    +0.000 HD
ENDBRANCH   5   7
BRANCH   1  18
ATOM     18  S   UNL     1       6.226   5.634  15.403  0.00  0.00    +0.000 S 
ATOM     19  O   UNL     1       7.163   5.355  14.330  0.00  0.00    +0.000 OA
ATOM     20  O   UNL     1       5.455   6.853  15.424  0.00  0.00    +0.000 OA
BRANCH  18  21
ATOM     21  N   UNL     1       5.127   4.366  15.518  0.00  0.00    +0.000 N 
ATOM     22  H   UNL     1       5.019   3.739  14.718  0.00  0.00    +0.000 HD
BRANCH  21  26
ATOM     23  C   UNL     1       2.732   4.009  19.001  0.00  0.00    +0.000 A 
ATOM     24  C   UNL     1       3.018   5.269  18.469  0.00  0.00    +0.000 A 
ATOM     25  C   UNL     1       3.737   5.369  17.264  0.00  0.00    +0.000 A 
ATOM     26  C   UNL     1       4.300   4.232  16.674  0.00  0.00    +0.000 A 
ATOM     27  C   UNL     1       4.049   2.987  17.260  0.00  0.00    +0.000 A 
ATOM     28  C   UNL     1       3.281   2.871  18.423  0.00  0.00    +0.000 A 
BRANCH  23  30
ATOM     29  C   UNL     1       2.519   2.845  21.545  0.00  0.00    +0.000 C 
ATOM     30  S   UNL     1       1.600   3.830  20.367  0.00  0.00    +0.000 S 
ATOM     31  O   UNL     1       0.467   3.066  19.884  0.00  0.00    +0.000 OA
ATOM     32  O   UNL     1       1.410   5.141  20.957  0.00  0.00    +0.000 OA
ENDBRANCH  23  30
ENDBRANCH  21  26
ENDBRANCH  18  21
ENDBRANCH   1  18
TORSDOF 5
ENDMDL
MODEL 2
REMARK VINA RESULT:      -9.1      3.524      4.570
REMARK  Name = 
REMARK  6 active torsions:
REMARK  status: ('A' for Active; 'I' for Inactive)
REMARK    1  A    between atoms: C_1  and  S_2
REMARK    2  A    between atoms: S_2  and  C_5
REMARK    3  A    between atoms: C_8  and  N_9
REMARK    4  A    between atoms: N_9  and  S_10
REMARK    5  A    between atoms: S_10  and  C_13
REMARK    6  A    between atoms: C_17  and  C_18
REMARK                            x       y       z     vdW  Elec       q    Type
REMARK                         _______ _______ _______ _____ _____    ______ ____
ROOT
ATOM      1  C   UNL     1       4.596   5.087  17.202  0.00  0.00    +0.000 A 
ATOM      2  C   UNL     1       4.769   4.299  16.063  0.00  0.00    +0.000 A 
ATOM      3  C   UNL     1       5.939   4.565  15.367  0.00  0.00    +0.000 A 
ATOM      4  C   UNL     1       6.889   5.618  15.859  0.00  0.00    +0.000 A 
ATOM      5  C   UNL     1       6.723   6.399  17.138  0.00  0.00    +0.000 A 
ATOM      6  C   UNL     1       5.497   6.112  17.649  0.00  0.00    +0.000 A 
ENDROOT
BRANCH   5   7
ATOM      7  C   UNL     1       7.473   7.799  17.818  0.00  0.00    +0.000 A 
ATOM      8  N   UNL     1       8.511   7.318  18.474  0.00  0.00    +0.000 NA
ATOM      9  N   UNL     1       8.656   8.322  19.258  0.00  0.00    +0.000 N 
ATOM     10  C   UNL     1       8.781   9.507  18.630  0.00  0.00    +0.000 A 
ATOM     11  C   UNL     1       9.750  10.463  19.186  0.00  0.00    +0.000 A 
ATOM     12  C   UNL     1       9.924  11.772  18.860  0.00  0.00    +0.000 A 
ATOM     13  F   UNL     1      10.856  12.540  19.455  0.00  0.00    +0.000 F 
ATOM     14  C   UNL     1       9.065  12.158  17.905  0.00  0.00    +0.000 A 
ATOM     15  C   UNL     1       8.031  11.101  17.390  0.00  0.00    +0.000 A 
ATOM     16  C   UNL     1       7.738   9.529  17.577  0.00  0.00    +0.000 A 
ATOM     17  H   UNL     1       8.325   8.205  20.193  0.00  0.00    +0.000 HD
ENDBRANCH   5   7
BRANCH   1  18
ATOM     18  S   UNL     1       3.375   4.742  18.431  0.00  0.00    +0.000 S 
ATOM     19  O   UNL     1       3.770   3.497  19.066  0.00  0.00    +0.000 OA
ATOM     20  O   UNL     1       2.113   4.862  17.741  0.00  0.00    +0.000 OA
BRANCH  18  21
ATOM     21  N   UNL     1       3.423   5.980  19.569  0.00  0.00    +0.000 N 
ATOM     22  H   UNL     1       3.997   5.852  20.406  0.00  0.00    +0.000 HD
BRANCH  21  26
ATOM     23  C   UNL     1       1.064   9.472  19.084  0.00  0.00    +0.000 A 
ATOM     24  C   UNL     1       1.897   9.035  18.050  0.00  0.00    +0.000 A 
ATOM     25  C   UNL     1       2.604   7.827  18.190  0.00  0.00    +0.000 A 
ATOM     26  C   UNL     1       2.605   7.138  19.408  0.00  0.00    +0.000 A 
ATOM     27  C   UNL     1       1.810   7.629  20.448  0.00  0.00    +0.000 A 
ATOM     28  C   UNL     1       1.051   8.795  20.298  0.00  0.00    +0.000 A 
BRANCH  23  30
ATOM     29  C   UNL     1      -0.764  11.091  20.465  0.00  0.00    +0.000 C 
ATOM     30  S   UNL     1      -0.051  10.842  18.842  0.00  0.00    +0.000 S 
ATOM     31  O   UNL     1      -1.083  10.395  17.928  0.00  0.00    +0.000 OA
ATOM     32  O   UNL     1       0.749  12.013  18.539  0.00  0.00    +0.000 OA
ENDBRANCH  23  30
ENDBRANCH  21  26
ENDBRANCH  18  21
ENDBRANCH   1  18
TORSDOF 5
ENDMDL
MODEL 3
REMARK VINA RESULT:      -9.1      5.573      7.636
REMARK  Name = 
REMARK  6 active torsions:
REMARK  status: ('A' for Active; 'I' for Inactive)
REMARK    1  A    between atoms: C_1  and  S_2
REMARK    2  A    between atoms: S_2  and  C_5
REMARK    3  A    between atoms: C_8  and  N_9
REMARK    4  A    between atoms: N_9  and  S_10
REMARK    5  A    between atoms: S_10  and  C_13
REMARK    6  A    between atoms: C_17  and  C_18
REMARK                            x       y       z     vdW  Elec       q    Type
REMARK                         _______ _______ _______ _____ _____    ______ ____
ROOT
ATOM      1  C   UNL     1       2.164   3.691  19.411  0.00  0.00    +0.000 A 
ATOM      2  C   UNL     1       1.601   2.424  19.571  0.00  0.00    +0.000 A 
ATOM      3  C   UNL     1       2.095   1.473  18.691  0.00  0.00    +0.000 A 
ATOM      4  C   UNL     1       3.147   1.846  17.687  0.00  0.00    +0.000 A 
ATOM      5  C   UNL     1       3.803   3.200  17.588  0.00  0.00    +0.000 A 
ATOM      6  C   UNL     1       3.151   4.044  18.429  0.00  0.00    +0.000 A 
ENDROOT
BRANCH   5   7
ATOM      7  C   UNL     1       4.814   3.983  16.426  0.00  0.00    +0.000 A 
ATOM      8  N   UNL     1       5.778   4.517  17.151  0.00  0.00    +0.000 NA
ATOM      9  N   UNL     1       6.128   5.397  16.287  0.00  0.00    +0.000 N 
ATOM     10  C   UNL     1       6.433   4.898  15.073  0.00  0.00    +0.000 A 
ATOM     11  C   UNL     1       7.576   5.496  14.368  0.00  0.00    +0.000 A 
ATOM     12  C   UNL     1       7.963   5.307  13.078  0.00  0.00    +0.000 A 
ATOM     13  F   UNL     1       9.038   5.924  12.555  0.00  0.00    +0.000 F 
ATOM     14  C   UNL     1       7.146   4.454  12.442  0.00  0.00    +0.000 A 
ATOM     15  C   UNL     1       5.922   3.890  13.239  0.00  0.00    +0.000 A 
ATOM     16  C   UNL     1       5.367   3.919  14.750  0.00  0.00    +0.000 A 
ATOM     17  H   UNL     1       5.821   6.332  16.457  0.00  0.00    +0.000 HD
ENDBRANCH   5   7
BRANCH   1  18
ATOM     18  S   UNL     1       1.957   4.989  20.591  0.00  0.00    +0.000 S 
ATOM     19  O   UNL     1       2.576   4.530  21.821  0.00  0.00    +0.000 OA
ATOM     20  O   UNL     1       0.553   5.315  20.537  0.00  0.00    +0.000 OA
BRANCH  18  21
ATOM     21  N   UNL     1       2.788   6.338  20.027  0.00  0.00    +0.000 N 
ATOM     22  H   UNL     1       3.806   6.286  19.946  0.00  0.00    +0.000 HD
BRANCH  21  26
ATOM     23  C   UNL     1       0.788   9.989  19.211  0.00  0.00    +0.000 A 
ATOM     24  C   UNL     1       1.449   9.304  18.188  0.00  0.00    +0.000 A 
ATOM     25  C   UNL     1       2.031   8.050  18.452  0.00  0.00    +0.000 A 
ATOM     26  C   UNL     1       2.090   7.554  19.759  0.00  0.00    +0.000 A 
ATOM     27  C   UNL     1       1.472   8.288  20.776  0.00  0.00    +0.000 A 
ATOM     28  C   UNL     1       0.834   9.505  20.512  0.00  0.00    +0.000 A 
BRANCH  23  30
ATOM     29  C   UNL     1      -0.973  11.805  20.423  0.00  0.00    +0.000 C 
ATOM     30  S   UNL     1      -0.190  11.438  18.857  0.00  0.00    +0.000 S 
ATOM     31  O   UNL     1      -1.200  11.045  17.896  0.00  0.00    +0.000 OA
ATOM     32  O   UNL     1       0.724  12.526  18.567  0.00  0.00    +0.000 OA
ENDBRANCH  23  30
ENDBRANCH  21  26
ENDBRANCH  18  21
ENDBRANCH   1  18
TORSDOF 5
ENDMDL
MODEL 4
REMARK VINA RESULT:      -9.1      5.442      7.638
REMARK  Name = 
REMARK  6 active torsions:
REMARK  status: ('A' for Active; 'I' for Inactive)
REMARK    1  A    between atoms: C_1  and  S_2
REMARK    2  A    between atoms: S_2  and  C_5
REMARK    3  A    between atoms: C_8  and  N_9
REMARK    4  A    between atoms: N_9  and  S_10
REMARK    5  A    between atoms: S_10  and  C_13
REMARK    6  A    between atoms: C_17  and  C_18
REMARK                            x       y       z     vdW  Elec       q    Type
REMARK                         _______ _______ _______ _____ _____    ______ ____
ROOT
ATOM      1  C   UNL     1       2.288   3.603  19.461  0.00  0.00    +0.000 A 
ATOM      2  C   UNL     1       1.827   2.305  19.686  0.00  0.00    +0.000 A 
ATOM      3  C   UNL     1       2.404   1.351  18.863  0.00  0.00    +0.000 A 
ATOM      4  C   UNL     1       3.434   1.753  17.846  0.00  0.00    +0.000 A 
ATOM      5  C   UNL     1       3.980   3.148  17.677  0.00  0.00    +0.000 A 
ATOM      6  C   UNL     1       3.253   3.981  18.467  0.00  0.00    +0.000 A 
ENDROOT
BRANCH   5   7
ATOM      7  C   UNL     1       4.936   3.947  16.480  0.00  0.00    +0.000 A 
ATOM      8  N   UNL     1       5.901   4.520  17.173  0.00  0.00    +0.000 NA
ATOM      9  N   UNL     1       6.202   5.399  16.290  0.00  0.00    +0.000 N 
ATOM     10  C   UNL     1       6.491   4.893  15.075  0.00  0.00    +0.000 A 
ATOM     11  C   UNL     1       7.597   5.516  14.333  0.00  0.00    +0.000 A 
ATOM     12  C   UNL     1       7.957   5.322  13.036  0.00  0.00    +0.000 A 
ATOM     13  F   UNL     1       8.999   5.965  12.478  0.00  0.00    +0.000 F 
ATOM     14  C   UNL     1       7.150   4.437  12.431  0.00  0.00    +0.000 A 
ATOM     15  C   UNL     1       5.966   3.847  13.267  0.00  0.00    +0.000 A 
ATOM     16  C   UNL     1       5.448   3.878  14.791  0.00  0.00    +0.000 A 
ATOM     17  H   UNL     1       5.871   6.325  16.457  0.00  0.00    +0.000 HD
ENDBRANCH   5   7
BRANCH   1  18
ATOM     18  S   UNL     1       1.966   4.942  20.567  0.00  0.00    +0.000 S 
ATOM     19  O   UNL     1       2.501   4.548  21.858  0.00  0.00    +0.000 OA
ATOM     20  O   UNL     1       0.562   5.231  20.396  0.00  0.00    +0.000 OA
BRANCH  18  21
ATOM     21  N   UNL     1       2.807   6.288  20.010  0.00  0.00    +0.000 N 
ATOM     22  H   UNL     1       3.818   6.212  19.879  0.00  0.00    +0.000 HD
BRANCH  21  26
ATOM     23  C   UNL     1       0.723   9.939  19.450  0.00  0.00    +0.000 A 
ATOM     24  C   UNL     1       0.735   9.320  20.702  0.00  0.00    +0.000 A 
ATOM     25  C   UNL     1       1.504   8.158  20.897  0.00  0.00    +0.000 A 
ATOM     26  C   UNL     1       2.131   7.530  19.816  0.00  0.00    +0.000 A 
ATOM     27  C   UNL     1       2.054   8.138  18.559  0.00  0.00    +0.000 A 
ATOM     28  C   UNL     1       1.345   9.329  18.368  0.00  0.00    +0.000 A 
BRANCH  23  30
ATOM     29  C   UNL     1       1.360  12.564  18.691  0.00  0.00    +0.000 C 
ATOM     30  S   UNL     1      -0.011  11.550  19.233  0.00  0.00    +0.000 S 
ATOM     31  O   UNL     1      -0.451  11.997  20.539  0.00  0.00    +0.000 OA
ATOM     32  O   UNL     1      -0.946  11.463  18.128  0.00  0.00    +0.000 OA
ENDBRANCH  23  30
ENDBRANCH  21  26
ENDBRANCH  18  21
ENDBRANCH   1  18
TORSDOF 5
ENDMDL
MODEL 5
REMARK VINA RESULT:      -9.0      3.588      4.779
REMARK  Name = 
REMARK  6 active torsions:
REMARK  status: ('A' for Active; 'I' for Inactive)
REMARK    1  A    between atoms: C_1  and  S_2
REMARK    2  A    between atoms: S_2  and  C_5
REMARK    3  A    between atoms: C_8  and  N_9
REMARK    4  A    between atoms: N_9  and  S_10
REMARK    5  A    between atoms: S_10  and  C_13
REMARK    6  A    between atoms: C_17  and  C_18
REMARK                            x       y       z     vdW  Elec       q    Type
REMARK                         _______ _______ _______ _____ _____    ______ ____
ROOT
ATOM      1  C   UNL     1       4.397   5.231  17.312  0.00  0.00    +0.000 A 
ATOM      2  C   UNL     1       4.539   4.400  16.200  0.00  0.00    +0.000 A 
ATOM      3  C   UNL     1       5.724   4.585  15.505  0.00  0.00    +0.000 A 
ATOM      4  C   UNL     1       6.722   5.605  15.971  0.00  0.00    +0.000 A 
ATOM      5  C   UNL     1       6.587   6.435  17.223  0.00  0.00    +0.000 A 
ATOM      6  C   UNL     1       5.345   6.224  17.734  0.00  0.00    +0.000 A 
ENDROOT
BRANCH   5   7
ATOM      7  C   UNL     1       7.401   7.817  17.865  0.00  0.00    +0.000 A 
ATOM      8  N   UNL     1       8.460   7.313  18.466  0.00  0.00    +0.000 NA
ATOM      9  N   UNL     1       8.667   8.312  19.243  0.00  0.00    +0.000 N 
ATOM     10  C   UNL     1       8.785   9.496  18.610  0.00  0.00    +0.000 A 
ATOM     11  C   UNL     1       9.802  10.430  19.116  0.00  0.00    +0.000 A 
ATOM     12  C   UNL     1       9.987  11.735  18.782  0.00  0.00    +0.000 A 
ATOM     13  F   UNL     1      10.964  12.482  19.328  0.00  0.00    +0.000 F 
ATOM     14  C   UNL     1       9.088  12.141  17.873  0.00  0.00    +0.000 A 
ATOM     15  C   UNL     1       8.006  11.108  17.412  0.00  0.00    +0.000 A 
ATOM     16  C   UNL     1       7.690   9.541  17.612  0.00  0.00    +0.000 A 
ATOM     17  H   UNL     1       8.383   8.200  20.193  0.00  0.00    +0.000 HD
ENDBRANCH   5   7
BRANCH   1  18
ATOM     18  S   UNL     1       3.153   4.986  18.541  0.00  0.00    +0.000 S 
ATOM     19  O   UNL     1       3.478   3.741  19.213  0.00  0.00    +0.000 OA
ATOM     20  O   UNL     1       1.903   5.153  17.840  0.00  0.00    +0.000 OA
BRANCH  18  21
ATOM     21  N   UNL     1       3.260   6.251  19.645  0.00  0.00    +0.000 N 
ATOM     22  H   UNL     1       3.893   6.152  20.442  0.00  0.00    +0.000 HD
BRANCH  21  26
ATOM     23  C   UNL     1       0.675   9.594  19.268  0.00  0.00    +0.000 A 
ATOM     24  C   UNL     1       0.728   8.876  20.466  0.00  0.00    +0.000 A 
ATOM     25  C   UNL     1       1.655   7.826  20.608  0.00  0.00    +0.000 A 
ATOM     26  C   UNL     1       2.413   7.393  19.515  0.00  0.00    +0.000 A 
ATOM     27  C   UNL     1       2.298   8.091  18.309  0.00  0.00    +0.000 A 
ATOM     28  C   UNL     1       1.427   9.178  18.175  0.00  0.00    +0.000 A 
BRANCH  23  30
ATOM     29  C   UNL     1      -1.428  10.745  17.811  0.00  0.00    +0.000 C 
ATOM     30  S   UNL     1      -0.283  11.092  19.142  0.00  0.00    +0.000 S 
ATOM     31  O   UNL     1       0.624  12.145  18.732  0.00  0.00    +0.000 OA
ATOM     32  O   UNL     1      -1.063  11.220  20.358  0.00  0.00    +0.000 OA
ENDBRANCH  23  30
ENDBRANCH  21  26
ENDBRANCH  18  21
ENDBRANCH   1  18
TORSDOF 5
ENDMDL
MODEL 6
REMARK VINA RESULT:      -9.0      7.375      9.641
REMARK  Name = 
REMARK  6 active torsions:
REMARK  status: ('A' for Active; 'I' for Inactive)
REMARK    1  A    between atoms: C_1  and  S_2
REMARK    2  A    between atoms: S_2  and  C_5
REMARK    3  A    between atoms: C_8  and  N_9
REMARK    4  A    between atoms: N_9  and  S_10
REMARK    5  A    between atoms: S_10  and  C_13
REMARK    6  A    between atoms: C_17  and  C_18
REMARK                            x       y       z     vdW  Elec       q    Type
REMARK                         _______ _______ _______ _____ _____    ______ ____
ROOT
ATOM      1  C   UNL     1       0.577   9.968  19.903  0.00  0.00    +0.000 A 
ATOM      2  C   UNL     1      -0.287   9.790  20.983  0.00  0.00    +0.000 A 
ATOM      3  C   UNL     1      -0.158   8.561  21.612  0.00  0.00    +0.000 A 
ATOM      4  C   UNL     1       0.852   7.564  21.121  0.00  0.00    +0.000 A 
ATOM      5  C   UNL     1       1.835   7.809  20.005  0.00  0.00    +0.000 A 
ATOM      6  C   UNL     1       1.521   8.997  19.423  0.00  0.00    +0.000 A 
ENDROOT
BRANCH   5   7
ATOM      7  C   UNL     1       2.899   6.815  19.075  0.00  0.00    +0.000 A 
ATOM      8  N   UNL     1       2.420   5.597  19.238  0.00  0.00    +0.000 NA
ATOM      9  N   UNL     1       3.502   4.981  18.933  0.00  0.00    +0.000 N 
ATOM     10  C   UNL     1       4.018   5.319  17.734  0.00  0.00    +0.000 A 
ATOM     11  C   UNL     1       4.593   4.237  16.921  0.00  0.00    +0.000 A 
ATOM     12  C   UNL     1       5.332   4.339  15.784  0.00  0.00    +0.000 A 
ATOM     13  F   UNL     1       5.802   3.258  15.136  0.00  0.00    +0.000 F 
ATOM     14  C   UNL     1       5.511   5.621  15.430  0.00  0.00    +0.000 A 
ATOM     15  C   UNL     1       4.910   6.723  16.366  0.00  0.00    +0.000 A 
ATOM     16  C   UNL     1       3.956   6.799  17.660  0.00  0.00    +0.000 A 
ATOM     17  H   UNL     1       4.029   4.608  19.694  0.00  0.00    +0.000 HD
ENDBRANCH   5   7
BRANCH   1  18
ATOM     18  S   UNL     1       0.845  11.537  19.136  0.00  0.00    +0.000 S 
ATOM     19  O   UNL     1       2.044  11.400  18.328  0.00  0.00    +0.000 OA
ATOM     20  O   UNL     1       0.776  12.491  20.215  0.00  0.00    +0.000 OA
BRANCH  18  21
ATOM     21  N   UNL     1      -0.464  11.851  18.128  0.00  0.00    +0.000 N 
ATOM     22  H   UNL     1      -0.290  11.992  17.131  0.00  0.00    +0.000 HD
BRANCH  21  26
ATOM     23  C   UNL     1      -4.376  12.363  19.687  0.00  0.00    +0.000 A 
ATOM     24  C   UNL     1      -4.171  11.599  18.535  0.00  0.00    +0.000 A 
ATOM     25  C   UNL     1      -2.861  11.363  18.080  0.00  0.00    +0.000 A 
ATOM     26  C   UNL     1      -1.773  12.008  18.677  0.00  0.00    +0.000 A 
ATOM     27  C   UNL     1      -2.011  12.816  19.793  0.00  0.00    +0.000 A 
ATOM     28  C   UNL     1      -3.304  13.007  20.293  0.00  0.00    +0.000 A 
BRANCH  23  30
ATOM     29  C   UNL     1      -7.040  13.035  19.119  0.00  0.00    +0.000 C 
ATOM     30  S   UNL     1      -5.987  12.458  20.446  0.00  0.00    +0.000 S 
ATOM     31  O   UNL     1      -5.913  13.474  21.476  0.00  0.00    +0.000 OA
ATOM     32  O   UNL     1      -6.403  11.106  20.768  0.00  0.00    +0.000 OA
ENDBRANCH  23  30
ENDBRANCH  21  26
ENDBRANCH  18  21
ENDBRANCH   1  18
TORSDOF 5
ENDMDL
MODEL 7
REMARK VINA RESULT:      -9.0      7.642     10.312
REMARK  Name = 
REMARK  6 active torsions:
REMARK  status: ('A' for Active; 'I' for Inactive)
REMARK    1  A    between atoms: C_1  and  S_2
REMARK    2  A    between atoms: S_2  and  C_5
REMARK    3  A    between atoms: C_8  and  N_9
REMARK    4  A    between atoms: N_9  and  S_10
REMARK    5  A    between atoms: S_10  and  C_13
REMARK    6  A    between atoms: C_17  and  C_18
REMARK                            x       y       z     vdW  Elec       q    Type
REMARK                         _______ _______ _______ _____ _____    ______ ____
ROOT
ATOM      1  C   UNL     1       0.132  10.794  20.429  0.00  0.00    +0.000 A 
ATOM      2  C   UNL     1      -0.368  11.230  21.656  0.00  0.00    +0.000 A 
ATOM      3  C   UNL     1      -0.301  10.279  22.662  0.00  0.00    +0.000 A 
ATOM      4  C   UNL     1       0.277   8.922  22.382  0.00  0.00    +0.000 A 
ATOM      5  C   UNL     1       0.888   8.498  21.070  0.00  0.00    +0.000 A 
ATOM      6  C   UNL     1       0.657   9.483  20.163  0.00  0.00    +0.000 A 
ENDROOT
BRANCH   5   7
ATOM      7  C   UNL     1       1.380   6.991  20.383  0.00  0.00    +0.000 A 
ATOM      8  N   UNL     1       2.524   7.269  19.791  0.00  0.00    +0.000 NA
ATOM      9  N   UNL     1       2.508   6.273  18.984  0.00  0.00    +0.000 N 
ATOM     10  C   UNL     1       2.362   5.074  19.581  0.00  0.00    +0.000 A 
ATOM     11  C   UNL     1       3.150   3.955  19.041  0.00  0.00    +0.000 A 
ATOM     12  C   UNL     1       3.044   2.631  19.334  0.00  0.00    +0.000 A 
ATOM     13  F   UNL     1       3.834   1.705  18.761  0.00  0.00    +0.000 F 
ATOM     14  C   UNL     1       2.077   2.406  20.237  0.00  0.00    +0.000 A 
ATOM     15  C   UNL     1       1.248   3.636  20.735  0.00  0.00    +0.000 A 
ATOM     16  C   UNL     1       1.283   5.239  20.584  0.00  0.00    +0.000 A 
ATOM     17  H   UNL     1       2.255   6.473  18.039  0.00  0.00    +0.000 HD
ENDBRANCH   5   7
BRANCH   1  18
ATOM     18  S   UNL     1       0.460  11.888  19.081  0.00  0.00    +0.000 S 
ATOM     19  O   UNL     1       1.768  11.526  18.567  0.00  0.00    +0.000 OA
ATOM     20  O   UNL     1       0.201  13.206  19.606  0.00  0.00    +0.000 OA
BRANCH  18  21
ATOM     21  N   UNL     1      -0.696  11.606  17.892  0.00  0.00    +0.000 N 
ATOM     22  H   UNL     1      -0.395  11.577  16.916  0.00  0.00    +0.000 HD
BRANCH  21  26
ATOM     23  C   UNL     1      -4.821  11.329  18.845  0.00  0.00    +0.000 A 
ATOM     24  C   UNL     1      -4.254  10.459  17.910  0.00  0.00    +0.000 A 
ATOM     25  C   UNL     1      -2.868  10.502  17.670  0.00  0.00    +0.000 A 
ATOM     26  C   UNL     1      -2.077  11.505  18.240  0.00  0.00    +0.000 A 
ATOM     27  C   UNL     1      -2.680  12.401  19.128  0.00  0.00    +0.000 A 
ATOM     28  C   UNL     1      -4.046  12.327  19.424  0.00  0.00    +0.000 A 
BRANCH  23  30
ATOM     29  C   UNL     1      -7.371  12.458  18.549  0.00  0.00    +0.000 C 
ATOM     30  S   UNL     1      -6.511  11.125  19.376  0.00  0.00    +0.000 S 
ATOM     31  O   UNL     1      -6.538  11.351  20.807  0.00  0.00    +0.000 OA
ATOM     32  O   UNL     1      -7.002   9.882  18.814  0.00  0.00    +0.000 OA
ENDBRANCH  23  30
ENDBRANCH  21  26
ENDBRANCH  18  21
ENDBRANCH   1  18
TORSDOF 5
ENDMDL
MODEL 8
REMARK VINA RESULT:      -8.9      8.358     10.527
REMARK  Name = 
REMARK  6 active torsions:
REMARK  status: ('A' for Active; 'I' for Inactive)
REMARK    1  A    between atoms: C_1  and  S_2
REMARK    2  A    between atoms: S_2  and  C_5
REMARK    3  A    between atoms: C_8  and  N_9
REMARK    4  A    between atoms: N_9  and  S_10
REMARK    5  A    between atoms: S_10  and  C_13
REMARK    6  A    between atoms: C_17  and  C_18
REMARK                            x       y       z     vdW  Elec       q    Type
REMARK                         _______ _______ _______ _____ _____    ______ ____
ROOT
ATOM      1  C   UNL     1       0.488  12.668  19.085  0.00  0.00    +0.000 A 
ATOM      2  C   UNL     1      -0.769  12.914  18.533  0.00  0.00    +0.000 A 
ATOM      3  C   UNL     1      -1.470  11.766  18.193  0.00  0.00    +0.000 A 
ATOM      4  C   UNL     1      -0.866  10.413  18.433  0.00  0.00    +0.000 A 
ATOM      5  C   UNL     1       0.459  10.167  19.109  0.00  0.00    +0.000 A 
ATOM      6  C   UNL     1       1.069  11.369  19.285  0.00  0.00    +0.000 A 
ENDROOT
BRANCH   5   7
ATOM      7  C   UNL     1       1.501   8.801  19.291  0.00  0.00    +0.000 A 
ATOM      8  N   UNL     1       1.027   8.178  20.351  0.00  0.00    +0.000 NA
ATOM      9  N   UNL     1       2.102   7.536  20.626  0.00  0.00    +0.000 N 
ATOM     10  C   UNL     1       2.589   6.800  19.607  0.00  0.00    +0.000 A 
ATOM     11  C   UNL     1       3.145   5.479  19.937  0.00  0.00    +0.000 A 
ATOM     12  C   UNL     1       3.856   4.641  19.137  0.00  0.00    +0.000 A 
ATOM     13  F   UNL     1       4.311   3.451  19.572  0.00  0.00    +0.000 F 
ATOM     14  C   UNL     1       4.026   5.160  17.912  0.00  0.00    +0.000 A 
ATOM     15  C   UNL     1       3.447   6.589  17.643  0.00  0.00    +0.000 A 
ATOM     16  C   UNL     1       2.524   7.666  18.405  0.00  0.00    +0.000 A 
ATOM     17  H   UNL     1       2.647   7.888  21.384  0.00  0.00    +0.000 HD
ENDBRANCH   5   7
BRANCH   1  18
ATOM     18  S   UNL     1       1.444  13.915  19.891  0.00  0.00    +0.000 S 
ATOM     19  O   UNL     1       0.981  15.189  19.370  0.00  0.00    +0.000 OA
ATOM     20  O   UNL     1       2.814  13.493  19.727  0.00  0.00    +0.000 OA
BRANCH  18  21
ATOM     21  N   UNL     1       1.109  13.840  21.538  0.00  0.00    +0.000 N 
ATOM     22  H   UNL     1       1.891  13.839  22.196  0.00  0.00    +0.000 HD
BRANCH  21  26
ATOM     23  C   UNL     1      -2.905  13.344  22.818  0.00  0.00    +0.000 A 
ATOM     24  C   UNL     1      -2.062  12.235  22.696  0.00  0.00    +0.000 A 
ATOM     25  C   UNL     1      -0.709  12.424  22.357  0.00  0.00    +0.000 A 
ATOM     26  C   UNL     1      -0.236  13.688  21.993  0.00  0.00    +0.000 A 
ATOM     27  C   UNL     1      -1.115  14.773  22.066  0.00  0.00    +0.000 A 
ATOM     28  C   UNL     1      -2.446  14.607  22.464  0.00  0.00    +0.000 A 
BRANCH  23  30
ATOM     29  C   UNL     1      -5.553  12.784  22.082  0.00  0.00    +0.000 C 
ATOM     30  S   UNL     1      -4.542  13.175  23.505  0.00  0.00    +0.000 S 
ATOM     31  O   UNL     1      -4.922  14.474  24.023  0.00  0.00    +0.000 OA
ATOM     32  O   UNL     1      -4.540  12.008  24.366  0.00  0.00    +0.000 OA
ENDBRANCH  23  30
ENDBRANCH  21  26
ENDBRANCH  18  21
ENDBRANCH   1  18
TORSDOF 5
ENDMDL
MODEL 9
REMARK VINA RESULT:      -8.9      7.375      9.567
REMARK  Name = 
REMARK  6 active torsions:
REMARK  status: ('A' for Active; 'I' for Inactive)
REMARK    1  A    between atoms: C_1  and  S_2
REMARK    2  A    between atoms: S_2  and  C_5
REMARK    3  A    between atoms: C_8  and  N_9
REMARK    4  A    between atoms: N_9  and  S_10
REMARK    5  A    between atoms: S_10  and  C_13
REMARK    6  A    between atoms: C_17  and  C_18
REMARK                            x       y       z     vdW  Elec       q    Type
REMARK                         _______ _______ _______ _____ _____    ______ ____
ROOT
ATOM      1  C   UNL     1       0.740  10.006  19.769  0.00  0.00    +0.000 A 
ATOM      2  C   UNL     1      -0.137   9.853  20.843  0.00  0.00    +0.000 A 
ATOM      3  C   UNL     1      -0.047   8.621  21.473  0.00  0.00    +0.000 A 
ATOM      4  C   UNL     1       0.936   7.594  20.989  0.00  0.00    +0.000 A 
ATOM      5  C   UNL     1       1.933   7.811  19.879  0.00  0.00    +0.000 A 
ATOM      6  C   UNL     1       1.658   9.007  19.296  0.00  0.00    +0.000 A 
ENDROOT
BRANCH   5   7
ATOM      7  C   UNL     1       2.974   6.786  18.957  0.00  0.00    +0.000 A 
ATOM      8  N   UNL     1       2.436   5.589  19.082  0.00  0.00    +0.000 NA
ATOM      9  N   UNL     1       3.496   4.929  18.792  0.00  0.00    +0.000 N 
ATOM     10  C   UNL     1       4.058   5.266  17.615  0.00  0.00    +0.000 A 
ATOM     11  C   UNL     1       4.604   4.174  16.794  0.00  0.00    +0.000 A 
ATOM     12  C   UNL     1       5.376   4.264  15.678  0.00  0.00    +0.000 A 
ATOM     13  F   UNL     1       5.813   3.174  15.020  0.00  0.00    +0.000 F 
ATOM     14  C   UNL     1       5.623   5.542  15.355  0.00  0.00    +0.000 A 
ATOM     15  C   UNL     1       5.050   6.653  16.298  0.00  0.00    +0.000 A 
ATOM     16  C   UNL     1       4.066   6.748  17.569  0.00  0.00    +0.000 A 
ATOM     17  H   UNL     1       3.984   4.517  19.558  0.00  0.00    +0.000 HD
ENDBRANCH   5   7
BRANCH   1  18
ATOM     18  S   UNL     1       1.059  11.566  19.005  0.00  0.00    +0.000 S 
ATOM     19  O   UNL     1       2.206  11.371  18.135  0.00  0.00    +0.000 OA
ATOM     20  O   UNL     1       1.100  12.509  20.096  0.00  0.00    +0.000 OA
BRANCH  18  21
ATOM     21  N   UNL     1      -0.279  11.968  18.069  0.00  0.00    +0.000 N 
ATOM     22  H   UNL     1      -0.146  12.121  17.067  0.00  0.00    +0.000 HD
BRANCH  21  26
ATOM     23  C   UNL     1      -4.028  12.553  19.966  0.00  0.00    +0.000 A 
ATOM     24  C   UNL     1      -2.875  13.149  20.485  0.00  0.00    +0.000 A 
ATOM     25  C   UNL     1      -1.655  13.021  19.796  0.00  0.00    +0.000 A 
ATOM     26  C   UNL     1      -1.550  12.179  18.684  0.00  0.00    +0.000 A 
ATOM     27  C   UNL     1      -2.707  11.546  18.219  0.00  0.00    +0.000 A 
ATOM     28  C   UNL     1      -3.940  11.718  18.859  0.00  0.00    +0.000 A 
BRANCH  23  30
ATOM     29  C   UNL     1      -5.255  13.911  22.092  0.00  0.00    +0.000 C 
ATOM     30  S   UNL     1      -5.633  12.915  20.654  0.00  0.00    +0.000 S 
ATOM     31  O   UNL     1      -6.208  11.656  21.080  0.00  0.00    +0.000 OA
ATOM     32  O   UNL     1      -6.334  13.767  19.713  0.00  0.00    +0.000 OA
ENDBRANCH  23  30
ENDBRANCH  21  26
ENDBRANCH  18  21
ENDBRANCH   1  18
TORSDOF 5
ENDMDL
