MODEL 1
REMARK VINA RESULT:      -7.8      0.000      0.000
REMARK  Name = 
REMARK  11 active torsions:
REMARK  status: ('A' for Active; 'I' for Inactive)
REMARK    1  A    between atoms: C_2  and  C_3
REMARK    2  A    between atoms: C_3  and  O_4
REMARK    3  A    between atoms: O_4  and  C_5
REMARK    4  A    between atoms: C_5  and  C_7
REMARK    5  A    between atoms: C_7  and  C_8
REMARK    6  A    between atoms: C_7  and  C_9
REMARK    7  A    between atoms: C_13  and  C_14
REMARK    8  A    between atoms: C_16  and  O_17
REMARK    9  A    between atoms: O_17  and  C_18
REMARK   10  A    between atoms: C_18  and  C_19
REMARK   11  A    between atoms: C_21  and  C_22
REMARK                            x       y       z     vdW  Elec       q    Type
REMARK                         _______ _______ _______ _____ _____    ______ ____
ROOT
ATOM      1  C   UNL     1       5.004   4.957  17.566  0.00  0.00    +0.000 C 
ATOM      2  C   UNL     1       4.251   3.649  17.797  0.00  0.00    +0.000 C 
ATOM      3  C   UNL     1       3.734   3.617  19.225  0.00  0.00    +0.000 C 
ATOM      4  C   UNL     1       2.963   4.855  19.627  0.00  0.00    +0.000 A 
ATOM      5  C   UNL     1       2.111   4.801  20.746  0.00  0.00    +0.000 A 
ATOM      6  C   UNL     1       1.946   3.569  21.605  0.00  0.00    +0.000 C 
ATOM      7  C   UNL     1       1.364   5.934  21.106  0.00  0.00    +0.000 A 
ATOM      8  C   UNL     1       1.491   7.142  20.411  0.00  0.00    +0.000 A 
ATOM      9  C   UNL     1       2.360   7.234  19.316  0.00  0.00    +0.000 A 
ATOM     10  C   UNL     1       2.502   8.520  18.534  0.00  0.00    +0.000 C 
ATOM     11  C   UNL     1       3.105   6.071  18.921  0.00  0.00    +0.000 A 
ATOM     12  C   UNL     1       4.006   6.132  17.700  0.00  0.00    +0.000 C 
ENDROOT
BRANCH   1  13
ATOM     13  C   UNL     1       5.728   4.956  16.199  0.00  0.00    +0.000 C 
ATOM     14  C   UNL     1       5.175   6.071  15.307  0.00  0.00    +0.000 C 
BRANCH  13  15
ATOM     15  C   UNL     1       7.235   5.163  16.387  0.00  0.00    +0.000 C 
ATOM     16  O   UNL     1       8.054   4.254  16.359  0.00  0.00    +0.000 OA
BRANCH  15  17
ATOM     17  O   UNL     1       7.539   6.482  16.563  0.00  0.00    +0.000 OA
BRANCH  17  18
ATOM     18  C   UNL     1       7.716   6.915  17.932  0.00  0.00    +0.000 C 
BRANCH  18  20
ATOM     19  C   UNL     1       8.473   9.634  18.008  0.00  0.00    +0.000 C 
ATOM     20  C   UNL     1       8.124   8.379  17.973  0.00  0.00    +0.000 C 
ENDBRANCH  18  20
ENDBRANCH  17  18
ENDBRANCH  15  17
ENDBRANCH  13  15
ENDBRANCH   1  13
BRANCH   8  21
ATOM     21  O   UNL     1       0.760   8.320  20.795  0.00  0.00    +0.000 OA
BRANCH  21  22
ATOM     22  C   UNL     1       0.846   9.009  22.013  0.00  0.00    +0.000 C 
ATOM     23  C   UNL     1      -0.506   9.293  22.595  0.00  0.00    +0.000 C 
ATOM     24  O   UNL     1       1.869   9.368  22.581  0.00  0.00    +0.000 OA
ENDBRANCH  21  22
ENDBRANCH   8  21
TORSDOF 7
ENDMDL
MODEL 2
REMARK VINA RESULT:      -7.5      0.951      1.208
REMARK  Name = 
REMARK  11 active torsions:
REMARK  status: ('A' for Active; 'I' for Inactive)
REMARK    1  A    between atoms: C_2  and  C_3
REMARK    2  A    between atoms: C_3  and  O_4
REMARK    3  A    between atoms: O_4  and  C_5
REMARK    4  A    between atoms: C_5  and  C_7
REMARK    5  A    between atoms: C_7  and  C_8
REMARK    6  A    between atoms: C_7  and  C_9
REMARK    7  A    between atoms: C_13  and  C_14
REMARK    8  A    between atoms: C_16  and  O_17
REMARK    9  A    between atoms: O_17  and  C_18
REMARK   10  A    between atoms: C_18  and  C_19
REMARK   11  A    between atoms: C_21  and  C_22
REMARK                            x       y       z     vdW  Elec       q    Type
REMARK                         _______ _______ _______ _____ _____    ______ ____
ROOT
ATOM      1  C   UNL     1       5.109   4.530  17.323  0.00  0.00    +0.000 C 
ATOM      2  C   UNL     1       4.323   3.275  17.693  0.00  0.00    +0.000 C 
ATOM      3  C   UNL     1       3.865   3.381  19.137  0.00  0.00    +0.000 C 
ATOM      4  C   UNL     1       3.153   4.675  19.462  0.00  0.00    +0.000 A 
ATOM      5  C   UNL     1       2.347   4.746  20.614  0.00  0.00    +0.000 A 
ATOM      6  C   UNL     1       2.176   3.597  21.579  0.00  0.00    +0.000 C 
ATOM      7  C   UNL     1       1.653   5.932  20.905  0.00  0.00    +0.000 A 
ATOM      8  C   UNL     1       1.791   7.072  20.106  0.00  0.00    +0.000 A 
ATOM      9  C   UNL     1       2.616   7.041  18.974  0.00  0.00    +0.000 A 
ATOM     10  C   UNL     1       2.769   8.251  18.081  0.00  0.00    +0.000 C 
ATOM     11  C   UNL     1       3.306   5.822  18.650  0.00  0.00    +0.000 A 
ATOM     12  C   UNL     1       4.157   5.748  17.394  0.00  0.00    +0.000 C 
ENDROOT
BRANCH   1  13
ATOM     13  C   UNL     1       5.775   4.389  15.933  0.00  0.00    +0.000 C 
ATOM     14  C   UNL     1       4.717   4.470  14.829  0.00  0.00    +0.000 C 
BRANCH  13  15
ATOM     15  C   UNL     1       6.813   5.497  15.718  0.00  0.00    +0.000 C 
ATOM     16  O   UNL     1       7.786   5.382  14.986  0.00  0.00    +0.000 OA
BRANCH  15  17
ATOM     17  O   UNL     1       6.496   6.621  16.425  0.00  0.00    +0.000 OA
BRANCH  17  18
ATOM     18  C   UNL     1       7.554   7.176  17.240  0.00  0.00    +0.000 C 
BRANCH  18  20
ATOM     19  C   UNL     1       7.837   5.687  19.623  0.00  0.00    +0.000 C 
ATOM     20  C   UNL     1       7.706   6.374  18.524  0.00  0.00    +0.000 C 
ENDBRANCH  18  20
ENDBRANCH  17  18
ENDBRANCH  15  17
ENDBRANCH  13  15
ENDBRANCH   1  13
BRANCH   8  21
ATOM     21  O   UNL     1       1.116   8.304  20.416  0.00  0.00    +0.000 OA
BRANCH  21  22
ATOM     22  C   UNL     1       0.955   8.883  21.683  0.00  0.00    +0.000 C 
ATOM     23  C   UNL     1      -0.483   8.913  22.108  0.00  0.00    +0.000 C 
ATOM     24  O   UNL     1       1.838   9.333  22.400  0.00  0.00    +0.000 OA
ENDBRANCH  21  22
ENDBRANCH   8  21
TORSDOF 7
ENDMDL
MODEL 3
REMARK VINA RESULT:      -7.2      1.303      1.465
REMARK  Name = 
REMARK  11 active torsions:
REMARK  status: ('A' for Active; 'I' for Inactive)
REMARK    1  A    between atoms: C_2  and  C_3
REMARK    2  A    between atoms: C_3  and  O_4
REMARK    3  A    between atoms: O_4  and  C_5
REMARK    4  A    between atoms: C_5  and  C_7
REMARK    5  A    between atoms: C_7  and  C_8
REMARK    6  A    between atoms: C_7  and  C_9
REMARK    7  A    between atoms: C_13  and  C_14
REMARK    8  A    between atoms: C_16  and  O_17
REMARK    9  A    between atoms: O_17  and  C_18
REMARK   10  A    between atoms: C_18  and  C_19
REMARK   11  A    between atoms: C_21  and  C_22
REMARK                            x       y       z     vdW  Elec       q    Type
REMARK                         _______ _______ _______ _____ _____    ______ ____
ROOT
ATOM      1  C   UNL     1       4.499   5.413  17.018  0.00  0.00    +0.000 C 
ATOM      2  C   UNL     1       3.788   4.097  17.324  0.00  0.00    +0.000 C 
ATOM      3  C   UNL     1       3.492   4.024  18.812  0.00  0.00    +0.000 C 
ATOM      4  C   UNL     1       2.791   5.248  19.359  0.00  0.00    +0.000 A 
ATOM      5  C   UNL     1       2.118   5.161  20.592  0.00  0.00    +0.000 A 
ATOM      6  C   UNL     1       2.082   3.906  21.431  0.00  0.00    +0.000 C 
ATOM      7  C   UNL     1       1.434   6.281  21.091  0.00  0.00    +0.000 A 
ATOM      8  C   UNL     1       1.456   7.508  20.419  0.00  0.00    +0.000 A 
ATOM      9  C   UNL     1       2.150   7.633  19.209  0.00  0.00    +0.000 A 
ATOM     10  C   UNL     1       2.174   8.940  18.450  0.00  0.00    +0.000 C 
ATOM     11  C   UNL     1       2.826   6.483  18.674  0.00  0.00    +0.000 A 
ATOM     12  C   UNL     1       3.533   6.581  17.333  0.00  0.00    +0.000 C 
ENDROOT
BRANCH   1  13
ATOM     13  C   UNL     1       5.008   5.452  15.558  0.00  0.00    +0.000 C 
ATOM     14  C   UNL     1       5.312   6.894  15.142  0.00  0.00    +0.000 C 
BRANCH  13  15
ATOM     15  C   UNL     1       6.278   4.607  15.408  0.00  0.00    +0.000 C 
ATOM     16  O   UNL     1       6.343   3.594  14.723  0.00  0.00    +0.000 OA
BRANCH  15  17
ATOM     17  O   UNL     1       7.319   5.142  16.111  0.00  0.00    +0.000 OA
BRANCH  17  18
ATOM     18  C   UNL     1       7.783   4.369  17.243  0.00  0.00    +0.000 C 
BRANCH  18  20
ATOM     19  C   UNL     1       7.604   5.900  19.609  0.00  0.00    +0.000 C 
ATOM     20  C   UNL     1       7.686   5.194  18.517  0.00  0.00    +0.000 C 
ENDBRANCH  18  20
ENDBRANCH  17  18
ENDBRANCH  15  17
ENDBRANCH  13  15
ENDBRANCH   1  13
BRANCH   8  21
ATOM     21  O   UNL     1       0.792   8.673  20.941  0.00  0.00    +0.000 OA
BRANCH  21  22
ATOM     22  C   UNL     1       0.952   9.237  22.214  0.00  0.00    +0.000 C 
ATOM     23  C   UNL     1      -0.365   9.549  22.860  0.00  0.00    +0.000 C 
ATOM     24  O   UNL     1       2.009   9.477  22.782  0.00  0.00    +0.000 OA
ENDBRANCH  21  22
ENDBRANCH   8  21
TORSDOF 7
ENDMDL
MODEL 4
REMARK VINA RESULT:      -7.2      1.577      1.963
REMARK  Name = 
REMARK  11 active torsions:
REMARK  status: ('A' for Active; 'I' for Inactive)
REMARK    1  A    between atoms: C_2  and  C_3
REMARK    2  A    between atoms: C_3  and  O_4
REMARK    3  A    between atoms: O_4  and  C_5
REMARK    4  A    between atoms: C_5  and  C_7
REMARK    5  A    between atoms: C_7  and  C_8
REMARK    6  A    between atoms: C_7  and  C_9
REMARK    7  A    between atoms: C_13  and  C_14
REMARK    8  A    between atoms: C_16  and  O_17
REMARK    9  A    between atoms: O_17  and  C_18
REMARK   10  A    between atoms: C_18  and  C_19
REMARK   11  A    between atoms: C_21  and  C_22
REMARK                            x       y       z     vdW  Elec       q    Type
REMARK                         _______ _______ _______ _____ _____    ______ ____
ROOT
ATOM      1  C   UNL     1       5.074   4.273  17.123  0.00  0.00    +0.000 C 
ATOM      2  C   UNL     1       4.011   3.208  17.380  0.00  0.00    +0.000 C 
ATOM      3  C   UNL     1       3.397   3.439  18.750  0.00  0.00    +0.000 C 
ATOM      4  C   UNL     1       2.920   4.856  18.978  0.00  0.00    +0.000 A 
ATOM      5  C   UNL     1       1.999   5.114  20.011  0.00  0.00    +0.000 A 
ATOM      6  C   UNL     1       1.476   4.047  20.942  0.00  0.00    +0.000 C 
ATOM      7  C   UNL     1       1.524   6.421  20.208  0.00  0.00    +0.000 A 
ATOM      8  C   UNL     1       1.991   7.491  19.437  0.00  0.00    +0.000 A 
ATOM      9  C   UNL     1       2.936   7.269  18.427  0.00  0.00    +0.000 A 
ATOM     10  C   UNL     1       3.445   8.402  17.565  0.00  0.00    +0.000 C 
ATOM     11  C   UNL     1       3.405   5.929  18.197  0.00  0.00    +0.000 A 
ATOM     12  C   UNL     1       4.384   5.657  17.067  0.00  0.00    +0.000 C 
ENDROOT
BRANCH   1  13
ATOM     13  C   UNL     1       5.876   3.968  15.835  0.00  0.00    +0.000 C 
ATOM     14  C   UNL     1       5.078   4.396  14.600  0.00  0.00    +0.000 C 
BRANCH  13  15
ATOM     15  C   UNL     1       7.219   4.709  15.849  0.00  0.00    +0.000 C 
ATOM     16  O   UNL     1       7.555   5.520  14.997  0.00  0.00    +0.000 OA
BRANCH  15  17
ATOM     17  O   UNL     1       7.967   4.365  16.938  0.00  0.00    +0.000 OA
BRANCH  17  18
ATOM     18  C   UNL     1       7.685   5.093  18.156  0.00  0.00    +0.000 C 
BRANCH  18  20
ATOM     19  C   UNL     1       7.726   7.874  17.665  0.00  0.00    +0.000 C 
ATOM     20  C   UNL     1       7.707   6.590  17.891  0.00  0.00    +0.000 C 
ENDBRANCH  18  20
ENDBRANCH  17  18
ENDBRANCH  15  17
ENDBRANCH  13  15
ENDBRANCH   1  13
BRANCH   8  21
ATOM     21  O   UNL     1       1.541   8.840  19.656  0.00  0.00    +0.000 OA
BRANCH  21  22
ATOM     22  C   UNL     1       0.879   9.669  18.739  0.00  0.00    +0.000 C 
ATOM     23  C   UNL     1       1.211  11.116  18.950  0.00  0.00    +0.000 C 
ATOM     24  O   UNL     1       0.109   9.317  17.857  0.00  0.00    +0.000 OA
ENDBRANCH  21  22
ENDBRANCH   8  21
TORSDOF 7
ENDMDL
MODEL 5
REMARK VINA RESULT:      -7.2      2.580      7.261
REMARK  Name = 
REMARK  11 active torsions:
REMARK  status: ('A' for Active; 'I' for Inactive)
REMARK    1  A    between atoms: C_2  and  C_3
REMARK    2  A    between atoms: C_3  and  O_4
REMARK    3  A    between atoms: O_4  and  C_5
REMARK    4  A    between atoms: C_5  and  C_7
REMARK    5  A    between atoms: C_7  and  C_8
REMARK    6  A    between atoms: C_7  and  C_9
REMARK    7  A    between atoms: C_13  and  C_14
REMARK    8  A    between atoms: C_16  and  O_17
REMARK    9  A    between atoms: O_17  and  C_18
REMARK   10  A    between atoms: C_18  and  C_19
REMARK   11  A    between atoms: C_21  and  C_22
REMARK                            x       y       z     vdW  Elec       q    Type
REMARK                         _______ _______ _______ _____ _____    ______ ____
ROOT
ATOM      1  C   UNL     1       1.596   8.308  18.980  0.00  0.00    +0.000 C 
ATOM      2  C   UNL     1       1.769   7.749  20.389  0.00  0.00    +0.000 C 
ATOM      3  C   UNL     1       1.827   6.232  20.320  0.00  0.00    +0.000 C 
ATOM      4  C   UNL     1       2.827   5.702  19.317  0.00  0.00    +0.000 A 
ATOM      5  C   UNL     1       3.266   4.368  19.422  0.00  0.00    +0.000 A 
ATOM      6  C   UNL     1       2.762   3.410  20.475  0.00  0.00    +0.000 C 
ATOM      7  C   UNL     1       4.221   3.877  18.517  0.00  0.00    +0.000 A 
ATOM      8  C   UNL     1       4.706   4.667  17.469  0.00  0.00    +0.000 A 
ATOM      9  C   UNL     1       4.259   5.986  17.318  0.00  0.00    +0.000 A 
ATOM     10  C   UNL     1       4.780   6.869  16.208  0.00  0.00    +0.000 C 
ATOM     11  C   UNL     1       3.305   6.508  18.259  0.00  0.00    +0.000 A 
ATOM     12  C   UNL     1       2.853   7.954  18.149  0.00  0.00    +0.000 C 
ENDROOT
BRANCH   1  13
ATOM     13  C   UNL     1       1.323   9.831  19.008  0.00  0.00    +0.000 C 
ATOM     14  C   UNL     1       1.827  10.483  17.717  0.00  0.00    +0.000 C 
BRANCH  13  15
ATOM     15  C   UNL     1      -0.178  10.107  19.158  0.00  0.00    +0.000 C 
ATOM     16  O   UNL     1      -0.690  10.533  20.184  0.00  0.00    +0.000 OA
BRANCH  15  17
ATOM     17  O   UNL     1      -0.852   9.840  18.001  0.00  0.00    +0.000 OA
BRANCH  17  18
ATOM     18  C   UNL     1      -1.903  10.770  17.652  0.00  0.00    +0.000 C 
BRANCH  18  20
ATOM     19  C   UNL     1      -2.848  10.243  15.043  0.00  0.00    +0.000 C 
ATOM     20  C   UNL     1      -2.412  10.486  16.247  0.00  0.00    +0.000 C 
ENDBRANCH  18  20
ENDBRANCH  17  18
ENDBRANCH  15  17
ENDBRANCH  13  15
ENDBRANCH   1  13
BRANCH   8  21
ATOM     21  O   UNL     1       5.654   4.162  16.512  0.00  0.00    +0.000 OA
BRANCH  21  22
ATOM     22  C   UNL     1       7.009   4.506  16.402  0.00  0.00    +0.000 C 
ATOM     23  C   UNL     1       7.678   4.590  17.742  0.00  0.00    +0.000 C 
ATOM     24  O   UNL     1       7.627   4.730  15.370  0.00  0.00    +0.000 OA
ENDBRANCH  21  22
ENDBRANCH   8  21
TORSDOF 7
ENDMDL
MODEL 6
REMARK VINA RESULT:      -7.2      2.842      7.277
REMARK  Name = 
REMARK  11 active torsions:
REMARK  status: ('A' for Active; 'I' for Inactive)
REMARK    1  A    between atoms: C_2  and  C_3
REMARK    2  A    between atoms: C_3  and  O_4
REMARK    3  A    between atoms: O_4  and  C_5
REMARK    4  A    between atoms: C_5  and  C_7
REMARK    5  A    between atoms: C_7  and  C_8
REMARK    6  A    between atoms: C_7  and  C_9
REMARK    7  A    between atoms: C_13  and  C_14
REMARK    8  A    between atoms: C_16  and  O_17
REMARK    9  A    between atoms: O_17  and  C_18
REMARK   10  A    between atoms: C_18  and  C_19
REMARK   11  A    between atoms: C_21  and  C_22
REMARK                            x       y       z     vdW  Elec       q    Type
REMARK                         _______ _______ _______ _____ _____    ______ ____
ROOT
ATOM      1  C   UNL     1       1.114   8.812  19.351  0.00  0.00    +0.000 C 
ATOM      2  C   UNL     1       1.273   8.388  20.808  0.00  0.00    +0.000 C 
ATOM      3  C   UNL     1       1.294   6.871  20.887  0.00  0.00    +0.000 C 
ATOM      4  C   UNL     1       2.281   6.222  19.942  0.00  0.00    +0.000 A 
ATOM      5  C   UNL     1       2.686   4.894  20.177  0.00  0.00    +0.000 A 
ATOM      6  C   UNL     1       2.159   4.055  21.316  0.00  0.00    +0.000 C 
ATOM      7  C   UNL     1       3.629   4.294  19.326  0.00  0.00    +0.000 A 
ATOM      8  C   UNL     1       4.134   4.967  18.207  0.00  0.00    +0.000 A 
ATOM      9  C   UNL     1       3.719   6.275  17.928  0.00  0.00    +0.000 A 
ATOM     10  C   UNL     1       4.262   7.034  16.739  0.00  0.00    +0.000 C 
ATOM     11  C   UNL     1       2.778   6.909  18.812  0.00  0.00    +0.000 A 
ATOM     12  C   UNL     1       2.362   8.349  18.562  0.00  0.00    +0.000 C 
ENDROOT
BRANCH   1  13
ATOM     13  C   UNL     1       0.879  10.337  19.230  0.00  0.00    +0.000 C 
ATOM     14  C   UNL     1       1.802  10.932  18.163  0.00  0.00    +0.000 C 
BRANCH  13  15
ATOM     15  C   UNL     1      -0.579  10.629  18.855  0.00  0.00    +0.000 C 
ATOM     16  O   UNL     1      -1.297  11.404  19.472  0.00  0.00    +0.000 OA
BRANCH  15  17
ATOM     17  O   UNL     1      -0.955   9.936  17.740  0.00  0.00    +0.000 OA
BRANCH  17  18
ATOM     18  C   UNL     1      -2.378   9.851  17.497  0.00  0.00    +0.000 C 
BRANCH  18  20
ATOM     19  C   UNL     1      -2.918  10.131  14.739  0.00  0.00    +0.000 C 
ATOM     20  C   UNL     1      -2.669  10.002  16.011  0.00  0.00    +0.000 C 
ENDBRANCH  18  20
ENDBRANCH  17  18
ENDBRANCH  15  17
ENDBRANCH  13  15
ENDBRANCH   1  13
BRANCH   8  21
ATOM     21  O   UNL     1       5.069   4.348  17.307  0.00  0.00    +0.000 OA
BRANCH  21  22
ATOM     22  C   UNL     1       6.467   4.450  17.339  0.00  0.00    +0.000 C 
ATOM     23  C   UNL     1       7.051   4.601  15.965  0.00  0.00    +0.000 C 
ATOM     24  O   UNL     1       7.182   4.421  18.331  0.00  0.00    +0.000 OA
ENDBRANCH  21  22
ENDBRANCH   8  21
TORSDOF 7
ENDMDL
MODEL 7
REMARK VINA RESULT:      -7.1      1.715      3.050
REMARK  Name = 
REMARK  11 active torsions:
REMARK  status: ('A' for Active; 'I' for Inactive)
REMARK    1  A    between atoms: C_2  and  C_3
REMARK    2  A    between atoms: C_3  and  O_4
REMARK    3  A    between atoms: O_4  and  C_5
REMARK    4  A    between atoms: C_5  and  C_7
REMARK    5  A    between atoms: C_7  and  C_8
REMARK    6  A    between atoms: C_7  and  C_9
REMARK    7  A    between atoms: C_13  and  C_14
REMARK    8  A    between atoms: C_16  and  O_17
REMARK    9  A    between atoms: O_17  and  C_18
REMARK   10  A    between atoms: C_18  and  C_19
REMARK   11  A    between atoms: C_21  and  C_22
REMARK                            x       y       z     vdW  Elec       q    Type
REMARK                         _______ _______ _______ _____ _____    ______ ____
ROOT
ATOM      1  C   UNL     1       4.713   5.284  17.192  0.00  0.00    +0.000 C 
ATOM      2  C   UNL     1       4.055   3.948  17.527  0.00  0.00    +0.000 C 
ATOM      3  C   UNL     1       3.699   3.924  19.004  0.00  0.00    +0.000 C 
ATOM      4  C   UNL     1       2.916   5.133  19.466  0.00  0.00    +0.000 A 
ATOM      5  C   UNL     1       2.195   5.065  20.673  0.00  0.00    +0.000 A 
ATOM      6  C   UNL     1       2.185   3.847  21.566  0.00  0.00    +0.000 C 
ATOM      7  C   UNL     1       1.436   6.170  21.093  0.00  0.00    +0.000 A 
ATOM      8  C   UNL     1       1.427   7.366  20.367  0.00  0.00    +0.000 A 
ATOM      9  C   UNL     1       2.166   7.474  19.182  0.00  0.00    +0.000 A 
ATOM     10  C   UNL     1       2.159   8.747  18.367  0.00  0.00    +0.000 C 
ATOM     11  C   UNL     1       2.920   6.338  18.728  0.00  0.00    +0.000 A 
ATOM     12  C   UNL     1       3.679   6.414  17.414  0.00  0.00    +0.000 C 
ENDROOT
BRANCH   1  13
ATOM     13  C   UNL     1       5.282   5.286  15.754  0.00  0.00    +0.000 C 
ATOM     14  C   UNL     1       5.534   6.722  15.286  0.00  0.00    +0.000 C 
BRANCH  13  15
ATOM     15  C   UNL     1       6.597   4.499  15.694  0.00  0.00    +0.000 C 
ATOM     16  O   UNL     1       7.510   4.641  16.496  0.00  0.00    +0.000 OA
BRANCH  15  17
ATOM     17  O   UNL     1       6.602   3.615  14.654  0.00  0.00    +0.000 OA
BRANCH  17  18
ATOM     18  C   UNL     1       6.483   4.190  13.332  0.00  0.00    +0.000 C 
BRANCH  18  20
ATOM     19  C   UNL     1       5.474   2.274  11.519  0.00  0.00    +0.000 C 
ATOM     20  C   UNL     1       5.939   3.158  12.356  0.00  0.00    +0.000 C 
ENDBRANCH  18  20
ENDBRANCH  17  18
ENDBRANCH  15  17
ENDBRANCH  13  15
ENDBRANCH   1  13
BRANCH   8  21
ATOM     21  O   UNL     1       0.686   8.517  20.808  0.00  0.00    +0.000 OA
BRANCH  21  22
ATOM     22  C   UNL     1       1.130   9.529  21.671  0.00  0.00    +0.000 C 
ATOM     23  C   UNL     1       0.772  10.895  21.166  0.00  0.00    +0.000 C 
ATOM     24  O   UNL     1       1.745   9.381  22.718  0.00  0.00    +0.000 OA
ENDBRANCH  21  22
ENDBRANCH   8  21
TORSDOF 7
ENDMDL
MODEL 8
REMARK VINA RESULT:      -7.1      2.606      4.825
REMARK  Name = 
REMARK  11 active torsions:
REMARK  status: ('A' for Active; 'I' for Inactive)
REMARK    1  A    between atoms: C_2  and  C_3
REMARK    2  A    between atoms: C_3  and  O_4
REMARK    3  A    between atoms: O_4  and  C_5
REMARK    4  A    between atoms: C_5  and  C_7
REMARK    5  A    between atoms: C_7  and  C_8
REMARK    6  A    between atoms: C_7  and  C_9
REMARK    7  A    between atoms: C_13  and  C_14
REMARK    8  A    between atoms: C_16  and  O_17
REMARK    9  A    between atoms: O_17  and  C_18
REMARK   10  A    between atoms: C_18  and  C_19
REMARK   11  A    between atoms: C_21  and  C_22
REMARK                            x       y       z     vdW  Elec       q    Type
REMARK                         _______ _______ _______ _____ _____    ______ ____
ROOT
ATOM      1  C   UNL     1       5.613   5.703  16.368  0.00  0.00    +0.000 C 
ATOM      2  C   UNL     1       5.511   7.206  16.616  0.00  0.00    +0.000 C 
ATOM      3  C   UNL     1       4.092   7.546  17.040  0.00  0.00    +0.000 C 
ATOM      4  C   UNL     1       3.570   6.694  18.176  0.00  0.00    +0.000 A 
ATOM      5  C   UNL     1       2.461   7.142  18.917  0.00  0.00    +0.000 A 
ATOM      6  C   UNL     1       1.727   8.428  18.618  0.00  0.00    +0.000 C 
ATOM      7  C   UNL     1       1.990   6.376  19.996  0.00  0.00    +0.000 A 
ATOM      8  C   UNL     1       2.563   5.141  20.318  0.00  0.00    +0.000 A 
ATOM      9  C   UNL     1       3.645   4.653  19.573  0.00  0.00    +0.000 A 
ATOM     10  C   UNL     1       4.297   3.332  19.910  0.00  0.00    +0.000 C 
ATOM     11  C   UNL     1       4.154   5.445  18.487  0.00  0.00    +0.000 A 
ATOM     12  C   UNL     1       5.364   4.963  17.705  0.00  0.00    +0.000 C 
ENDROOT
BRANCH   1  13
ATOM     13  C   UNL     1       6.975   5.328  15.738  0.00  0.00    +0.000 C 
ATOM     14  C   UNL     1       7.554   4.089  16.427  0.00  0.00    +0.000 C 
BRANCH  13  15
ATOM     15  C   UNL     1       6.814   5.042  14.240  0.00  0.00    +0.000 C 
ATOM     16  O   UNL     1       7.474   5.593  13.369  0.00  0.00    +0.000 OA
BRANCH  15  17
ATOM     17  O   UNL     1       5.867   4.085  14.014  0.00  0.00    +0.000 OA
BRANCH  17  18
ATOM     18  C   UNL     1       6.085   3.237  12.862  0.00  0.00    +0.000 C 
BRANCH  18  20
ATOM     19  C   UNL     1       3.851   3.339  11.137  0.00  0.00    +0.000 C 
ATOM     20  C   UNL     1       4.881   3.292  11.934  0.00  0.00    +0.000 C 
ENDBRANCH  18  20
ENDBRANCH  17  18
ENDBRANCH  15  17
ENDBRANCH  13  15
ENDBRANCH   1  13
BRANCH   8  21
ATOM     21  O   UNL     1       2.065   4.329  21.396  0.00  0.00    +0.000 OA
BRANCH  21  22
ATOM     22  C   UNL     1       1.432   3.082  21.292  0.00  0.00    +0.000 C 
ATOM     23  C   UNL     1       0.635   2.960  20.028  0.00  0.00    +0.000 C 
ATOM     24  O   UNL     1       1.480   2.167  22.102  0.00  0.00    +0.000 OA
ENDBRANCH  21  22
ENDBRANCH   8  21
TORSDOF 7
ENDMDL
MODEL 9
REMARK VINA RESULT:      -7.0      2.591      7.062
REMARK  Name = 
REMARK  11 active torsions:
REMARK  status: ('A' for Active; 'I' for Inactive)
REMARK    1  A    between atoms: C_2  and  C_3
REMARK    2  A    between atoms: C_3  and  O_4
REMARK    3  A    between atoms: O_4  and  C_5
REMARK    4  A    between atoms: C_5  and  C_7
REMARK    5  A    between atoms: C_7  and  C_8
REMARK    6  A    between atoms: C_7  and  C_9
REMARK    7  A    between atoms: C_13  and  C_14
REMARK    8  A    between atoms: C_16  and  O_17
REMARK    9  A    between atoms: O_17  and  C_18
REMARK   10  A    between atoms: C_18  and  C_19
REMARK   11  A    between atoms: C_21  and  C_22
REMARK                            x       y       z     vdW  Elec       q    Type
REMARK                         _______ _______ _______ _____ _____    ______ ____
ROOT
ATOM      1  C   UNL     1       1.282   8.804  20.193  0.00  0.00    +0.000 C 
ATOM      2  C   UNL     1       1.271   9.085  18.693  0.00  0.00    +0.000 C 
ATOM      3  C   UNL     1       2.572   8.592  18.084  0.00  0.00    +0.000 C 
ATOM      4  C   UNL     1       2.916   7.163  18.443  0.00  0.00    +0.000 A 
ATOM      5  C   UNL     1       3.851   6.463  17.658  0.00  0.00    +0.000 A 
ATOM      6  C   UNL     1       4.569   7.075  16.479  0.00  0.00    +0.000 C 
ATOM      7  C   UNL     1       4.150   5.124  17.962  0.00  0.00    +0.000 A 
ATOM      8  C   UNL     1       3.583   4.484  19.070  0.00  0.00    +0.000 A 
ATOM      9  C   UNL     1       2.678   5.170  19.890  0.00  0.00    +0.000 A 
ATOM     10  C   UNL     1       2.034   4.498  21.081  0.00  0.00    +0.000 C 
ATOM     11  C   UNL     1       2.341   6.530  19.568  0.00  0.00    +0.000 A 
ATOM     12  C   UNL     1       1.316   7.271  20.409  0.00  0.00    +0.000 C 
ENDROOT
BRANCH   1  13
ATOM     13  C   UNL     1       0.076   9.467  20.900  0.00  0.00    +0.000 C 
ATOM     14  C   UNL     1      -0.634   8.452  21.800  0.00  0.00    +0.000 C 
BRANCH  13  15
ATOM     15  C   UNL     1       0.537  10.657  21.749  0.00  0.00    +0.000 C 
ATOM     16  O   UNL     1       0.025  10.969  22.816  0.00  0.00    +0.000 OA
BRANCH  15  17
ATOM     17  O   UNL     1       1.597  11.298  21.175  0.00  0.00    +0.000 OA
BRANCH  17  18
ATOM     18  C   UNL     1       1.324  12.608  20.626  0.00  0.00    +0.000 C 
BRANCH  18  20
ATOM     19  C   UNL     1       2.519  12.870  18.081  0.00  0.00    +0.000 C 
ATOM     20  C   UNL     1       1.968  12.750  19.255  0.00  0.00    +0.000 C 
ENDBRANCH  18  20
ENDBRANCH  17  18
ENDBRANCH  15  17
ENDBRANCH  13  15
ENDBRANCH   1  13
BRANCH   8  21
ATOM     21  O   UNL     1       3.912   3.127  19.414  0.00  0.00    +0.000 OA
BRANCH  21  22
ATOM     22  C   UNL     1       3.472   1.961  18.770  0.00  0.00    +0.000 C 
ATOM     23  C   UNL     1       2.083   2.111  18.226  0.00  0.00    +0.000 C 
ATOM     24  O   UNL     1       4.094   0.916  18.641  0.00  0.00    +0.000 OA
ENDBRANCH  21  22
ENDBRANCH   8  21
TORSDOF 7
ENDMDL
