MODEL 1
REMARK VINA RESULT:      -8.2      0.000      0.000
REMARK  Name = 
REMARK  7 active torsions:
REMARK  status: ('A' for Active; 'I' for Inactive)
REMARK    1  A    between atoms: C_1  and  C_2
REMARK    2  A    between atoms: C_7  and  N_8
REMARK    3  A    between atoms: C_9  and  S_10
REMARK    4  A    between atoms: S_10  and  C_11
REMARK    5  A    between atoms: C_11  and  C_12
REMARK    6  A    between atoms: N_14  and  C_15
REMARK    7  A    between atoms: C_15  and  C_16
REMARK                            x       y       z     vdW  Elec       q    Type
REMARK                         _______ _______ _______ _____ _____    ______ ____
ROOT
ATOM      1  N   UNL     1       3.494   4.491  18.285  0.00  0.00    +0.000 N 
ATOM      2  C   UNL     1       3.563   5.869  18.084  0.00  0.00    +0.000 A 
ATOM      3  N   UNL     1       4.254   6.432  17.139  0.00  0.00    +0.000 NA
ATOM      4  C   UNL     1       5.012   5.602  16.295  0.00  0.00    +0.000 A 
ATOM      5  C   UNL     1       5.796   6.187  15.298  0.00  0.00    +0.000 A 
ATOM      6  C   UNL     1       6.598   5.399  14.465  0.00  0.00    +0.000 A 
ATOM      7  C   UNL     1       6.620   4.015  14.617  0.00  0.00    +0.000 A 
ATOM      8  C   UNL     1       5.833   3.418  15.597  0.00  0.00    +0.000 A 
ATOM      9  C   UNL     1       5.036   4.216  16.428  0.00  0.00    +0.000 A 
ATOM     10  C   UNL     1       4.208   3.605  17.481  0.00  0.00    +0.000 A 
ATOM     11  O   UNL     1       4.203   2.380  17.590  0.00  0.00    +0.000 OA
ENDROOT
BRANCH   1  18
ATOM     12  C   UNL     1       0.710   3.724  17.751  0.00  0.00    +0.000 C 
ATOM     13  C   UNL     1       1.360   3.567  19.096  0.00  0.00    +0.000 A 
ATOM     14  C   UNL     1       0.626   3.026  20.161  0.00  0.00    +0.000 A 
ATOM     15  C   UNL     1       1.220   2.827  21.409  0.00  0.00    +0.000 A 
ATOM     16  C   UNL     1       2.560   3.149  21.610  0.00  0.00    +0.000 A 
ATOM     17  C   UNL     1       3.306   3.690  20.564  0.00  0.00    +0.000 A 
ATOM     18  C   UNL     1       2.708   3.915  19.317  0.00  0.00    +0.000 A 
ENDBRANCH   1  18
BRANCH   2  19
ATOM     19  S   UNL     1       2.693   6.911  19.210  0.00  0.00    +0.000 S 
BRANCH  19  20
ATOM     20  C   UNL     1       2.337   8.387  18.232  0.00  0.00    +0.000 C 
BRANCH  20  21
ATOM     21  C   UNL     1       1.308   9.273  18.905  0.00  0.00    +0.000 C 
ATOM     22  O   UNL     1       0.987   9.124  20.082  0.00  0.00    +0.000 OA
ATOM     23  N   UNL     1       0.787  10.274  18.121  0.00  0.00    +0.000 N 
ATOM     24  H   UNL     1       1.105  10.377  17.160  0.00  0.00    +0.000 HD
BRANCH  23  25
ATOM     25  C   UNL     1      -0.202  11.174  18.655  0.00  0.00    +0.000 C 
BRANCH  25  26
ATOM     26  C   UNL     1      -1.558  10.854  18.116  0.00  0.00    +0.000 A 
ATOM     27  C   UNL     1      -1.884   9.930  17.142  0.00  0.00    +0.000 A 
ATOM     28  C   UNL     1      -3.264   9.972  16.793  0.00  0.00    +0.000 A 
ATOM     29  C   UNL     1      -3.955  10.905  17.533  0.00  0.00    +0.000 A 
ATOM     30  S   UNL     1      -2.940  11.726  18.635  0.00  0.00    +0.000 S 
ENDBRANCH  25  26
ENDBRANCH  23  25
ENDBRANCH  20  21
ENDBRANCH  19  20
ENDBRANCH   2  19
TORSDOF 6
ENDMDL
MODEL 2
REMARK VINA RESULT:      -7.6      1.867      2.133
REMARK  Name = 
REMARK  7 active torsions:
REMARK  status: ('A' for Active; 'I' for Inactive)
REMARK    1  A    between atoms: C_1  and  C_2
REMARK    2  A    between atoms: C_7  and  N_8
REMARK    3  A    between atoms: C_9  and  S_10
REMARK    4  A    between atoms: S_10  and  C_11
REMARK    5  A    between atoms: C_11  and  C_12
REMARK    6  A    between atoms: N_14  and  C_15
REMARK    7  A    between atoms: C_15  and  C_16
REMARK                            x       y       z     vdW  Elec       q    Type
REMARK                         _______ _______ _______ _____ _____    ______ ____
ROOT
ATOM      1  N   UNL     1       3.718   5.324  18.726  0.00  0.00    +0.000 N 
ATOM      2  C   UNL     1       3.496   6.534  18.072  0.00  0.00    +0.000 A 
ATOM      3  N   UNL     1       4.442   7.336  17.687  0.00  0.00    +0.000 NA
ATOM      4  C   UNL     1       5.768   6.981  17.987  0.00  0.00    +0.000 A 
ATOM      5  C   UNL     1       6.800   7.848  17.620  0.00  0.00    +0.000 A 
ATOM      6  C   UNL     1       8.130   7.552  17.939  0.00  0.00    +0.000 A 
ATOM      7  C   UNL     1       8.443   6.380  18.625  0.00  0.00    +0.000 A 
ATOM      8  C   UNL     1       7.426   5.501  18.984  0.00  0.00    +0.000 A 
ATOM      9  C   UNL     1       6.098   5.808  18.663  0.00  0.00    +0.000 A 
ATOM     10  C   UNL     1       5.006   4.899  19.047  0.00  0.00    +0.000 A 
ATOM     11  O   UNL     1       5.288   3.849  19.622  0.00  0.00    +0.000 OA
ENDROOT
BRANCH   1  18
ATOM     12  C   UNL     1       2.795   3.225  16.891  0.00  0.00    +0.000 C 
ATOM     13  C   UNL     1       2.172   3.470  18.237  0.00  0.00    +0.000 A 
ATOM     14  C   UNL     1       1.103   2.668  18.661  0.00  0.00    +0.000 A 
ATOM     15  C   UNL     1       0.536   2.845  19.925  0.00  0.00    +0.000 A 
ATOM     16  C   UNL     1       1.038   3.813  20.792  0.00  0.00    +0.000 A 
ATOM     17  C   UNL     1       2.099   4.621  20.387  0.00  0.00    +0.000 A 
ATOM     18  C   UNL     1       2.655   4.464  19.111  0.00  0.00    +0.000 A 
ENDBRANCH   1  18
BRANCH   2  19
ATOM     19  S   UNL     1       1.825   7.025  17.790  0.00  0.00    +0.000 S 
BRANCH  19  20
ATOM     20  C   UNL     1       1.917   8.828  17.740  0.00  0.00    +0.000 C 
BRANCH  20  21
ATOM     21  C   UNL     1       0.813   9.470  18.557  0.00  0.00    +0.000 C 
ATOM     22  O   UNL     1       0.792   9.415  19.784  0.00  0.00    +0.000 OA
ATOM     23  N   UNL     1      -0.141  10.143  17.834  0.00  0.00    +0.000 N 
ATOM     24  H   UNL     1      -0.067  10.186  16.820  0.00  0.00    +0.000 HD
BRANCH  23  25
ATOM     25  C   UNL     1      -1.240  10.789  18.505  0.00  0.00    +0.000 C 
BRANCH  25  26
ATOM     26  C   UNL     1      -2.440  10.853  17.619  0.00  0.00    +0.000 A 
ATOM     27  C   UNL     1      -2.533  10.477  16.292  0.00  0.00    +0.000 A 
ATOM     28  C   UNL     1      -3.804  10.784  15.727  0.00  0.00    +0.000 A 
ATOM     29  C   UNL     1      -4.652  11.356  16.648  0.00  0.00    +0.000 A 
ATOM     30  S   UNL     1      -3.915  11.524  18.180  0.00  0.00    +0.000 S 
ENDBRANCH  25  26
ENDBRANCH  23  25
ENDBRANCH  20  21
ENDBRANCH  19  20
ENDBRANCH   2  19
TORSDOF 6
ENDMDL
MODEL 3
REMARK VINA RESULT:      -7.6      1.554      2.374
REMARK  Name = 
REMARK  7 active torsions:
REMARK  status: ('A' for Active; 'I' for Inactive)
REMARK    1  A    between atoms: C_1  and  C_2
REMARK    2  A    between atoms: C_7  and  N_8
REMARK    3  A    between atoms: C_9  and  S_10
REMARK    4  A    between atoms: S_10  and  C_11
REMARK    5  A    between atoms: C_11  and  C_12
REMARK    6  A    between atoms: N_14  and  C_15
REMARK    7  A    between atoms: C_15  and  C_16
REMARK                            x       y       z     vdW  Elec       q    Type
REMARK                         _______ _______ _______ _____ _____    ______ ____
ROOT
ATOM      1  N   UNL     1       3.478   4.516  18.294  0.00  0.00    +0.000 N 
ATOM      2  C   UNL     1       3.539   5.890  18.068  0.00  0.00    +0.000 A 
ATOM      3  N   UNL     1       4.230   6.439  17.114  0.00  0.00    +0.000 NA
ATOM      4  C   UNL     1       4.996   5.598  16.289  0.00  0.00    +0.000 A 
ATOM      5  C   UNL     1       5.780   6.169  15.284  0.00  0.00    +0.000 A 
ATOM      6  C   UNL     1       6.590   5.371  14.469  0.00  0.00    +0.000 A 
ATOM      7  C   UNL     1       6.620   3.989  14.647  0.00  0.00    +0.000 A 
ATOM      8  C   UNL     1       5.833   3.407  15.636  0.00  0.00    +0.000 A 
ATOM      9  C   UNL     1       5.028   4.215  16.449  0.00  0.00    +0.000 A 
ATOM     10  C   UNL     1       4.200   3.619  17.510  0.00  0.00    +0.000 A 
ATOM     11  O   UNL     1       4.203   2.396  17.643  0.00  0.00    +0.000 OA
ENDROOT
BRANCH   1  18
ATOM     12  C   UNL     1       0.720   3.667  17.751  0.00  0.00    +0.000 C 
ATOM     13  C   UNL     1       1.356   3.568  19.108  0.00  0.00    +0.000 A 
ATOM     14  C   UNL     1       0.620   3.044  20.181  0.00  0.00    +0.000 A 
ATOM     15  C   UNL     1       1.202   2.899  21.442  0.00  0.00    +0.000 A 
ATOM     16  C   UNL     1       2.531   3.259  21.650  0.00  0.00    +0.000 A 
ATOM     17  C   UNL     1       3.278   3.784  20.596  0.00  0.00    +0.000 A 
ATOM     18  C   UNL     1       2.692   3.954  19.335  0.00  0.00    +0.000 A 
ENDBRANCH   1  18
BRANCH   2  19
ATOM     19  S   UNL     1       2.659   6.948  19.171  0.00  0.00    +0.000 S 
BRANCH  19  20
ATOM     20  C   UNL     1       2.138   8.319  18.116  0.00  0.00    +0.000 C 
BRANCH  20  21
ATOM     21  C   UNL     1       1.351   9.357  18.891  0.00  0.00    +0.000 C 
ATOM     22  O   UNL     1       1.069   9.211  20.079  0.00  0.00    +0.000 OA
ATOM     23  N   UNL     1       1.004  10.483  18.185  0.00  0.00    +0.000 N 
ATOM     24  H   UNL     1       1.284  10.572  17.212  0.00  0.00    +0.000 HD
BRANCH  23  25
ATOM     25  C   UNL     1       0.251  11.535  18.820  0.00  0.00    +0.000 C 
BRANCH  25  26
ATOM     26  C   UNL     1       0.944  12.850  18.667  0.00  0.00    +0.000 A 
ATOM     27  C   UNL     1       2.233  13.080  18.227  0.00  0.00    +0.000 A 
ATOM     28  C   UNL     1       2.602  14.453  18.318  0.00  0.00    +0.000 A 
ATOM     29  C   UNL     1       1.572  15.232  18.795  0.00  0.00    +0.000 A 
ATOM     30  S   UNL     1       0.175  14.309  19.135  0.00  0.00    +0.000 S 
ENDBRANCH  25  26
ENDBRANCH  23  25
ENDBRANCH  20  21
ENDBRANCH  19  20
ENDBRANCH   2  19
TORSDOF 6
ENDMDL
MODEL 4
REMARK VINA RESULT:      -7.6      4.617      6.901
REMARK  Name = 
REMARK  7 active torsions:
REMARK  status: ('A' for Active; 'I' for Inactive)
REMARK    1  A    between atoms: C_1  and  C_2
REMARK    2  A    between atoms: C_7  and  N_8
REMARK    3  A    between atoms: C_9  and  S_10
REMARK    4  A    between atoms: S_10  and  C_11
REMARK    5  A    between atoms: C_11  and  C_12
REMARK    6  A    between atoms: N_14  and  C_15
REMARK    7  A    between atoms: C_15  and  C_16
REMARK                            x       y       z     vdW  Elec       q    Type
REMARK                         _______ _______ _______ _____ _____    ______ ____
ROOT
ATOM      1  N   UNL     1       4.973   4.657  17.459  0.00  0.00    +0.000 N 
ATOM      2  C   UNL     1       6.234   5.242  17.552  0.00  0.00    +0.000 A 
ATOM      3  N   UNL     1       7.052   5.367  16.551  0.00  0.00    +0.000 NA
ATOM      4  C   UNL     1       6.659   4.839  15.309  0.00  0.00    +0.000 A 
ATOM      5  C   UNL     1       7.540   4.923  14.229  0.00  0.00    +0.000 A 
ATOM      6  C   UNL     1       7.204   4.371  12.988  0.00  0.00    +0.000 A 
ATOM      7  C   UNL     1       5.978   3.733  12.813  0.00  0.00    +0.000 A 
ATOM      8  C   UNL     1       5.085   3.654  13.877  0.00  0.00    +0.000 A 
ATOM      9  C   UNL     1       5.433   4.207  15.116  0.00  0.00    +0.000 A 
ATOM     10  C   UNL     1       4.509   4.122  16.259  0.00  0.00    +0.000 A 
ATOM     11  O   UNL     1       3.413   3.588  16.092  0.00  0.00    +0.000 OA
ENDROOT
BRANCH   1  18
ATOM     12  C   UNL     1       3.145   6.870  18.081  0.00  0.00    +0.000 C 
ATOM     13  C   UNL     1       3.235   5.621  18.912  0.00  0.00    +0.000 A 
ATOM     14  C   UNL     1       2.412   5.480  20.040  0.00  0.00    +0.000 A 
ATOM     15  C   UNL     1       2.443   4.311  20.803  0.00  0.00    +0.000 A 
ATOM     16  C   UNL     1       3.280   3.258  20.445  0.00  0.00    +0.000 A 
ATOM     17  C   UNL     1       4.107   3.380  19.328  0.00  0.00    +0.000 A 
ATOM     18  C   UNL     1       4.098   4.561  18.573  0.00  0.00    +0.000 A 
ENDBRANCH   1  18
BRANCH   2  19
ATOM     19  S   UNL     1       6.765   5.811  19.135  0.00  0.00    +0.000 S 
BRANCH  19  20
ATOM     20  C   UNL     1       8.347   6.612  18.788  0.00  0.00    +0.000 C 
BRANCH  20  21
ATOM     21  C   UNL     1       8.158   8.015  18.247  0.00  0.00    +0.000 C 
ATOM     22  O   UNL     1       7.403   8.259  17.310  0.00  0.00    +0.000 OA
ATOM     23  N   UNL     1       8.864   8.998  18.899  0.00  0.00    +0.000 N 
ATOM     24  H   UNL     1       9.455   8.753  19.689  0.00  0.00    +0.000 HD
BRANCH  23  25
ATOM     25  C   UNL     1       8.765  10.369  18.468  0.00  0.00    +0.000 C 
BRANCH  25  26
ATOM     26  C   UNL     1       9.978  11.141  18.873  0.00  0.00    +0.000 A 
ATOM     27  C   UNL     1      10.502  11.288  20.143  0.00  0.00    +0.000 A 
ATOM     28  C   UNL     1      11.603  12.191  20.176  0.00  0.00    +0.000 A 
ATOM     29  C   UNL     1      11.906  12.681  18.926  0.00  0.00    +0.000 A 
ATOM     30  S   UNL     1      10.862  12.059  17.725  0.00  0.00    +0.000 S 
ENDBRANCH  25  26
ENDBRANCH  23  25
ENDBRANCH  20  21
ENDBRANCH  19  20
ENDBRANCH   2  19
TORSDOF 6
ENDMDL
MODEL 5
REMARK VINA RESULT:      -7.6      4.904      7.162
REMARK  Name = 
REMARK  7 active torsions:
REMARK  status: ('A' for Active; 'I' for Inactive)
REMARK    1  A    between atoms: C_1  and  C_2
REMARK    2  A    between atoms: C_7  and  N_8
REMARK    3  A    between atoms: C_9  and  S_10
REMARK    4  A    between atoms: S_10  and  C_11
REMARK    5  A    between atoms: C_11  and  C_12
REMARK    6  A    between atoms: N_14  and  C_15
REMARK    7  A    between atoms: C_15  and  C_16
REMARK                            x       y       z     vdW  Elec       q    Type
REMARK                         _______ _______ _______ _____ _____    ______ ____
ROOT
ATOM      1  N   UNL     1       5.603   5.040  16.635  0.00  0.00    +0.000 N 
ATOM      2  C   UNL     1       6.797   5.751  16.528  0.00  0.00    +0.000 A 
ATOM      3  N   UNL     1       7.517   5.804  15.448  0.00  0.00    +0.000 NA
ATOM      4  C   UNL     1       7.088   5.062  14.334  0.00  0.00    +0.000 A 
ATOM      5  C   UNL     1       7.868   5.068  13.176  0.00  0.00    +0.000 A 
ATOM      6  C   UNL     1       7.498   4.309  12.061  0.00  0.00    +0.000 A 
ATOM      7  C   UNL     1       6.339   3.537  12.090  0.00  0.00    +0.000 A 
ATOM      8  C   UNL     1       5.545   3.532  13.234  0.00  0.00    +0.000 A 
ATOM      9  C   UNL     1       5.926   4.293  14.346  0.00  0.00    +0.000 A 
ATOM     10  C   UNL     1       5.108   4.290  15.570  0.00  0.00    +0.000 A 
ATOM     11  O   UNL     1       4.067   3.635  15.581  0.00  0.00    +0.000 OA
ENDROOT
BRANCH   1  18
ATOM     12  C   UNL     1       3.780   7.264  17.226  0.00  0.00    +0.000 C 
ATOM     13  C   UNL     1       3.976   6.096  18.151  0.00  0.00    +0.000 A 
ATOM     14  C   UNL     1       3.260   6.040  19.356  0.00  0.00    +0.000 A 
ATOM     15  C   UNL     1       3.389   4.945  20.211  0.00  0.00    +0.000 A 
ATOM     16  C   UNL     1       4.220   3.880  19.872  0.00  0.00    +0.000 A 
ATOM     17  C   UNL     1       4.940   3.918  18.679  0.00  0.00    +0.000 A 
ATOM     18  C   UNL     1       4.834   5.027  17.828  0.00  0.00    +0.000 A 
ENDBRANCH   1  18
BRANCH   2  19
ATOM     19  S   UNL     1       7.385   6.597  17.960  0.00  0.00    +0.000 S 
BRANCH  19  20
ATOM     20  C   UNL     1       7.673   8.279  17.370  0.00  0.00    +0.000 C 
BRANCH  20  21
ATOM     21  C   UNL     1       8.443   9.105  18.380  0.00  0.00    +0.000 C 
ATOM     22  O   UNL     1       9.001   8.598  19.350  0.00  0.00    +0.000 OA
ATOM     23  N   UNL     1       8.503  10.453  18.119  0.00  0.00    +0.000 N 
ATOM     24  H   UNL     1       8.050  10.824  17.287  0.00  0.00    +0.000 HD
BRANCH  23  25
ATOM     25  C   UNL     1       9.206  11.335  19.014  0.00  0.00    +0.000 C 
BRANCH  25  26
ATOM     26  C   UNL     1      10.193  12.172  18.267  0.00  0.00    +0.000 A 
ATOM     27  C   UNL     1       9.931  13.206  17.387  0.00  0.00    +0.000 A 
ATOM     28  C   UNL     1      11.113  13.706  16.769  0.00  0.00    +0.000 A 
ATOM     29  C   UNL     1      12.242  13.061  17.219  0.00  0.00    +0.000 A 
ATOM     30  S   UNL     1      11.875  11.857  18.375  0.00  0.00    +0.000 S 
ENDBRANCH  25  26
ENDBRANCH  23  25
ENDBRANCH  20  21
ENDBRANCH  19  20
ENDBRANCH   2  19
TORSDOF 6
ENDMDL
MODEL 6
REMARK VINA RESULT:      -7.5      2.019      2.375
REMARK  Name = 
REMARK  7 active torsions:
REMARK  status: ('A' for Active; 'I' for Inactive)
REMARK    1  A    between atoms: C_1  and  C_2
REMARK    2  A    between atoms: C_7  and  N_8
REMARK    3  A    between atoms: C_9  and  S_10
REMARK    4  A    between atoms: S_10  and  C_11
REMARK    5  A    between atoms: C_11  and  C_12
REMARK    6  A    between atoms: N_14  and  C_15
REMARK    7  A    between atoms: C_15  and  C_16
REMARK                            x       y       z     vdW  Elec       q    Type
REMARK                         _______ _______ _______ _____ _____    ______ ____
ROOT
ATOM      1  N   UNL     1       3.559   4.544  18.191  0.00  0.00    +0.000 N 
ATOM      2  C   UNL     1       3.657   5.916  17.972  0.00  0.00    +0.000 A 
ATOM      3  N   UNL     1       4.371   6.452  17.028  0.00  0.00    +0.000 NA
ATOM      4  C   UNL     1       5.124   5.596  16.206  0.00  0.00    +0.000 A 
ATOM      5  C   UNL     1       5.933   6.151  15.212  0.00  0.00    +0.000 A 
ATOM      6  C   UNL     1       6.730   5.336  14.401  0.00  0.00    +0.000 A 
ATOM      7  C   UNL     1       6.724   3.953  14.573  0.00  0.00    +0.000 A 
ATOM      8  C   UNL     1       5.912   3.386  15.552  0.00  0.00    +0.000 A 
ATOM      9  C   UNL     1       5.120   4.211  16.360  0.00  0.00    +0.000 A 
ATOM     10  C   UNL     1       4.266   3.632  17.410  0.00  0.00    +0.000 A 
ATOM     11  O   UNL     1       4.236   2.409  17.537  0.00  0.00    +0.000 OA
ENDROOT
BRANCH   1  18
ATOM     12  C   UNL     1       0.762   3.840  17.636  0.00  0.00    +0.000 C 
ATOM     13  C   UNL     1       1.395   3.681  18.989  0.00  0.00    +0.000 A 
ATOM     14  C   UNL     1       0.636   3.169  20.052  0.00  0.00    +0.000 A 
ATOM     15  C   UNL     1       1.212   2.969  21.308  0.00  0.00    +0.000 A 
ATOM     16  C   UNL     1       2.557   3.260  21.520  0.00  0.00    +0.000 A 
ATOM     17  C   UNL     1       3.327   3.772  20.477  0.00  0.00    +0.000 A 
ATOM     18  C   UNL     1       2.748   3.998  19.221  0.00  0.00    +0.000 A 
ENDBRANCH   1  18
BRANCH   2  19
ATOM     19  S   UNL     1       2.793   6.992  19.071  0.00  0.00    +0.000 S 
BRANCH  19  20
ATOM     20  C   UNL     1       1.724   7.949  17.973  0.00  0.00    +0.000 C 
BRANCH  20  21
ATOM     21  C   UNL     1       1.711   9.419  18.342  0.00  0.00    +0.000 C 
ATOM     22  O   UNL     1       2.274  10.270  17.657  0.00  0.00    +0.000 OA
ATOM     23  N   UNL     1       0.999   9.737  19.473  0.00  0.00    +0.000 N 
ATOM     24  H   UNL     1       0.525   9.002  19.992  0.00  0.00    +0.000 HD
BRANCH  23  25
ATOM     25  C   UNL     1       0.921  11.103  19.921  0.00  0.00    +0.000 C 
BRANCH  25  26
ATOM     26  C   UNL     1       0.042  11.218  21.124  0.00  0.00    +0.000 A 
ATOM     27  C   UNL     1      -0.522  12.364  21.653  0.00  0.00    +0.000 A 
ATOM     28  C   UNL     1      -1.210  12.117  22.875  0.00  0.00    +0.000 A 
ATOM     29  C   UNL     1      -1.178  10.786  23.225  0.00  0.00    +0.000 A 
ATOM     30  S   UNL     1      -0.316   9.846  22.087  0.00  0.00    +0.000 S 
ENDBRANCH  25  26
ENDBRANCH  23  25
ENDBRANCH  20  21
ENDBRANCH  19  20
ENDBRANCH   2  19
TORSDOF 6
ENDMDL
MODEL 7
REMARK VINA RESULT:      -7.5      2.208      5.181
REMARK  Name = 
REMARK  7 active torsions:
REMARK  status: ('A' for Active; 'I' for Inactive)
REMARK    1  A    between atoms: C_1  and  C_2
REMARK    2  A    between atoms: C_7  and  N_8
REMARK    3  A    between atoms: C_9  and  S_10
REMARK    4  A    between atoms: S_10  and  C_11
REMARK    5  A    between atoms: C_11  and  C_12
REMARK    6  A    between atoms: N_14  and  C_15
REMARK    7  A    between atoms: C_15  and  C_16
REMARK                            x       y       z     vdW  Elec       q    Type
REMARK                         _______ _______ _______ _____ _____    ______ ____
ROOT
ATOM      1  N   UNL     1       4.319   4.741  17.936  0.00  0.00    +0.000 N 
ATOM      2  C   UNL     1       3.635   5.860  18.406  0.00  0.00    +0.000 A 
ATOM      3  N   UNL     1       2.825   5.844  19.421  0.00  0.00    +0.000 NA
ATOM      4  C   UNL     1       2.591   4.612  20.056  0.00  0.00    +0.000 A 
ATOM      5  C   UNL     1       1.690   4.561  21.122  0.00  0.00    +0.000 A 
ATOM      6  C   UNL     1       1.398   3.347  21.753  0.00  0.00    +0.000 A 
ATOM      7  C   UNL     1       2.007   2.169  21.326  0.00  0.00    +0.000 A 
ATOM      8  C   UNL     1       2.916   2.208  20.273  0.00  0.00    +0.000 A 
ATOM      9  C   UNL     1       3.200   3.428  19.647  0.00  0.00    +0.000 A 
ATOM     10  C   UNL     1       4.147   3.488  18.521  0.00  0.00    +0.000 A 
ATOM     11  O   UNL     1       4.710   2.453  18.169  0.00  0.00    +0.000 OA
ENDROOT
BRANCH   1  18
ATOM     12  C   UNL     1       7.128   5.473  18.376  0.00  0.00    +0.000 C 
ATOM     13  C   UNL     1       6.559   5.186  17.016  0.00  0.00    +0.000 A 
ATOM     14  C   UNL     1       7.391   5.259  15.888  0.00  0.00    +0.000 A 
ATOM     15  C   UNL     1       6.898   4.953  14.619  0.00  0.00    +0.000 A 
ATOM     16  C   UNL     1       5.574   4.553  14.454  0.00  0.00    +0.000 A 
ATOM     17  C   UNL     1       4.732   4.477  15.562  0.00  0.00    +0.000 A 
ATOM     18  C   UNL     1       5.214   4.806  16.836  0.00  0.00    +0.000 A 
ENDBRANCH   1  18
BRANCH   2  19
ATOM     19  S   UNL     1       3.852   7.383  17.541  0.00  0.00    +0.000 S 
BRANCH  19  20
ATOM     20  C   UNL     1       2.165   7.990  17.324  0.00  0.00    +0.000 C 
BRANCH  20  21
ATOM     21  C   UNL     1       1.975   9.357  17.951  0.00  0.00    +0.000 C 
ATOM     22  O   UNL     1       2.633  10.334  17.600  0.00  0.00    +0.000 OA
ATOM     23  N   UNL     1       0.996   9.435  18.911  0.00  0.00    +0.000 N 
ATOM     24  H   UNL     1       0.457   8.606  19.148  0.00  0.00    +0.000 HD
BRANCH  23  25
ATOM     25  C   UNL     1       0.730  10.685  19.577  0.00  0.00    +0.000 C 
BRANCH  25  26
ATOM     26  C   UNL     1       0.220  10.450  20.962  0.00  0.00    +0.000 A 
ATOM     27  C   UNL     1       0.255   9.275  21.688  0.00  0.00    +0.000 A 
ATOM     28  C   UNL     1      -0.428   9.384  22.933  0.00  0.00    +0.000 A 
ATOM     29  C   UNL     1      -0.935  10.648  23.133  0.00  0.00    +0.000 A 
ATOM     30  S   UNL     1      -0.593  11.690  21.823  0.00  0.00    +0.000 S 
ENDBRANCH  25  26
ENDBRANCH  23  25
ENDBRANCH  20  21
ENDBRANCH  19  20
ENDBRANCH   2  19
TORSDOF 6
ENDMDL
MODEL 8
REMARK VINA RESULT:      -7.5      3.481      9.307
REMARK  Name = 
REMARK  7 active torsions:
REMARK  status: ('A' for Active; 'I' for Inactive)
REMARK    1  A    between atoms: C_1  and  C_2
REMARK    2  A    between atoms: C_7  and  N_8
REMARK    3  A    between atoms: C_9  and  S_10
REMARK    4  A    between atoms: S_10  and  C_11
REMARK    5  A    between atoms: C_11  and  C_12
REMARK    6  A    between atoms: N_14  and  C_15
REMARK    7  A    between atoms: C_15  and  C_16
REMARK                            x       y       z     vdW  Elec       q    Type
REMARK                         _______ _______ _______ _____ _____    ______ ____
ROOT
ATOM      1  N   UNL     1      -1.732  11.984  20.152  0.00  0.00    +0.000 N 
ATOM      2  C   UNL     1      -0.742  11.106  19.717  0.00  0.00    +0.000 A 
ATOM      3  N   UNL     1      -0.797  10.444  18.601  0.00  0.00    +0.000 NA
ATOM      4  C   UNL     1      -1.947  10.588  17.807  0.00  0.00    +0.000 A 
ATOM      5  C   UNL     1      -2.049   9.853  16.624  0.00  0.00    +0.000 A 
ATOM      6  C   UNL     1      -3.196   9.936  15.827  0.00  0.00    +0.000 A 
ATOM      7  C   UNL     1      -4.254  10.761  16.203  0.00  0.00    +0.000 A 
ATOM      8  C   UNL     1      -4.160  11.509  17.373  0.00  0.00    +0.000 A 
ATOM      9  C   UNL     1      -3.008  11.417  18.165  0.00  0.00    +0.000 A 
ATOM     10  C   UNL     1      -2.895  12.189  19.413  0.00  0.00    +0.000 A 
ATOM     11  O   UNL     1      -3.816  12.942  19.725  0.00  0.00    +0.000 OA
ENDROOT
BRANCH   1  18
ATOM     12  C   UNL     1      -0.357  14.578  20.194  0.00  0.00    +0.000 C 
ATOM     13  C   UNL     1      -0.939  13.939  21.423  0.00  0.00    +0.000 A 
ATOM     14  C   UNL     1      -0.840  14.596  22.659  0.00  0.00    +0.000 A 
ATOM     15  C   UNL     1      -1.413  14.046  23.806  0.00  0.00    +0.000 A 
ATOM     16  C   UNL     1      -2.108  12.841  23.739  0.00  0.00    +0.000 A 
ATOM     17  C   UNL     1      -2.216  12.172  22.520  0.00  0.00    +0.000 A 
ATOM     18  C   UNL     1      -1.622  12.708  21.369  0.00  0.00    +0.000 A 
ENDBRANCH   1  18
BRANCH   2  19
ATOM     19  S   UNL     1       0.652  10.849  20.767  0.00  0.00    +0.000 S 
BRANCH  19  20
ATOM     20  C   UNL     1       0.564   9.089  21.164  0.00  0.00    +0.000 C 
BRANCH  20  21
ATOM     21  C   UNL     1       1.451   8.263  20.255  0.00  0.00    +0.000 C 
ATOM     22  O   UNL     1       1.838   8.678  19.165  0.00  0.00    +0.000 OA
ATOM     23  N   UNL     1       1.820   7.034  20.747  0.00  0.00    +0.000 N 
ATOM     24  H   UNL     1       1.499   6.745  21.668  0.00  0.00    +0.000 HD
BRANCH  23  25
ATOM     25  C   UNL     1       2.660   6.162  19.967  0.00  0.00    +0.000 C 
BRANCH  25  26
ATOM     26  C   UNL     1       1.954   4.881  19.660  0.00  0.00    +0.000 A 
ATOM     27  C   UNL     1       1.341   4.019  20.550  0.00  0.00    +0.000 A 
ATOM     28  C   UNL     1       0.869   2.833  19.920  0.00  0.00    +0.000 A 
ATOM     29  C   UNL     1       1.106   2.840  18.564  0.00  0.00    +0.000 A 
ATOM     30  S   UNL     1       1.901   4.266  18.060  0.00  0.00    +0.000 S 
ENDBRANCH  25  26
ENDBRANCH  23  25
ENDBRANCH  20  21
ENDBRANCH  19  20
ENDBRANCH   2  19
TORSDOF 6
ENDMDL
MODEL 9
REMARK VINA RESULT:      -7.5      0.520      1.343
REMARK  Name = 
REMARK  7 active torsions:
REMARK  status: ('A' for Active; 'I' for Inactive)
REMARK    1  A    between atoms: C_1  and  C_2
REMARK    2  A    between atoms: C_7  and  N_8
REMARK    3  A    between atoms: C_9  and  S_10
REMARK    4  A    between atoms: S_10  and  C_11
REMARK    5  A    between atoms: C_11  and  C_12
REMARK    6  A    between atoms: N_14  and  C_15
REMARK    7  A    between atoms: C_15  and  C_16
REMARK                            x       y       z     vdW  Elec       q    Type
REMARK                         _______ _______ _______ _____ _____    ______ ____
ROOT
ATOM      1  N   UNL     1       3.436   4.444  18.164  0.00  0.00    +0.000 N 
ATOM      2  C   UNL     1       3.549   5.821  17.984  0.00  0.00    +0.000 A 
ATOM      3  N   UNL     1       4.234   6.376  17.029  0.00  0.00    +0.000 NA
ATOM      4  C   UNL     1       4.939   5.535  16.151  0.00  0.00    +0.000 A 
ATOM      5  C   UNL     1       5.717   6.109  15.143  0.00  0.00    +0.000 A 
ATOM      6  C   UNL     1       6.468   5.308  14.277  0.00  0.00    +0.000 A 
ATOM      7  C   UNL     1       6.445   3.921  14.405  0.00  0.00    +0.000 A 
ATOM      8  C   UNL     1       5.664   3.336  15.397  0.00  0.00    +0.000 A 
ATOM      9  C   UNL     1       4.918   4.146  16.262  0.00  0.00    +0.000 A 
ATOM     10  C   UNL     1       4.097   3.547  17.327  0.00  0.00    +0.000 A 
ATOM     11  O   UNL     1       4.052   2.321  17.416  0.00  0.00    +0.000 OA
ENDROOT
BRANCH   1  18
ATOM     12  C   UNL     1       4.759   3.318  20.531  0.00  0.00    +0.000 C 
ATOM     13  C   UNL     1       3.269   3.302  20.339  0.00  0.00    +0.000 A 
ATOM     14  C   UNL     1       2.450   2.734  21.326  0.00  0.00    +0.000 A 
ATOM     15  C   UNL     1       1.061   2.747  21.193  0.00  0.00    +0.000 A 
ATOM     16  C   UNL     1       0.464   3.341  20.084  0.00  0.00    +0.000 A 
ATOM     17  C   UNL     1       1.262   3.910  19.091  0.00  0.00    +0.000 A 
ATOM     18  C   UNL     1       2.658   3.878  19.207  0.00  0.00    +0.000 A 
ENDBRANCH   1  18
BRANCH   2  19
ATOM     19  S   UNL     1       2.746   6.874  19.150  0.00  0.00    +0.000 S 
BRANCH  19  20
ATOM     20  C   UNL     1       2.334   8.342  18.181  0.00  0.00    +0.000 C 
BRANCH  20  21
ATOM     21  C   UNL     1       1.276   9.186  18.862  0.00  0.00    +0.000 C 
ATOM     22  O   UNL     1       1.253   9.348  20.080  0.00  0.00    +0.000 OA
ATOM     23  N   UNL     1       0.367   9.784  18.023  0.00  0.00    +0.000 N 
ATOM     24  H   UNL     1       0.443   9.644  17.018  0.00  0.00    +0.000 HD
BRANCH  23  25
ATOM     25  C   UNL     1      -0.686  10.607  18.561  0.00  0.00    +0.000 C 
BRANCH  25  26
ATOM     26  C   UNL     1      -1.893  10.565  17.682  0.00  0.00    +0.000 A 
ATOM     27  C   UNL     1      -2.041   9.900  16.479  0.00  0.00    +0.000 A 
ATOM     28  C   UNL     1      -3.292  10.175  15.856  0.00  0.00    +0.000 A 
ATOM     29  C   UNL     1      -4.073  11.016  16.616  0.00  0.00    +0.000 A 
ATOM     30  S   UNL     1      -3.296  11.473  18.068  0.00  0.00    +0.000 S 
ENDBRANCH  25  26
ENDBRANCH  23  25
ENDBRANCH  20  21
ENDBRANCH  19  20
ENDBRANCH   2  19
TORSDOF 6
ENDMDL
