MODEL 1
REMARK VINA RESULT:      -8.9      0.000      0.000
REMARK  Name = 
REMARK  4 active torsions:
REMARK  status: ('A' for Active; 'I' for Inactive)
REMARK    1  A    between atoms: N_3  and  C_4
REMARK    2  A    between atoms: N_12  and  C_13
REMARK    3  A    between atoms: N_16  and  S_17
REMARK    4  A    between atoms: S_17  and  C_20
REMARK                            x       y       z     vdW  Elec       q    Type
REMARK                         _______ _______ _______ _____ _____    ______ ____
ROOT
ATOM      1  C   UNL     1       7.038   6.000  17.098  0.00  0.00    +0.000 C 
ATOM      2  C   UNL     1       5.940   5.548  16.145  0.00  0.00    +0.000 C 
ATOM      3  C   UNL     1       4.536   5.697  16.712  0.00  0.00    +0.000 C 
ATOM      4  N   UNL     1       4.406   5.096  18.060  0.00  0.00    +0.000 NA
ATOM      5  C   UNL     1       5.472   5.422  19.043  0.00  0.00    +0.000 C 
ATOM      6  C   UNL     1       6.872   5.323  18.455  0.00  0.00    +0.000 C 
ENDROOT
BRANCH   1  10
ATOM      7  O   UNL     1       8.731   7.660  18.869  0.00  0.00    +0.000 OA
ATOM      8  C   UNL     1       8.055   8.171  17.992  0.00  0.00    +0.000 C 
ATOM      9  N   UNL     1       7.961   9.520  17.752  0.00  0.00    +0.000 N 
ATOM     10  N   UNL     1       7.283   7.447  17.111  0.00  0.00    +0.000 N 
ATOM     11  H   UNL     1       7.305   9.825  17.044  0.00  0.00    +0.000 HD
ATOM     12  H   UNL     1       6.776   7.978  16.419  0.00  0.00    +0.000 HD
BRANCH   9  13
ATOM     13  C   UNL     1       8.644  10.572  18.409  0.00  0.00    +0.000 A 
ATOM     14  C   UNL     1       9.491  10.406  19.507  0.00  0.00    +0.000 A 
ATOM     15  C   UNL     1      10.157  11.511  20.051  0.00  0.00    +0.000 A 
ATOM     16  C   UNL     1       9.970  12.776  19.503  0.00  0.00    +0.000 A 
ATOM     17  F   UNL     1      10.628  13.824  20.015  0.00  0.00    +0.000 F 
ATOM     18  C   UNL     1       9.116  12.968  18.428  0.00  0.00    +0.000 A 
ATOM     19  C   UNL     1       8.462  11.864  17.893  0.00  0.00    +0.000 A 
ATOM     20  F   UNL     1       7.636  12.044  16.849  0.00  0.00    +0.000 F 
ENDBRANCH   9  13
ENDBRANCH   1  10
BRANCH   4  21
ATOM     21  S   UNL     1       2.806   5.100  18.701  0.00  0.00    +0.000 S 
ATOM     22  O   UNL     1       1.918   4.548  17.700  0.00  0.00    +0.000 OA
ATOM     23  O   UNL     1       2.877   4.515  20.025  0.00  0.00    +0.000 OA
BRANCH  21  24
ATOM     24  C   UNL     1       2.366   6.821  18.917  0.00  0.00    +0.000 A 
ATOM     25  C   UNL     1       2.316   7.689  17.819  0.00  0.00    +0.000 A 
ATOM     26  C   UNL     1       1.894   9.011  18.001  0.00  0.00    +0.000 A 
ATOM     27  C   UNL     1       1.507   9.447  19.267  0.00  0.00    +0.000 A 
ATOM     28  F   UNL     1       1.118  10.717  19.437  0.00  0.00    +0.000 F 
ATOM     29  C   UNL     1       1.512   8.580  20.354  0.00  0.00    +0.000 A 
ATOM     30  C   UNL     1       1.931   7.258  20.179  0.00  0.00    +0.000 A 
ENDBRANCH  21  24
ENDBRANCH   4  21
TORSDOF 4
ENDMDL
MODEL 2
REMARK VINA RESULT:      -8.5      4.833      7.811
REMARK  Name = 
REMARK  4 active torsions:
REMARK  status: ('A' for Active; 'I' for Inactive)
REMARK    1  A    between atoms: N_3  and  C_4
REMARK    2  A    between atoms: N_12  and  C_13
REMARK    3  A    between atoms: N_16  and  S_17
REMARK    4  A    between atoms: S_17  and  C_20
REMARK                            x       y       z     vdW  Elec       q    Type
REMARK                         _______ _______ _______ _____ _____    ______ ____
ROOT
ATOM      1  C   UNL     1       3.141   5.115  18.945  0.00  0.00    +0.000 C 
ATOM      2  C   UNL     1       4.386   4.612  19.662  0.00  0.00    +0.000 C 
ATOM      3  C   UNL     1       5.689   5.058  19.016  0.00  0.00    +0.000 C 
ATOM      4  N   UNL     1       5.718   4.785  17.560  0.00  0.00    +0.000 NA
ATOM      5  C   UNL     1       4.515   5.177  16.781  0.00  0.00    +0.000 C 
ATOM      6  C   UNL     1       3.212   4.774  17.460  0.00  0.00    +0.000 C 
ENDROOT
BRANCH   1  10
ATOM      7  O   UNL     1       1.363   6.148  21.074  0.00  0.00    +0.000 OA
ATOM      8  C   UNL     1       1.880   6.905  20.269  0.00  0.00    +0.000 C 
ATOM      9  N   UNL     1       1.678   8.263  20.220  0.00  0.00    +0.000 N 
ATOM     10  N   UNL     1       2.748   6.488  19.285  0.00  0.00    +0.000 N 
ATOM     11  H   UNL     1       2.103   8.772  19.455  0.00  0.00    +0.000 HD
ATOM     12  H   UNL     1       3.123   7.207  18.685  0.00  0.00    +0.000 HD
BRANCH   9  13
ATOM     13  C   UNL     1       0.900   9.060  21.093  0.00  0.00    +0.000 A 
ATOM     14  C   UNL     1       0.528   8.692  22.388  0.00  0.00    +0.000 A 
ATOM     15  C   UNL     1      -0.203   9.580  23.187  0.00  0.00    +0.000 A 
ATOM     16  C   UNL     1      -0.566  10.827  22.688  0.00  0.00    +0.000 A 
ATOM     17  F   UNL     1      -1.246  11.680  23.466  0.00  0.00    +0.000 F 
ATOM     18  C   UNL     1      -0.228  11.205  21.398  0.00  0.00    +0.000 A 
ATOM     19  C   UNL     1       0.501  10.318  20.614  0.00  0.00    +0.000 A 
ATOM     20  F   UNL     1       0.833  10.680  19.364  0.00  0.00    +0.000 F 
ENDBRANCH   9  13
ENDBRANCH   1  10
BRANCH   4  21
ATOM     21  S   UNL     1       7.221   5.131  16.790  0.00  0.00    +0.000 S 
ATOM     22  O   UNL     1       7.453   6.558  16.875  0.00  0.00    +0.000 OA
ATOM     23  O   UNL     1       8.194   4.195  17.316  0.00  0.00    +0.000 OA
BRANCH  21  24
ATOM     24  C   UNL     1       6.994   4.727  15.062  0.00  0.00    +0.000 A 
ATOM     25  C   UNL     1       7.802   5.313  14.079  0.00  0.00    +0.000 A 
ATOM     26  C   UNL     1       7.657   4.924  12.742  0.00  0.00    +0.000 A 
ATOM     27  C   UNL     1       6.727   3.943  12.403  0.00  0.00    +0.000 A 
ATOM     28  F   UNL     1       6.584   3.585  11.121  0.00  0.00    +0.000 F 
ATOM     29  C   UNL     1       5.952   3.325  13.378  0.00  0.00    +0.000 A 
ATOM     30  C   UNL     1       6.091   3.708  14.714  0.00  0.00    +0.000 A 
ENDBRANCH  21  24
ENDBRANCH   4  21
TORSDOF 4
ENDMDL
MODEL 3
REMARK VINA RESULT:      -8.5      2.821      3.448
REMARK  Name = 
REMARK  4 active torsions:
REMARK  status: ('A' for Active; 'I' for Inactive)
REMARK    1  A    between atoms: N_3  and  C_4
REMARK    2  A    between atoms: N_12  and  C_13
REMARK    3  A    between atoms: N_16  and  S_17
REMARK    4  A    between atoms: S_17  and  C_20
REMARK                            x       y       z     vdW  Elec       q    Type
REMARK                         _______ _______ _______ _____ _____    ______ ____
ROOT
ATOM      1  C   UNL     1       7.238   5.986  17.802  0.00  0.00    +0.000 C 
ATOM      2  C   UNL     1       6.287   6.492  16.726  0.00  0.00    +0.000 C 
ATOM      3  C   UNL     1       4.912   6.875  17.254  0.00  0.00    +0.000 C 
ATOM      4  N   UNL     1       4.314   5.809  18.091  0.00  0.00    +0.000 NA
ATOM      5  C   UNL     1       5.189   5.200  19.127  0.00  0.00    +0.000 C 
ATOM      6  C   UNL     1       6.581   4.869  18.607  0.00  0.00    +0.000 C 
ENDROOT
BRANCH   1  10
ATOM      7  O   UNL     1       7.866   8.792  17.103  0.00  0.00    +0.000 OA
ATOM      8  C   UNL     1       8.214   8.322  18.173  0.00  0.00    +0.000 C 
ATOM      9  N   UNL     1       8.946   8.986  19.128  0.00  0.00    +0.000 N 
ATOM     10  N   UNL     1       7.914   7.038  18.570  0.00  0.00    +0.000 N 
ATOM     11  H   UNL     1       9.239   8.461  19.942  0.00  0.00    +0.000 HD
ATOM     12  H   UNL     1       8.244   6.763  19.483  0.00  0.00    +0.000 HD
BRANCH   9  13
ATOM     13  C   UNL     1       9.393  10.329  19.105  0.00  0.00    +0.000 A 
ATOM     14  C   UNL     1       9.777  11.020  17.953  0.00  0.00    +0.000 A 
ATOM     15  C   UNL     1      10.156  12.365  18.037  0.00  0.00    +0.000 A 
ATOM     16  C   UNL     1      10.158  13.013  19.269  0.00  0.00    +0.000 A 
ATOM     17  F   UNL     1      10.501  14.306  19.337  0.00  0.00    +0.000 F 
ATOM     18  C   UNL     1       9.803  12.340  20.428  0.00  0.00    +0.000 A 
ATOM     19  C   UNL     1       9.425  11.006  20.334  0.00  0.00    +0.000 A 
ATOM     20  F   UNL     1       9.077  10.351  21.454  0.00  0.00    +0.000 F 
ENDBRANCH   9  13
ENDBRANCH   1  10
BRANCH   4  21
ATOM     21  S   UNL     1       2.696   6.115  18.602  0.00  0.00    +0.000 S 
ATOM     22  O   UNL     1       2.699   7.311  19.418  0.00  0.00    +0.000 OA
ATOM     23  O   UNL     1       1.855   6.028  17.425  0.00  0.00    +0.000 OA
BRANCH  21  24
ATOM     24  C   UNL     1       2.247   4.745  19.663  0.00  0.00    +0.000 A 
ATOM     25  C   UNL     1       1.873   3.511  19.116  0.00  0.00    +0.000 A 
ATOM     26  C   UNL     1       1.600   2.432  19.965  0.00  0.00    +0.000 A 
ATOM     27  C   UNL     1       1.724   2.588  21.344  0.00  0.00    +0.000 A 
ATOM     28  F   UNL     1       1.448   1.556  22.153  0.00  0.00    +0.000 F 
ATOM     29  C   UNL     1       2.137   3.797  21.894  0.00  0.00    +0.000 A 
ATOM     30  C   UNL     1       2.411   4.878  21.051  0.00  0.00    +0.000 A 
ENDBRANCH  21  24
ENDBRANCH   4  21
TORSDOF 4
ENDMDL
MODEL 4
REMARK VINA RESULT:      -8.4      2.854      3.506
REMARK  Name = 
REMARK  4 active torsions:
REMARK  status: ('A' for Active; 'I' for Inactive)
REMARK    1  A    between atoms: N_3  and  C_4
REMARK    2  A    between atoms: N_12  and  C_13
REMARK    3  A    between atoms: N_16  and  S_17
REMARK    4  A    between atoms: S_17  and  C_20
REMARK                            x       y       z     vdW  Elec       q    Type
REMARK                         _______ _______ _______ _____ _____    ______ ____
ROOT
ATOM      1  C   UNL     1       7.579   6.238  17.978  0.00  0.00    +0.000 C 
ATOM      2  C   UNL     1       6.645   6.691  16.864  0.00  0.00    +0.000 C 
ATOM      3  C   UNL     1       5.253   7.073  17.347  0.00  0.00    +0.000 C 
ATOM      4  N   UNL     1       4.651   6.030  18.210  0.00  0.00    +0.000 NA
ATOM      5  C   UNL     1       5.511   5.473  19.286  0.00  0.00    +0.000 C 
ATOM      6  C   UNL     1       6.919   5.142  18.809  0.00  0.00    +0.000 C 
ENDROOT
BRANCH   1  10
ATOM      7  O   UNL     1       8.038   9.070  17.250  0.00  0.00    +0.000 OA
ATOM      8  C   UNL     1       8.444   8.623  18.310  0.00  0.00    +0.000 C 
ATOM      9  N   UNL     1       9.170   9.328  19.239  0.00  0.00    +0.000 N 
ATOM     10  N   UNL     1       8.223   7.328  18.721  0.00  0.00    +0.000 N 
ATOM     11  H   UNL     1       9.515   8.823  20.045  0.00  0.00    +0.000 HD
ATOM     12  H   UNL     1       8.595   7.074  19.623  0.00  0.00    +0.000 HD
BRANCH   9  13
ATOM     13  C   UNL     1       9.546  10.692  19.198  0.00  0.00    +0.000 A 
ATOM     14  C   UNL     1      10.002  11.357  18.057  0.00  0.00    +0.000 A 
ATOM     15  C   UNL     1      10.300  12.725  18.116  0.00  0.00    +0.000 A 
ATOM     16  C   UNL     1      10.150  13.419  19.312  0.00  0.00    +0.000 A 
ATOM     17  F   UNL     1      10.416  14.731  19.353  0.00  0.00    +0.000 F 
ATOM     18  C   UNL     1       9.721  12.775  20.462  0.00  0.00    +0.000 A 
ATOM     19  C   UNL     1       9.424  11.419  20.392  0.00  0.00    +0.000 A 
ATOM     20  F   UNL     1       9.005  10.790  21.503  0.00  0.00    +0.000 F 
ENDBRANCH   9  13
ENDBRANCH   1  10
BRANCH   4  21
ATOM     21  S   UNL     1       3.019   6.332  18.674  0.00  0.00    +0.000 S 
ATOM     22  O   UNL     1       3.020   6.826  20.035  0.00  0.00    +0.000 OA
ATOM     23  O   UNL     1       2.410   7.106  17.611  0.00  0.00    +0.000 OA
BRANCH  21  24
ATOM     24  C   UNL     1       2.206   4.737  18.684  0.00  0.00    +0.000 A 
ATOM     25  C   UNL     1       2.508   3.776  17.711  0.00  0.00    +0.000 A 
ATOM     26  C   UNL     1       1.917   2.509  17.785  0.00  0.00    +0.000 A 
ATOM     27  C   UNL     1       1.053   2.207  18.835  0.00  0.00    +0.000 A 
ATOM     28  F   UNL     1       0.480   0.998  18.893  0.00  0.00    +0.000 F 
ATOM     29  C   UNL     1       0.783   3.141  19.830  0.00  0.00    +0.000 A 
ATOM     30  C   UNL     1       1.369   4.407  19.763  0.00  0.00    +0.000 A 
ENDBRANCH  21  24
ENDBRANCH   4  21
TORSDOF 4
ENDMDL
MODEL 5
REMARK VINA RESULT:      -8.4      1.280      1.544
REMARK  Name = 
REMARK  4 active torsions:
REMARK  status: ('A' for Active; 'I' for Inactive)
REMARK    1  A    between atoms: N_3  and  C_4
REMARK    2  A    between atoms: N_12  and  C_13
REMARK    3  A    between atoms: N_16  and  S_17
REMARK    4  A    between atoms: S_17  and  C_20
REMARK                            x       y       z     vdW  Elec       q    Type
REMARK                         _______ _______ _______ _____ _____    ______ ____
ROOT
ATOM      1  C   UNL     1       7.295   6.183  17.559  0.00  0.00    +0.000 C 
ATOM      2  C   UNL     1       6.120   6.692  16.734  0.00  0.00    +0.000 C 
ATOM      3  C   UNL     1       4.806   6.737  17.500  0.00  0.00    +0.000 C 
ATOM      4  N   UNL     1       4.511   5.458  18.187  0.00  0.00    +0.000 NA
ATOM      5  C   UNL     1       5.619   4.843  18.963  0.00  0.00    +0.000 C 
ATOM      6  C   UNL     1       6.944   4.849  18.212  0.00  0.00    +0.000 C 
ENDROOT
BRANCH   1  10
ATOM      7  O   UNL     1       7.989   9.012  17.040  0.00  0.00    +0.000 OA
ATOM      8  C   UNL     1       8.259   8.488  18.108  0.00  0.00    +0.000 C 
ATOM      9  N   UNL     1       8.928   9.098  19.141  0.00  0.00    +0.000 N 
ATOM     10  N   UNL     1       7.923   7.190  18.421  0.00  0.00    +0.000 N 
ATOM     11  H   UNL     1       9.161   8.532  19.947  0.00  0.00    +0.000 HD
ATOM     12  H   UNL     1       8.188   6.869  19.340  0.00  0.00    +0.000 HD
BRANCH   9  13
ATOM     13  C   UNL     1       9.385  10.436  19.213  0.00  0.00    +0.000 A 
ATOM     14  C   UNL     1       9.813  11.191  18.118  0.00  0.00    +0.000 A 
ATOM     15  C   UNL     1      10.199  12.526  18.295  0.00  0.00    +0.000 A 
ATOM     16  C   UNL     1      10.164  13.098  19.563  0.00  0.00    +0.000 A 
ATOM     17  F   UNL     1      10.513  14.382  19.719  0.00  0.00    +0.000 F 
ATOM     18  C   UNL     1       9.766  12.361  20.667  0.00  0.00    +0.000 A 
ATOM     19  C   UNL     1       9.381  11.039  20.481  0.00  0.00    +0.000 A 
ATOM     20  F   UNL     1       8.991  10.321  21.547  0.00  0.00    +0.000 F 
ENDBRANCH   9  13
ENDBRANCH   1  10
BRANCH   4  21
ATOM     21  S   UNL     1       2.968   5.390  18.953  0.00  0.00    +0.000 S 
ATOM     22  O   UNL     1       2.075   4.632  18.102  0.00  0.00    +0.000 OA
ATOM     23  O   UNL     1       3.193   4.988  20.327  0.00  0.00    +0.000 OA
BRANCH  21  24
ATOM     24  C   UNL     1       2.365   7.074  18.997  0.00  0.00    +0.000 A 
ATOM     25  C   UNL     1       2.207   7.807  17.814  0.00  0.00    +0.000 A 
ATOM     26  C   UNL     1       1.660   9.095  17.866  0.00  0.00    +0.000 A 
ATOM     27  C   UNL     1       1.260   9.628  19.090  0.00  0.00    +0.000 A 
ATOM     28  F   UNL     1       0.751  10.866  19.136  0.00  0.00    +0.000 F 
ATOM     29  C   UNL     1       1.373   8.890  20.263  0.00  0.00    +0.000 A 
ATOM     30  C   UNL     1       1.917   7.604  20.218  0.00  0.00    +0.000 A 
ENDBRANCH  21  24
ENDBRANCH   4  21
TORSDOF 4
ENDMDL
MODEL 6
REMARK VINA RESULT:      -8.4      2.612      3.222
REMARK  Name = 
REMARK  4 active torsions:
REMARK  status: ('A' for Active; 'I' for Inactive)
REMARK    1  A    between atoms: N_3  and  C_4
REMARK    2  A    between atoms: N_12  and  C_13
REMARK    3  A    between atoms: N_16  and  S_17
REMARK    4  A    between atoms: S_17  and  C_20
REMARK                            x       y       z     vdW  Elec       q    Type
REMARK                         _______ _______ _______ _____ _____    ______ ____
ROOT
ATOM      1  C   UNL     1       7.088   6.294  16.954  0.00  0.00    +0.000 C 
ATOM      2  C   UNL     1       5.981   5.965  15.960  0.00  0.00    +0.000 C 
ATOM      3  C   UNL     1       4.583   6.275  16.475  0.00  0.00    +0.000 C 
ATOM      4  N   UNL     1       4.337   5.697  17.817  0.00  0.00    +0.000 NA
ATOM      5  C   UNL     1       5.395   5.904  18.840  0.00  0.00    +0.000 C 
ATOM      6  C   UNL     1       6.797   5.645  18.303  0.00  0.00    +0.000 C 
ENDROOT
BRANCH   1  10
ATOM      7  O   UNL     1       8.635   7.829  18.955  0.00  0.00    +0.000 OA
ATOM      8  C   UNL     1       8.184   8.374  17.962  0.00  0.00    +0.000 C 
ATOM      9  N   UNL     1       8.291   9.715  17.678  0.00  0.00    +0.000 N 
ATOM     10  N   UNL     1       7.494   7.704  16.977  0.00  0.00    +0.000 N 
ATOM     11  H   UNL     1       7.805  10.060  16.860  0.00  0.00    +0.000 HD
ATOM     12  H   UNL     1       7.179   8.258  16.195  0.00  0.00    +0.000 HD
BRANCH   9  13
ATOM     13  C   UNL     1       8.969  10.711  18.420  0.00  0.00    +0.000 A 
ATOM     14  C   UNL     1       9.829  10.457  19.492  0.00  0.00    +0.000 A 
ATOM     15  C   UNL     1      10.490  11.517  20.126  0.00  0.00    +0.000 A 
ATOM     16  C   UNL     1      10.284  12.824  19.694  0.00  0.00    +0.000 A 
ATOM     17  F   UNL     1      10.937  13.829  20.292  0.00  0.00    +0.000 F 
ATOM     18  C   UNL     1       9.417  13.101  18.649  0.00  0.00    +0.000 A 
ATOM     19  C   UNL     1       8.769  12.042  18.023  0.00  0.00    +0.000 A 
ATOM     20  F   UNL     1       7.930  12.305  17.008  0.00  0.00    +0.000 F 
ENDBRANCH   9  13
ENDBRANCH   1  10
BRANCH   4  21
ATOM     21  S   UNL     1       2.725   5.885  18.398  0.00  0.00    +0.000 S 
ATOM     22  O   UNL     1       2.646   7.140  19.114  0.00  0.00    +0.000 OA
ATOM     23  O   UNL     1       1.837   5.615  17.285  0.00  0.00    +0.000 OA
BRANCH  21  24
ATOM     24  C   UNL     1       2.475   4.573  19.589  0.00  0.00    +0.000 A 
ATOM     25  C   UNL     1       2.380   4.858  20.957  0.00  0.00    +0.000 A 
ATOM     26  C   UNL     1       2.107   3.826  21.862  0.00  0.00    +0.000 A 
ATOM     27  C   UNL     1       1.912   2.528  21.394  0.00  0.00    +0.000 A 
ATOM     28  F   UNL     1       1.665   1.542  22.266  0.00  0.00    +0.000 F 
ATOM     29  C   UNL     1       1.961   2.243  20.033  0.00  0.00    +0.000 A 
ATOM     30  C   UNL     1       2.232   3.269  19.125  0.00  0.00    +0.000 A 
ENDBRANCH  21  24
ENDBRANCH   4  21
TORSDOF 4
ENDMDL
MODEL 7
REMARK VINA RESULT:      -8.4      5.008      9.515
REMARK  Name = 
REMARK  4 active torsions:
REMARK  status: ('A' for Active; 'I' for Inactive)
REMARK    1  A    between atoms: N_3  and  C_4
REMARK    2  A    between atoms: N_12  and  C_13
REMARK    3  A    between atoms: N_16  and  S_17
REMARK    4  A    between atoms: S_17  and  C_20
REMARK                            x       y       z     vdW  Elec       q    Type
REMARK                         _______ _______ _______ _____ _____    ______ ____
ROOT
ATOM      1  C   UNL     1       1.113   9.983  18.874  0.00  0.00    +0.000 C 
ATOM      2  C   UNL     1       2.080   9.423  17.840  0.00  0.00    +0.000 C 
ATOM      3  C   UNL     1       2.136   7.902  17.813  0.00  0.00    +0.000 C 
ATOM      4  N   UNL     1       2.342   7.323  19.162  0.00  0.00    +0.000 NA
ATOM      5  C   UNL     1       1.491   7.858  20.257  0.00  0.00    +0.000 C 
ATOM      6  C   UNL     1       1.395   9.377  20.245  0.00  0.00    +0.000 C 
ENDROOT
BRANCH   1  10
ATOM      7  O   UNL     1      -0.987  12.026  19.291  0.00  0.00    +0.000 OA
ATOM      8  C   UNL     1      -1.236  10.984  18.709  0.00  0.00    +0.000 C 
ATOM      9  N   UNL     1      -2.473  10.621  18.233  0.00  0.00    +0.000 N 
ATOM     10  N   UNL     1      -0.291  10.018  18.448  0.00  0.00    +0.000 N 
ATOM     11  H   UNL     1      -2.567   9.695  17.836  0.00  0.00    +0.000 HD
ATOM     12  H   UNL     1      -0.611   9.202  17.947  0.00  0.00    +0.000 HD
BRANCH   9  13
ATOM     13  C   UNL     1      -3.673  11.370  18.264  0.00  0.00    +0.000 A 
ATOM     14  C   UNL     1      -4.168  12.033  19.390  0.00  0.00    +0.000 A 
ATOM     15  C   UNL     1      -5.342  12.790  19.297  0.00  0.00    +0.000 A 
ATOM     16  C   UNL     1      -6.022  12.875  18.086  0.00  0.00    +0.000 A 
ATOM     17  F   UNL     1      -7.132  13.619  18.000  0.00  0.00    +0.000 F 
ATOM     18  C   UNL     1      -5.562  12.207  16.962  0.00  0.00    +0.000 A 
ATOM     19  C   UNL     1      -4.393  11.462  17.063  0.00  0.00    +0.000 A 
ATOM     20  F   UNL     1      -3.942  10.814  15.976  0.00  0.00    +0.000 F 
ENDBRANCH   9  13
ENDBRANCH   1  10
BRANCH   4  21
ATOM     21  S   UNL     1       2.561   5.614  19.187  0.00  0.00    +0.000 S 
ATOM     22  O   UNL     1       2.601   5.184  20.569  0.00  0.00    +0.000 OA
ATOM     23  O   UNL     1       1.595   5.047  18.267  0.00  0.00    +0.000 OA
BRANCH  21  24
ATOM     24  C   UNL     1       4.181   5.315  18.487  0.00  0.00    +0.000 A 
ATOM     25  C   UNL     1       5.332   5.423  19.277  0.00  0.00    +0.000 A 
ATOM     26  C   UNL     1       6.580   5.109  18.728  0.00  0.00    +0.000 A 
ATOM     27  C   UNL     1       6.666   4.671  17.407  0.00  0.00    +0.000 A 
ATOM     28  F   UNL     1       7.865   4.385  16.883  0.00  0.00    +0.000 F 
ATOM     29  C   UNL     1       5.523   4.519  16.629  0.00  0.00    +0.000 A 
ATOM     30  C   UNL     1       4.274   4.830  17.172  0.00  0.00    +0.000 A 
ENDBRANCH  21  24
ENDBRANCH   4  21
TORSDOF 4
ENDMDL
MODEL 8
REMARK VINA RESULT:      -8.1      4.235      8.051
REMARK  Name = 
REMARK  4 active torsions:
REMARK  status: ('A' for Active; 'I' for Inactive)
REMARK    1  A    between atoms: N_3  and  C_4
REMARK    2  A    between atoms: N_12  and  C_13
REMARK    3  A    between atoms: N_16  and  S_17
REMARK    4  A    between atoms: S_17  and  C_20
REMARK                            x       y       z     vdW  Elec       q    Type
REMARK                         _______ _______ _______ _____ _____    ______ ____
ROOT
ATOM      1  C   UNL     1       9.595  10.262  18.752  0.00  0.00    +0.000 C 
ATOM      2  C   UNL     1       9.261  10.907  20.090  0.00  0.00    +0.000 C 
ATOM      3  C   UNL     1       8.682  12.309  19.968  0.00  0.00    +0.000 C 
ATOM      4  N   UNL     1       9.506  13.184  19.101  0.00  0.00    +0.000 NA
ATOM      5  C   UNL     1       9.943  12.617  17.799  0.00  0.00    +0.000 C 
ATOM      6  C   UNL     1      10.471  11.194  17.920  0.00  0.00    +0.000 C 
ENDROOT
BRANCH   1  10
ATOM      7  O   UNL     1       8.603   7.474  18.767  0.00  0.00    +0.000 OA
ATOM      8  C   UNL     1       8.065   8.326  18.079  0.00  0.00    +0.000 C 
ATOM      9  N   UNL     1       7.008   8.103  17.230  0.00  0.00    +0.000 N 
ATOM     10  N   UNL     1       8.455   9.646  18.065  0.00  0.00    +0.000 N 
ATOM     11  H   UNL     1       6.700   8.876  16.654  0.00  0.00    +0.000 HD
ATOM     12  H   UNL     1       7.926  10.262  17.466  0.00  0.00    +0.000 HD
BRANCH   9  13
ATOM     13  C   UNL     1       6.303   6.895  17.014  0.00  0.00    +0.000 A 
ATOM     14  C   UNL     1       6.872   5.718  16.522  0.00  0.00    +0.000 A 
ATOM     15  C   UNL     1       6.092   4.563  16.394  0.00  0.00    +0.000 A 
ATOM     16  C   UNL     1       4.747   4.587  16.750  0.00  0.00    +0.000 A 
ATOM     17  F   UNL     1       4.014   3.472  16.646  0.00  0.00    +0.000 F 
ATOM     18  C   UNL     1       4.155   5.750  17.219  0.00  0.00    +0.000 A 
ATOM     19  C   UNL     1       4.939   6.891  17.346  0.00  0.00    +0.000 A 
ATOM     20  F   UNL     1       4.371   8.019  17.802  0.00  0.00    +0.000 F 
ENDBRANCH   9  13
ENDBRANCH   1  10
BRANCH   4  21
ATOM     21  S   UNL     1       8.988  14.827  19.035  0.00  0.00    +0.000 S 
ATOM     22  O   UNL     1       9.423  15.486  20.249  0.00  0.00    +0.000 OA
ATOM     23  O   UNL     1       9.376  15.344  17.738  0.00  0.00    +0.000 OA
BRANCH  21  24
ATOM     24  C   UNL     1       7.199  14.782  19.062  0.00  0.00    +0.000 A 
ATOM     25  C   UNL     1       6.495  15.085  20.233  0.00  0.00    +0.000 A 
ATOM     26  C   UNL     1       5.096  15.119  20.210  0.00  0.00    +0.000 A 
ATOM     27  C   UNL     1       4.416  14.872  19.018  0.00  0.00    +0.000 A 
ATOM     28  F   UNL     1       3.078  14.892  19.005  0.00  0.00    +0.000 F 
ATOM     29  C   UNL     1       5.110  14.614  17.840  0.00  0.00    +0.000 A 
ATOM     30  C   UNL     1       6.506  14.579  17.857  0.00  0.00    +0.000 A 
ENDBRANCH  21  24
ENDBRANCH   4  21
TORSDOF 4
ENDMDL
MODEL 9
REMARK VINA RESULT:      -8.1      4.915      7.948
REMARK  Name = 
REMARK  4 active torsions:
REMARK  status: ('A' for Active; 'I' for Inactive)
REMARK    1  A    between atoms: N_3  and  C_4
REMARK    2  A    between atoms: N_12  and  C_13
REMARK    3  A    between atoms: N_16  and  S_17
REMARK    4  A    between atoms: S_17  and  C_20
REMARK                            x       y       z     vdW  Elec       q    Type
REMARK                         _______ _______ _______ _____ _____    ______ ____
ROOT
ATOM      1  C   UNL     1       3.179   5.339  19.004  0.00  0.00    +0.000 C 
ATOM      2  C   UNL     1       4.422   4.850  19.736  0.00  0.00    +0.000 C 
ATOM      3  C   UNL     1       5.727   5.237  19.054  0.00  0.00    +0.000 C 
ATOM      4  N   UNL     1       5.735   4.886  17.615  0.00  0.00    +0.000 NA
ATOM      5  C   UNL     1       4.531   5.260  16.827  0.00  0.00    +0.000 C 
ATOM      6  C   UNL     1       3.229   4.919  17.538  0.00  0.00    +0.000 C 
ENDROOT
BRANCH   1  10
ATOM      7  O   UNL     1       1.031   6.488  20.685  0.00  0.00    +0.000 OA
ATOM      8  C   UNL     1       1.773   7.209  20.039  0.00  0.00    +0.000 C 
ATOM      9  N   UNL     1       1.685   8.579  19.976  0.00  0.00    +0.000 N 
ATOM     10  N   UNL     1       2.815   6.735  19.275  0.00  0.00    +0.000 N 
ATOM     11  H   UNL     1       2.312   9.059  19.343  0.00  0.00    +0.000 HD
ATOM     12  H   UNL     1       3.370   7.428  18.795  0.00  0.00    +0.000 HD
BRANCH   9  13
ATOM     13  C   UNL     1       0.783   9.427  20.662  0.00  0.00    +0.000 A 
ATOM     14  C   UNL     1      -0.184  10.225  20.046  0.00  0.00    +0.000 A 
ATOM     15  C   UNL     1      -1.061  10.989  20.826  0.00  0.00    +0.000 A 
ATOM     16  C   UNL     1      -0.964  10.962  22.214  0.00  0.00    +0.000 A 
ATOM     17  F   UNL     1      -1.822  11.679  22.952  0.00  0.00    +0.000 F 
ATOM     18  C   UNL     1       0.003  10.196  22.846  0.00  0.00    +0.000 A 
ATOM     19  C   UNL     1       0.866   9.437  22.064  0.00  0.00    +0.000 A 
ATOM     20  F   UNL     1       1.803   8.691  22.671  0.00  0.00    +0.000 F 
ENDBRANCH   9  13
ENDBRANCH   1  10
BRANCH   4  21
ATOM     21  S   UNL     1       7.236   5.163  16.814  0.00  0.00    +0.000 S 
ATOM     22  O   UNL     1       7.484   6.589  16.800  0.00  0.00    +0.000 OA
ATOM     23  O   UNL     1       8.202   4.253  17.395  0.00  0.00    +0.000 OA
BRANCH  21  24
ATOM     24  C   UNL     1       6.992   4.646  15.118  0.00  0.00    +0.000 A 
ATOM     25  C   UNL     1       5.998   3.715  14.791  0.00  0.00    +0.000 A 
ATOM     26  C   UNL     1       5.775   3.384  13.449  0.00  0.00    +0.000 A 
ATOM     27  C   UNL     1       6.528   3.998  12.450  0.00  0.00    +0.000 A 
ATOM     28  F   UNL     1       6.319   3.667  11.169  0.00  0.00    +0.000 F 
ATOM     29  C   UNL     1       7.487   4.955  12.763  0.00  0.00    +0.000 A 
ATOM     30  C   UNL     1       7.714   5.290  14.100  0.00  0.00    +0.000 A 
ENDBRANCH  21  24
ENDBRANCH   4  21
TORSDOF 4
ENDMDL
