MODEL 1
REMARK VINA RESULT:      -7.5      0.000      0.000
REMARK  Name = 
REMARK  5 active torsions:
REMARK  status: ('A' for Active; 'I' for Inactive)
REMARK    1  A    between atoms: O_1  and  C_2
REMARK    2  A    between atoms: C_5  and  C_6
REMARK    3  A    between atoms: C_9  and  C_10
REMARK    4  A    between atoms: C_12  and  O_13
REMARK    5  A    between atoms: C_15  and  O_16
REMARK                            x       y       z     vdW  Elec       q    Type
REMARK                         _______ _______ _______ _____ _____    ______ ____
ROOT
ATOM      1  C   UNL     1       1.224   8.628  20.171  0.00  0.00    +0.000 A 
ATOM      2  N   UNL     1       1.549   9.021  18.927  0.00  0.00    +0.000 NA
ATOM      3  C   UNL     1       2.297   8.162  18.200  0.00  0.00    +0.000 A 
ATOM      4  C   UNL     1       2.754   6.931  18.644  0.00  0.00    +0.000 A 
ATOM      5  C   UNL     1       2.349   6.643  19.936  0.00  0.00    +0.000 A 
ATOM      6  N   UNL     1       1.597   7.454  20.710  0.00  0.00    +0.000 NA
ENDROOT
BRANCH   1  10
ATOM      7  C   UNL     1      -1.134  11.285  22.582  0.00  0.00    +0.000 A 
ATOM      8  C   UNL     1      -0.794  11.655  21.288  0.00  0.00    +0.000 A 
ATOM      9  C   UNL     1      -0.026  10.788  20.506  0.00  0.00    +0.000 A 
ATOM     10  C   UNL     1       0.415   9.542  20.998  0.00  0.00    +0.000 A 
ATOM     11  C   UNL     1       0.050   9.206  22.318  0.00  0.00    +0.000 A 
ATOM     12  C   UNL     1      -0.717  10.069  23.104  0.00  0.00    +0.000 A 
BRANCH   7  13
ATOM     13  O   UNL     1      -1.887  12.095  23.381  0.00  0.00    +0.000 OA
ATOM     14  H   UNL     1      -1.747  13.014  23.102  0.00  0.00    +0.000 HD
ENDBRANCH   7  13
ENDBRANCH   1  10
BRANCH   4  15
ATOM     15  C   UNL     1       3.586   6.029  17.830  0.00  0.00    +0.000 A 
ATOM     16  C   UNL     1       4.451   6.527  16.836  0.00  0.00    +0.000 A 
ATOM     17  C   UNL     1       5.235   5.661  16.073  0.00  0.00    +0.000 A 
ATOM     18  C   UNL     1       5.196   4.289  16.278  0.00  0.00    +0.000 A 
ATOM     19  C   UNL     1       4.353   3.787  17.258  0.00  0.00    +0.000 A 
ATOM     20  C   UNL     1       3.554   4.635  18.022  0.00  0.00    +0.000 A 
BRANCH  17  21
ATOM     21  O   UNL     1       6.067   6.132  15.100  0.00  0.00    +0.000 OA
ATOM     22  H   UNL     1       5.549   6.645  14.458  0.00  0.00    +0.000 HD
ENDBRANCH  17  21
BRANCH  19  23
ATOM     23  O   UNL     1       4.273   2.449  17.513  0.00  0.00    +0.000 OA
ATOM     24  H   UNL     1       4.153   1.979  16.671  0.00  0.00    +0.000 HD
ENDBRANCH  19  23
ENDBRANCH   4  15
TORSDOF 5
ENDMDL
MODEL 2
REMARK VINA RESULT:      -7.5      0.061      1.053
REMARK  Name = 
REMARK  5 active torsions:
REMARK  status: ('A' for Active; 'I' for Inactive)
REMARK    1  A    between atoms: O_1  and  C_2
REMARK    2  A    between atoms: C_5  and  C_6
REMARK    3  A    between atoms: C_9  and  C_10
REMARK    4  A    between atoms: C_12  and  O_13
REMARK    5  A    between atoms: C_15  and  O_16
REMARK                            x       y       z     vdW  Elec       q    Type
REMARK                         _______ _______ _______ _____ _____    ______ ____
ROOT
ATOM      1  C   UNL     1       1.198   8.667  20.200  0.00  0.00    +0.000 A 
ATOM      2  N   UNL     1       1.526   9.066  18.957  0.00  0.00    +0.000 NA
ATOM      3  C   UNL     1       2.276   8.210  18.229  0.00  0.00    +0.000 A 
ATOM      4  C   UNL     1       2.733   6.978  18.668  0.00  0.00    +0.000 A 
ATOM      5  C   UNL     1       2.326   6.684  19.959  0.00  0.00    +0.000 A 
ATOM      6  N   UNL     1       1.572   7.491  20.734  0.00  0.00    +0.000 NA
ENDROOT
BRANCH   1  10
ATOM      7  C   UNL     1      -1.161  11.321  22.613  0.00  0.00    +0.000 A 
ATOM      8  C   UNL     1      -0.747  10.104  23.138  0.00  0.00    +0.000 A 
ATOM      9  C   UNL     1       0.021   9.242  22.349  0.00  0.00    +0.000 A 
ATOM     10  C   UNL     1       0.387   9.577  21.029  0.00  0.00    +0.000 A 
ATOM     11  C   UNL     1      -0.055  10.820  20.534  0.00  0.00    +0.000 A 
ATOM     12  C   UNL     1      -0.824  11.685  21.318  0.00  0.00    +0.000 A 
BRANCH   7  13
ATOM     13  O   UNL     1      -1.906  12.197  23.346  0.00  0.00    +0.000 OA
ATOM     14  H   UNL     1      -2.726  11.751  23.615  0.00  0.00    +0.000 HD
ENDBRANCH   7  13
ENDBRANCH   1  10
BRANCH   4  15
ATOM     15  C   UNL     1       3.568   6.080  17.853  0.00  0.00    +0.000 A 
ATOM     16  C   UNL     1       4.428   6.582  16.857  0.00  0.00    +0.000 A 
ATOM     17  C   UNL     1       5.214   5.720  16.091  0.00  0.00    +0.000 A 
ATOM     18  C   UNL     1       5.183   4.348  16.297  0.00  0.00    +0.000 A 
ATOM     19  C   UNL     1       4.345   3.841  17.279  0.00  0.00    +0.000 A 
ATOM     20  C   UNL     1       3.544   4.686  18.044  0.00  0.00    +0.000 A 
BRANCH  17  21
ATOM     21  O   UNL     1       6.042   6.195  15.116  0.00  0.00    +0.000 OA
ATOM     22  H   UNL     1       6.821   5.617  15.050  0.00  0.00    +0.000 HD
ENDBRANCH  17  21
BRANCH  19  23
ATOM     23  O   UNL     1       4.272   2.503  17.534  0.00  0.00    +0.000 OA
ATOM     24  H   UNL     1       3.927   2.055  16.743  0.00  0.00    +0.000 HD
ENDBRANCH  19  23
ENDBRANCH   4  15
TORSDOF 5
ENDMDL
MODEL 3
REMARK VINA RESULT:      -7.4      0.070      2.087
REMARK  Name = 
REMARK  5 active torsions:
REMARK  status: ('A' for Active; 'I' for Inactive)
REMARK    1  A    between atoms: O_1  and  C_2
REMARK    2  A    between atoms: C_5  and  C_6
REMARK    3  A    between atoms: C_9  and  C_10
REMARK    4  A    between atoms: C_12  and  O_13
REMARK    5  A    between atoms: C_15  and  O_16
REMARK                            x       y       z     vdW  Elec       q    Type
REMARK                         _______ _______ _______ _____ _____    ______ ____
ROOT
ATOM      1  C   UNL     1       1.247   8.617  20.158  0.00  0.00    +0.000 A 
ATOM      2  N   UNL     1       1.608   9.016  18.925  0.00  0.00    +0.000 NA
ATOM      3  C   UNL     1       2.349   8.146  18.204  0.00  0.00    +0.000 A 
ATOM      4  C   UNL     1       2.764   6.898  18.642  0.00  0.00    +0.000 A 
ATOM      5  C   UNL     1       2.326   6.606  19.922  0.00  0.00    +0.000 A 
ATOM      6  N   UNL     1       1.579   7.427  20.690  0.00  0.00    +0.000 NA
ENDROOT
BRANCH   1  10
ATOM      7  C   UNL     1      -1.086  11.314  22.547  0.00  0.00    +0.000 A 
ATOM      8  C   UNL     1      -0.737  10.072  23.060  0.00  0.00    +0.000 A 
ATOM      9  C   UNL     1       0.023   9.196  22.279  0.00  0.00    +0.000 A 
ATOM     10  C   UNL     1       0.445   9.542  20.979  0.00  0.00    +0.000 A 
ATOM     11  C   UNL     1       0.067  10.810  20.495  0.00  0.00    +0.000 A 
ATOM     12  C   UNL     1      -0.692  11.690  21.272  0.00  0.00    +0.000 A 
BRANCH   7  13
ATOM     13  O   UNL     1      -1.820  12.205  23.274  0.00  0.00    +0.000 OA
ATOM     14  H   UNL     1      -2.761  12.019  23.126  0.00  0.00    +0.000 HD
ENDBRANCH   7  13
ENDBRANCH   1  10
BRANCH   4  15
ATOM     15  C   UNL     1       3.590   5.984  17.835  0.00  0.00    +0.000 A 
ATOM     16  C   UNL     1       3.549   4.590  18.036  0.00  0.00    +0.000 A 
ATOM     17  C   UNL     1       4.337   3.734  17.264  0.00  0.00    +0.000 A 
ATOM     18  C   UNL     1       5.170   4.228  16.270  0.00  0.00    +0.000 A 
ATOM     19  C   UNL     1       5.214   5.597  16.058  0.00  0.00    +0.000 A 
ATOM     20  C   UNL     1       4.445   6.468  16.827  0.00  0.00    +0.000 A 
BRANCH  17  21
ATOM     21  O   UNL     1       4.313   2.384  17.458  0.00  0.00    +0.000 OA
ATOM     22  H   UNL     1       3.408   2.110  17.682  0.00  0.00    +0.000 HD
ENDBRANCH  17  21
BRANCH  19  23
ATOM     23  O   UNL     1       6.009   6.145  15.094  0.00  0.00    +0.000 OA
ATOM     24  H   UNL     1       5.449   6.657  14.485  0.00  0.00    +0.000 HD
ENDBRANCH  19  23
ENDBRANCH   4  15
TORSDOF 5
ENDMDL
MODEL 4
REMARK VINA RESULT:      -7.4      0.078      1.025
REMARK  Name = 
REMARK  5 active torsions:
REMARK  status: ('A' for Active; 'I' for Inactive)
REMARK    1  A    between atoms: O_1  and  C_2
REMARK    2  A    between atoms: C_5  and  C_6
REMARK    3  A    between atoms: C_9  and  C_10
REMARK    4  A    between atoms: C_12  and  O_13
REMARK    5  A    between atoms: C_15  and  O_16
REMARK                            x       y       z     vdW  Elec       q    Type
REMARK                         _______ _______ _______ _____ _____    ______ ____
ROOT
ATOM      1  C   UNL     1       1.216   8.676  20.186  0.00  0.00    +0.000 A 
ATOM      2  N   UNL     1       1.595   7.505  20.729  0.00  0.00    +0.000 NA
ATOM      3  C   UNL     1       2.358   6.702  19.956  0.00  0.00    +0.000 A 
ATOM      4  C   UNL     1       2.760   6.989  18.661  0.00  0.00    +0.000 A 
ATOM      5  C   UNL     1       2.308   8.221  18.221  0.00  0.00    +0.000 A 
ATOM      6  N   UNL     1       1.551   9.072  18.945  0.00  0.00    +0.000 NA
ENDROOT
BRANCH   1  10
ATOM      7  C   UNL     1      -1.233  11.295  22.546  0.00  0.00    +0.000 A 
ATOM      8  C   UNL     1      -0.945  11.629  21.230  0.00  0.00    +0.000 A 
ATOM      9  C   UNL     1      -0.147  10.774  20.464  0.00  0.00    +0.000 A 
ATOM     10  C   UNL     1       0.376   9.577  20.996  0.00  0.00    +0.000 A 
ATOM     11  C   UNL     1       0.062   9.276  22.337  0.00  0.00    +0.000 A 
ATOM     12  C   UNL     1      -0.736  10.128  23.107  0.00  0.00    +0.000 A 
BRANCH   7  13
ATOM     13  O   UNL     1      -2.012  12.095  23.330  0.00  0.00    +0.000 OA
ATOM     14  H   UNL     1      -1.442  12.757  23.754  0.00  0.00    +0.000 HD
ENDBRANCH   7  13
ENDBRANCH   1  10
BRANCH   4  15
ATOM     15  C   UNL     1       3.575   6.078  17.839  0.00  0.00    +0.000 A 
ATOM     16  C   UNL     1       4.429   6.568  16.832  0.00  0.00    +0.000 A 
ATOM     17  C   UNL     1       5.196   5.694  16.060  0.00  0.00    +0.000 A 
ATOM     18  C   UNL     1       5.151   4.323  16.270  0.00  0.00    +0.000 A 
ATOM     19  C   UNL     1       4.318   3.829  17.263  0.00  0.00    +0.000 A 
ATOM     20  C   UNL     1       3.536   4.686  18.035  0.00  0.00    +0.000 A 
BRANCH  17  21
ATOM     21  O   UNL     1       6.018   6.157  15.075  0.00  0.00    +0.000 OA
ATOM     22  H   UNL     1       5.721   7.041  14.801  0.00  0.00    +0.000 HD
ENDBRANCH  17  21
BRANCH  19  23
ATOM     23  O   UNL     1       4.232   2.493  17.522  0.00  0.00    +0.000 OA
ATOM     24  H   UNL     1       4.696   2.010  16.818  0.00  0.00    +0.000 HD
ENDBRANCH  19  23
ENDBRANCH   4  15
TORSDOF 5
ENDMDL
MODEL 5
REMARK VINA RESULT:      -7.4      0.072      2.324
REMARK  Name = 
REMARK  5 active torsions:
REMARK  status: ('A' for Active; 'I' for Inactive)
REMARK    1  A    between atoms: O_1  and  C_2
REMARK    2  A    between atoms: C_5  and  C_6
REMARK    3  A    between atoms: C_9  and  C_10
REMARK    4  A    between atoms: C_12  and  O_13
REMARK    5  A    between atoms: C_15  and  O_16
REMARK                            x       y       z     vdW  Elec       q    Type
REMARK                         _______ _______ _______ _____ _____    ______ ____
ROOT
ATOM      1  C   UNL     1       1.238   8.666  20.206  0.00  0.00    +0.000 A 
ATOM      2  N   UNL     1       1.610   7.496  20.755  0.00  0.00    +0.000 NA
ATOM      3  C   UNL     1       2.364   6.682  19.985  0.00  0.00    +0.000 A 
ATOM      4  C   UNL     1       2.764   6.958  18.687  0.00  0.00    +0.000 A 
ATOM      5  C   UNL     1       2.320   8.191  18.240  0.00  0.00    +0.000 A 
ATOM      6  N   UNL     1       1.572   9.052  18.962  0.00  0.00    +0.000 NA
ENDROOT
BRANCH   1  10
ATOM      7  C   UNL     1      -1.177  11.328  22.553  0.00  0.00    +0.000 A 
ATOM      8  C   UNL     1      -0.749  10.128  23.104  0.00  0.00    +0.000 A 
ATOM      9  C   UNL     1       0.037   9.263  22.337  0.00  0.00    +0.000 A 
ATOM     10  C   UNL     1       0.408   9.579  21.013  0.00  0.00    +0.000 A 
ATOM     11  C   UNL     1      -0.051  10.805  20.491  0.00  0.00    +0.000 A 
ATOM     12  C   UNL     1      -0.837  11.673  21.254  0.00  0.00    +0.000 A 
BRANCH   7  13
ATOM     13  O   UNL     1      -1.941  12.206  23.266  0.00  0.00    +0.000 OA
ATOM     14  H   UNL     1      -1.506  13.074  23.248  0.00  0.00    +0.000 HD
ENDBRANCH   7  13
ENDBRANCH   1  10
BRANCH   4  15
ATOM     15  C   UNL     1       3.569   6.036  17.868  0.00  0.00    +0.000 A 
ATOM     16  C   UNL     1       3.516   4.643  18.067  0.00  0.00    +0.000 A 
ATOM     17  C   UNL     1       4.284   3.780  17.284  0.00  0.00    +0.000 A 
ATOM     18  C   UNL     1       5.109   4.266  16.279  0.00  0.00    +0.000 A 
ATOM     19  C   UNL     1       5.165   5.635  16.070  0.00  0.00    +0.000 A 
ATOM     20  C   UNL     1       4.415   6.513  16.850  0.00  0.00    +0.000 A 
BRANCH  17  21
ATOM     21  O   UNL     1       4.248   2.430  17.475  0.00  0.00    +0.000 OA
ATOM     22  H   UNL     1       3.849   2.241  18.341  0.00  0.00    +0.000 HD
ENDBRANCH  17  21
BRANCH  19  23
ATOM     23  O   UNL     1       5.953   6.176  15.095  0.00  0.00    +0.000 OA
ATOM     24  H   UNL     1       6.406   6.955  15.460  0.00  0.00    +0.000 HD
ENDBRANCH  19  23
ENDBRANCH   4  15
TORSDOF 5
ENDMDL
MODEL 6
REMARK VINA RESULT:      -7.4      0.140      1.807
REMARK  Name = 
REMARK  5 active torsions:
REMARK  status: ('A' for Active; 'I' for Inactive)
REMARK    1  A    between atoms: O_1  and  C_2
REMARK    2  A    between atoms: C_5  and  C_6
REMARK    3  A    between atoms: C_9  and  C_10
REMARK    4  A    between atoms: C_12  and  O_13
REMARK    5  A    between atoms: C_15  and  O_16
REMARK                            x       y       z     vdW  Elec       q    Type
REMARK                         _______ _______ _______ _____ _____    ______ ____
ROOT
ATOM      1  C   UNL     1       1.146   8.731  20.211  0.00  0.00    +0.000 A 
ATOM      2  N   UNL     1       1.488   9.117  18.969  0.00  0.00    +0.000 NA
ATOM      3  C   UNL     1       2.239   8.252  18.254  0.00  0.00    +0.000 A 
ATOM      4  C   UNL     1       2.685   7.021  18.707  0.00  0.00    +0.000 A 
ATOM      5  C   UNL     1       2.265   6.740  19.997  0.00  0.00    +0.000 A 
ATOM      6  N   UNL     1       1.508   7.557  20.759  0.00  0.00    +0.000 NA
ENDROOT
BRANCH   1  10
ATOM      7  C   UNL     1      -1.226  11.408  22.585  0.00  0.00    +0.000 A 
ATOM      8  C   UNL     1      -0.897  11.757  21.282  0.00  0.00    +0.000 A 
ATOM      9  C   UNL     1      -0.125  10.883  20.512  0.00  0.00    +0.000 A 
ATOM     10  C   UNL     1       0.333   9.652  21.025  0.00  0.00    +0.000 A 
ATOM     11  C   UNL     1      -0.021   9.337  22.353  0.00  0.00    +0.000 A 
ATOM     12  C   UNL     1      -0.793  10.207  23.127  0.00  0.00    +0.000 A 
BRANCH   7  13
ATOM     13  O   UNL     1      -1.983  12.225  23.372  0.00  0.00    +0.000 OA
ATOM     14  H   UNL     1      -2.043  13.094  22.943  0.00  0.00    +0.000 HD
ENDBRANCH   7  13
ENDBRANCH   1  10
BRANCH   4  15
ATOM     15  C   UNL     1       3.523   6.111  17.907  0.00  0.00    +0.000 A 
ATOM     16  C   UNL     1       3.489   4.717  18.109  0.00  0.00    +0.000 A 
ATOM     17  C   UNL     1       4.288   3.866  17.344  0.00  0.00    +0.000 A 
ATOM     18  C   UNL     1       5.125   4.364  16.355  0.00  0.00    +0.000 A 
ATOM     19  C   UNL     1       5.161   5.733  16.142  0.00  0.00    +0.000 A 
ATOM     20  C   UNL     1       4.380   6.599  16.905  0.00  0.00    +0.000 A 
BRANCH  17  21
ATOM     21  O   UNL     1       4.272   2.516  17.539  0.00  0.00    +0.000 OA
ATOM     22  H   UNL     1       3.354   2.223  17.670  0.00  0.00    +0.000 HD
ENDBRANCH  17  21
BRANCH  19  23
ATOM     23  O   UNL     1       5.958   6.285  15.182  0.00  0.00    +0.000 OA
ATOM     24  H   UNL     1       6.734   6.681  15.613  0.00  0.00    +0.000 HD
ENDBRANCH  19  23
ENDBRANCH   4  15
TORSDOF 5
ENDMDL
MODEL 7
REMARK VINA RESULT:      -7.4      0.202      2.081
REMARK  Name = 
REMARK  5 active torsions:
REMARK  status: ('A' for Active; 'I' for Inactive)
REMARK    1  A    between atoms: O_1  and  C_2
REMARK    2  A    between atoms: C_5  and  C_6
REMARK    3  A    between atoms: C_9  and  C_10
REMARK    4  A    between atoms: C_12  and  O_13
REMARK    5  A    between atoms: C_15  and  O_16
REMARK                            x       y       z     vdW  Elec       q    Type
REMARK                         _______ _______ _______ _____ _____    ______ ____
ROOT
ATOM      1  C   UNL     1       1.133   8.774  20.244  0.00  0.00    +0.000 A 
ATOM      2  N   UNL     1       1.511   7.607  20.796  0.00  0.00    +0.000 NA
ATOM      3  C   UNL     1       2.278   6.800  20.032  0.00  0.00    +0.000 A 
ATOM      4  C   UNL     1       2.687   7.080  18.738  0.00  0.00    +0.000 A 
ATOM      5  C   UNL     1       2.236   8.309  18.287  0.00  0.00    +0.000 A 
ATOM      6  N   UNL     1       1.474   9.163  19.002  0.00  0.00    +0.000 NA
ENDROOT
BRANCH   1  10
ATOM      7  C   UNL     1      -1.331  11.405  22.575  0.00  0.00    +0.000 A 
ATOM      8  C   UNL     1      -1.038  11.730  21.258  0.00  0.00    +0.000 A 
ATOM      9  C   UNL     1      -0.235  10.871  20.501  0.00  0.00    +0.000 A 
ATOM     10  C   UNL     1       0.288   9.679  21.044  0.00  0.00    +0.000 A 
ATOM     11  C   UNL     1      -0.030   9.388  22.386  0.00  0.00    +0.000 A 
ATOM     12  C   UNL     1      -0.832  10.244  23.146  0.00  0.00    +0.000 A 
BRANCH   7  13
ATOM     13  O   UNL     1      -2.115  12.209  23.350  0.00  0.00    +0.000 OA
ATOM     14  H   UNL     1      -2.063  13.114  23.003  0.00  0.00    +0.000 HD
ENDBRANCH   7  13
ENDBRANCH   1  10
BRANCH   4  15
ATOM     15  C   UNL     1       3.507   6.165  17.925  0.00  0.00    +0.000 A 
ATOM     16  C   UNL     1       3.461   4.771  18.121  0.00  0.00    +0.000 A 
ATOM     17  C   UNL     1       4.243   3.915  17.344  0.00  0.00    +0.000 A 
ATOM     18  C   UNL     1       5.076   4.409  16.350  0.00  0.00    +0.000 A 
ATOM     19  C   UNL     1       5.125   5.779  16.143  0.00  0.00    +0.000 A 
ATOM     20  C   UNL     1       4.361   6.649  16.917  0.00  0.00    +0.000 A 
BRANCH  17  21
ATOM     21  O   UNL     1       4.215   2.564  17.533  0.00  0.00    +0.000 OA
ATOM     22  H   UNL     1       3.291   2.273  17.619  0.00  0.00    +0.000 HD
ENDBRANCH  17  21
BRANCH  19  23
ATOM     23  O   UNL     1       5.918   6.327  15.178  0.00  0.00    +0.000 OA
ATOM     24  H   UNL     1       6.817   6.426  15.535  0.00  0.00    +0.000 HD
ENDBRANCH  19  23
ENDBRANCH   4  15
TORSDOF 5
ENDMDL
MODEL 8
REMARK VINA RESULT:      -7.4      0.137      1.472
REMARK  Name = 
REMARK  5 active torsions:
REMARK  status: ('A' for Active; 'I' for Inactive)
REMARK    1  A    between atoms: O_1  and  C_2
REMARK    2  A    between atoms: C_5  and  C_6
REMARK    3  A    between atoms: C_9  and  C_10
REMARK    4  A    between atoms: C_12  and  O_13
REMARK    5  A    between atoms: C_15  and  O_16
REMARK                            x       y       z     vdW  Elec       q    Type
REMARK                         _______ _______ _______ _____ _____    ______ ____
ROOT
ATOM      1  C   UNL     1       1.247   8.587  20.217  0.00  0.00    +0.000 A 
ATOM      2  N   UNL     1       1.615   7.421  20.778  0.00  0.00    +0.000 NA
ATOM      3  C   UNL     1       2.363   6.595  20.015  0.00  0.00    +0.000 A 
ATOM      4  C   UNL     1       2.761   6.854  18.713  0.00  0.00    +0.000 A 
ATOM      5  C   UNL     1       2.321   8.084  18.253  0.00  0.00    +0.000 A 
ATOM      6  N   UNL     1       1.579   8.957  18.967  0.00  0.00    +0.000 NA
ENDROOT
BRANCH   1  10
ATOM      7  C   UNL     1      -1.149  11.286  22.541  0.00  0.00    +0.000 A 
ATOM      8  C   UNL     1      -0.791  10.056  23.075  0.00  0.00    +0.000 A 
ATOM      9  C   UNL     1      -0.011   9.179  22.315  0.00  0.00    +0.000 A 
ATOM     10  C   UNL     1       0.423   9.512  21.015  0.00  0.00    +0.000 A 
ATOM     11  C   UNL     1       0.036  10.769  20.510  0.00  0.00    +0.000 A 
ATOM     12  C   UNL     1      -0.744  11.650  21.265  0.00  0.00    +0.000 A 
BRANCH   7  13
ATOM     13  O   UNL     1      -1.904  12.177  23.246  0.00  0.00    +0.000 OA
ATOM     14  H   UNL     1      -2.717  11.731  23.531  0.00  0.00    +0.000 HD
ENDBRANCH   7  13
ENDBRANCH   1  10
BRANCH   4  15
ATOM     15  C   UNL     1       3.560   5.919  17.902  0.00  0.00    +0.000 A 
ATOM     16  C   UNL     1       4.457   6.383  16.921  0.00  0.00    +0.000 A 
ATOM     17  C   UNL     1       5.209   5.487  16.160  0.00  0.00    +0.000 A 
ATOM     18  C   UNL     1       5.104   4.117  16.355  0.00  0.00    +0.000 A 
ATOM     19  C   UNL     1       4.228   3.648  17.323  0.00  0.00    +0.000 A 
ATOM     20  C   UNL     1       3.461   4.528  18.084  0.00  0.00    +0.000 A 
BRANCH  17  21
ATOM     21  O   UNL     1       6.072   5.925  15.200  0.00  0.00    +0.000 OA
ATOM     22  H   UNL     1       5.631   6.602  14.659  0.00  0.00    +0.000 HD
ENDBRANCH  17  21
BRANCH  19  23
ATOM     23  O   UNL     1       4.084   2.313  17.567  0.00  0.00    +0.000 OA
ATOM     24  H   UNL     1       4.363   2.134  18.481  0.00  0.00    +0.000 HD
ENDBRANCH  19  23
ENDBRANCH   4  15
TORSDOF 5
ENDMDL
MODEL 9
REMARK VINA RESULT:      -7.3      1.551      8.392
REMARK  Name = 
REMARK  5 active torsions:
REMARK  status: ('A' for Active; 'I' for Inactive)
REMARK    1  A    between atoms: O_1  and  C_2
REMARK    2  A    between atoms: C_5  and  C_6
REMARK    3  A    between atoms: C_9  and  C_10
REMARK    4  A    between atoms: C_12  and  O_13
REMARK    5  A    between atoms: C_15  and  O_16
REMARK                            x       y       z     vdW  Elec       q    Type
REMARK                         _______ _______ _______ _____ _____    ______ ____
ROOT
ATOM      1  C   UNL     1       3.286   6.708  18.065  0.00  0.00    +0.000 A 
ATOM      2  N   UNL     1       2.910   7.916  17.607  0.00  0.00    +0.000 NA
ATOM      3  C   UNL     1       2.156   8.667  18.439  0.00  0.00    +0.000 A 
ATOM      4  C   UNL     1       1.741   8.284  19.704  0.00  0.00    +0.000 A 
ATOM      5  C   UNL     1       2.196   7.025  20.059  0.00  0.00    +0.000 A 
ATOM      6  N   UNL     1       2.957   6.229  19.278  0.00  0.00    +0.000 NA
ENDROOT
BRANCH   1  10
ATOM      7  C   UNL     1       5.664   4.227  15.493  0.00  0.00    +0.000 A 
ATOM      8  C   UNL     1       4.855   3.638  16.455  0.00  0.00    +0.000 A 
ATOM      9  C   UNL     1       4.082   4.449  17.291  0.00  0.00    +0.000 A 
ATOM     10  C   UNL     1       4.103   5.855  17.184  0.00  0.00    +0.000 A 
ATOM     11  C   UNL     1       4.940   6.412  16.196  0.00  0.00    +0.000 A 
ATOM     12  C   UNL     1       5.715   5.606  15.357  0.00  0.00    +0.000 A 
BRANCH   7  13
ATOM     13  O   UNL     1       6.431   3.476  14.651  0.00  0.00    +0.000 OA
ATOM     14  H   UNL     1       6.257   2.539  14.832  0.00  0.00    +0.000 HD
ENDBRANCH   7  13
ENDBRANCH   1  10
BRANCH   4  15
ATOM     15  C   UNL     1       0.901   9.122  20.577  0.00  0.00    +0.000 A 
ATOM     16  C   UNL     1       0.842   8.902  21.967  0.00  0.00    +0.000 A 
ATOM     17  C   UNL     1       0.041   9.704  22.782  0.00  0.00    +0.000 A 
ATOM     18  C   UNL     1      -0.706  10.746  22.252  0.00  0.00    +0.000 A 
ATOM     19  C   UNL     1      -0.651  10.976  20.886  0.00  0.00    +0.000 A 
ATOM     20  C   UNL     1       0.133  10.178  20.054  0.00  0.00    +0.000 A 
BRANCH  17  21
ATOM     21  O   UNL     1      -0.032   9.493  24.128  0.00  0.00    +0.000 OA
ATOM     22  H   UNL     1      -0.162  10.345  24.577  0.00  0.00    +0.000 HD
ENDBRANCH  17  21
BRANCH  19  23
ATOM     23  O   UNL     1      -1.358  11.987  20.303  0.00  0.00    +0.000 OA
ATOM     24  H   UNL     1      -1.539  12.665  20.975  0.00  0.00    +0.000 HD
ENDBRANCH  19  23
ENDBRANCH   4  15
TORSDOF 5
ENDMDL
