MODEL 1
REMARK VINA RESULT:      -8.1      0.000      0.000
REMARK  Name = 
REMARK  13 active torsions:
REMARK  status: ('A' for Active; 'I' for Inactive)
REMARK    1  A    between atoms: C_1  and  C_2
REMARK    2  A    between atoms: C_2  and  C_3
REMARK    3  A    between atoms: C_2  and  N_4
REMARK    4  A    between atoms: N_4  and  C_5
REMARK    5  A    between atoms: C_5  and  C_6
REMARK    6  A    between atoms: C_8  and  C_9
REMARK    7  A    between atoms: C_17  and  C_19
REMARK    8  A    between atoms: C_19  and  O_20
REMARK    9  A    between atoms: O_20  and  C_21
REMARK   10  A    between atoms: C_24  and  C_25
REMARK   11  A    between atoms: C_25  and  C_26
REMARK   12  A    between atoms: C_25  and  C_27
REMARK   13  A    between atoms: C_25  and  C_28
REMARK                            x       y       z     vdW  Elec       q    Type
REMARK                         _______ _______ _______ _____ _____    ______ ____
ROOT
ATOM      1  N   UNL     1       6.126   5.154  17.577  0.00  0.00    +0.000 N 
ATOM      2  C   UNL     1       5.197   5.166  18.614  0.00  0.00    +0.000 C 
ATOM      3  O   UNL     1       5.542   5.459  19.764  0.00  0.00    +0.000 OA
ENDROOT
BRANCH   1   5
ATOM      4  C   UNL     1       5.168   6.084  15.420  0.00  0.00    +0.000 C 
ATOM      5  C   UNL     1       5.852   4.919  16.135  0.00  0.00    +0.000 C 
ATOM      6  C   UNL     1       7.080   4.399  15.379  0.00  0.00    +0.000 C 
ENDBRANCH   1   5
BRANCH   1   7
ATOM      7  C   UNL     1       7.510   5.528  17.920  0.00  0.00    +0.000 C 
BRANCH   7   8
ATOM      8  C   UNL     1       7.731   7.005  17.942  0.00  0.00    +0.000 A 
ATOM      9  N   UNL     1       8.527   7.752  18.678  0.00  0.00    +0.000 NA
ATOM     10  C   UNL     1       8.304   9.020  18.179  0.00  0.00    +0.000 A 
ATOM     11  N   UNL     1       7.455   9.050  17.138  0.00  0.00    +0.000 NA
ATOM     12  O   UNL     1       7.072   7.721  16.983  0.00  0.00    +0.000 OA
BRANCH  10  13
ATOM     13  C   UNL     1       8.927  10.203  18.750  0.00  0.00    +0.000 A 
ATOM     14  C   UNL     1       9.398  10.242  20.067  0.00  0.00    +0.000 A 
ATOM     15  C   UNL     1      10.036  11.389  20.543  0.00  0.00    +0.000 A 
ATOM     16  C   UNL     1      10.174  12.469  19.689  0.00  0.00    +0.000 A 
ATOM     17  N   UNL     1       9.717  12.479  18.418  0.00  0.00    +0.000 NA
ATOM     18  C   UNL     1       9.108  11.348  17.980  0.00  0.00    +0.000 A 
ENDBRANCH  10  13
ENDBRANCH   7   8
ENDBRANCH   1   7
BRANCH   2  19
ATOM     19  C   UNL     1       3.722   4.835  18.360  0.00  0.00    +0.000 C 
BRANCH  19  20
ATOM     20  O   UNL     1       2.951   5.159  19.506  0.00  0.00    +0.000 OA
BRANCH  20  21
ATOM     21  C   UNL     1       2.445   6.428  19.532  0.00  0.00    +0.000 A 
ATOM     22  C   UNL     1       2.516   7.116  18.324  0.00  0.00    +0.000 A 
ATOM     23  C   UNL     1       1.998   8.409  18.206  0.00  0.00    +0.000 A 
ATOM     24  C   UNL     1       1.366   9.042  19.287  0.00  0.00    +0.000 A 
ATOM     25  C   UNL     1       1.337   8.344  20.510  0.00  0.00    +0.000 A 
ATOM     26  C   UNL     1       1.863   7.051  20.633  0.00  0.00    +0.000 A 
BRANCH  24  27
ATOM     27  C   UNL     1       0.666  10.406  19.152  0.00  0.00    +0.000 C 
ATOM     28  C   UNL     1       1.570  11.506  18.552  0.00  0.00    +0.000 C 
ATOM     29  C   UNL     1      -0.549  10.254  18.209  0.00  0.00    +0.000 C 
ATOM     30  C   UNL     1       0.179  10.912  20.524  0.00  0.00    +0.000 C 
ENDBRANCH  24  27
ENDBRANCH  20  21
ENDBRANCH  19  20
ENDBRANCH   2  19
TORSDOF 8
ENDMDL
MODEL 2
REMARK VINA RESULT:      -8.0      4.189      5.412
REMARK  Name = 
REMARK  13 active torsions:
REMARK  status: ('A' for Active; 'I' for Inactive)
REMARK    1  A    between atoms: C_1  and  C_2
REMARK    2  A    between atoms: C_2  and  C_3
REMARK    3  A    between atoms: C_2  and  N_4
REMARK    4  A    between atoms: N_4  and  C_5
REMARK    5  A    between atoms: C_5  and  C_6
REMARK    6  A    between atoms: C_8  and  C_9
REMARK    7  A    between atoms: C_17  and  C_19
REMARK    8  A    between atoms: C_19  and  O_20
REMARK    9  A    between atoms: O_20  and  C_21
REMARK   10  A    between atoms: C_24  and  C_25
REMARK   11  A    between atoms: C_25  and  C_26
REMARK   12  A    between atoms: C_25  and  C_27
REMARK   13  A    between atoms: C_25  and  C_28
REMARK                            x       y       z     vdW  Elec       q    Type
REMARK                         _______ _______ _______ _____ _____    ______ ____
ROOT
ATOM      1  N   UNL     1       3.232   4.096  19.041  0.00  0.00    +0.000 N 
ATOM      2  C   UNL     1       3.314   5.459  19.310  0.00  0.00    +0.000 C 
ATOM      3  O   UNL     1       4.405   5.988  19.552  0.00  0.00    +0.000 OA
ENDROOT
BRANCH   1   5
ATOM      4  C   UNL     1       2.298   2.085  17.811  0.00  0.00    +0.000 C 
ATOM      5  C   UNL     1       2.018   3.336  18.641  0.00  0.00    +0.000 C 
ATOM      6  C   UNL     1       1.076   3.067  19.820  0.00  0.00    +0.000 C 
ENDBRANCH   1   5
BRANCH   1   7
ATOM      7  C   UNL     1       4.498   3.341  19.037  0.00  0.00    +0.000 C 
BRANCH   7   8
ATOM      8  C   UNL     1       5.404   3.718  17.912  0.00  0.00    +0.000 A 
ATOM      9  N   UNL     1       5.217   3.713  16.608  0.00  0.00    +0.000 NA
ATOM     10  C   UNL     1       6.407   4.220  16.126  0.00  0.00    +0.000 A 
ATOM     11  N   UNL     1       7.270   4.582  17.089  0.00  0.00    +0.000 NA
ATOM     12  O   UNL     1       6.612   4.247  18.269  0.00  0.00    +0.000 OA
BRANCH  10  13
ATOM     13  C   UNL     1       6.688   4.330  14.704  0.00  0.00    +0.000 A 
ATOM     14  C   UNL     1       6.051   3.530  13.749  0.00  0.00    +0.000 A 
ATOM     15  C   UNL     1       6.322   3.717  12.392  0.00  0.00    +0.000 A 
ATOM     16  C   UNL     1       7.234   4.694  12.032  0.00  0.00    +0.000 A 
ATOM     17  N   UNL     1       7.884   5.474  12.923  0.00  0.00    +0.000 NA
ATOM     18  C   UNL     1       7.594   5.275  14.234  0.00  0.00    +0.000 A 
ENDBRANCH  10  13
ENDBRANCH   7   8
ENDBRANCH   1   7
BRANCH   2  19
ATOM     19  C   UNL     1       2.064   6.346  19.297  0.00  0.00    +0.000 C 
BRANCH  19  20
ATOM     20  O   UNL     1       2.252   7.457  20.160  0.00  0.00    +0.000 OA
BRANCH  20  21
ATOM     21  C   UNL     1       1.455   8.539  19.904  0.00  0.00    +0.000 A 
ATOM     22  C   UNL     1       1.429   8.951  18.574  0.00  0.00    +0.000 A 
ATOM     23  C   UNL     1       0.622  10.020  18.173  0.00  0.00    +0.000 A 
ATOM     24  C   UNL     1      -0.203  10.691  19.087  0.00  0.00    +0.000 A 
ATOM     25  C   UNL     1      -0.135  10.284  20.433  0.00  0.00    +0.000 A 
ATOM     26  C   UNL     1       0.679   9.218  20.839  0.00  0.00    +0.000 A 
BRANCH  24  27
ATOM     27  C   UNL     1      -1.202  11.780  18.653  0.00  0.00    +0.000 C 
ATOM     28  C   UNL     1      -0.526  13.107  18.240  0.00  0.00    +0.000 C 
ATOM     29  C   UNL     1      -1.994  11.273  17.426  0.00  0.00    +0.000 C 
ATOM     30  C   UNL     1      -2.190  12.104  19.790  0.00  0.00    +0.000 C 
ENDBRANCH  24  27
ENDBRANCH  20  21
ENDBRANCH  19  20
ENDBRANCH   2  19
TORSDOF 8
ENDMDL
MODEL 3
REMARK VINA RESULT:      -8.0      4.225      5.740
REMARK  Name = 
REMARK  13 active torsions:
REMARK  status: ('A' for Active; 'I' for Inactive)
REMARK    1  A    between atoms: C_1  and  C_2
REMARK    2  A    between atoms: C_2  and  C_3
REMARK    3  A    between atoms: C_2  and  N_4
REMARK    4  A    between atoms: N_4  and  C_5
REMARK    5  A    between atoms: C_5  and  C_6
REMARK    6  A    between atoms: C_8  and  C_9
REMARK    7  A    between atoms: C_17  and  C_19
REMARK    8  A    between atoms: C_19  and  O_20
REMARK    9  A    between atoms: O_20  and  C_21
REMARK   10  A    between atoms: C_24  and  C_25
REMARK   11  A    between atoms: C_25  and  C_26
REMARK   12  A    between atoms: C_25  and  C_27
REMARK   13  A    between atoms: C_25  and  C_28
REMARK                            x       y       z     vdW  Elec       q    Type
REMARK                         _______ _______ _______ _____ _____    ______ ____
ROOT
ATOM      1  N   UNL     1       2.619   4.015  19.407  0.00  0.00    +0.000 N 
ATOM      2  C   UNL     1       2.247   5.329  19.136  0.00  0.00    +0.000 C 
ATOM      3  O   UNL     1       2.169   5.734  17.971  0.00  0.00    +0.000 OA
ENDROOT
BRANCH   1   5
ATOM      4  C   UNL     1       1.319   2.833  21.236  0.00  0.00    +0.000 C 
ATOM      5  C   UNL     1       2.665   3.356  20.738  0.00  0.00    +0.000 C 
ATOM      6  C   UNL     1       3.781   2.309  20.838  0.00  0.00    +0.000 C 
ENDBRANCH   1   5
BRANCH   1   7
ATOM      7  C   UNL     1       2.883   3.147  18.245  0.00  0.00    +0.000 C 
BRANCH   7   8
ATOM      8  C   UNL     1       4.094   3.553  17.472  0.00  0.00    +0.000 A 
ATOM      9  N   UNL     1       4.296   3.675  16.176  0.00  0.00    +0.000 NA
ATOM     10  C   UNL     1       5.597   4.133  16.111  0.00  0.00    +0.000 A 
ATOM     11  N   UNL     1       6.156   4.345  17.314  0.00  0.00    +0.000 NA
ATOM     12  O   UNL     1       5.167   3.959  18.214  0.00  0.00    +0.000 OA
BRANCH  10  13
ATOM     13  C   UNL     1       6.286   4.345  14.849  0.00  0.00    +0.000 A 
ATOM     14  C   UNL     1       5.918   3.684  13.672  0.00  0.00    +0.000 A 
ATOM     15  C   UNL     1       6.582   3.968  12.477  0.00  0.00    +0.000 A 
ATOM     16  C   UNL     1       7.606   4.900  12.499  0.00  0.00    +0.000 A 
ATOM     17  N   UNL     1       8.005   5.546  13.616  0.00  0.00    +0.000 NA
ATOM     18  C   UNL     1       7.335   5.255  14.761  0.00  0.00    +0.000 A 
ENDBRANCH  10  13
ENDBRANCH   7   8
ENDBRANCH   1   7
BRANCH   2  19
ATOM     19  C   UNL     1       1.908   6.305  20.269  0.00  0.00    +0.000 C 
BRANCH  19  20
ATOM     20  O   UNL     1       2.432   7.590  19.971  0.00  0.00    +0.000 OA
BRANCH  20  21
ATOM     21  C   UNL     1       1.501   8.546  19.671  0.00  0.00    +0.000 A 
ATOM     22  C   UNL     1       0.658   8.899  20.721  0.00  0.00    +0.000 A 
ATOM     23  C   UNL     1      -0.311   9.893  20.558  0.00  0.00    +0.000 A 
ATOM     24  C   UNL     1      -0.447  10.584  19.344  0.00  0.00    +0.000 A 
ATOM     25  C   UNL     1       0.390  10.187  18.283  0.00  0.00    +0.000 A 
ATOM     26  C   UNL     1       1.357   9.185  18.443  0.00  0.00    +0.000 A 
BRANCH  24  27
ATOM     27  C   UNL     1      -1.409  11.774  19.175  0.00  0.00    +0.000 C 
ATOM     28  C   UNL     1      -1.828  12.423  20.513  0.00  0.00    +0.000 C 
ATOM     29  C   UNL     1      -0.708  12.869  18.339  0.00  0.00    +0.000 C 
ATOM     30  C   UNL     1      -2.699  11.338  18.453  0.00  0.00    +0.000 C 
ENDBRANCH  24  27
ENDBRANCH  20  21
ENDBRANCH  19  20
ENDBRANCH   2  19
TORSDOF 8
ENDMDL
MODEL 4
REMARK VINA RESULT:      -7.9      0.481      1.428
REMARK  Name = 
REMARK  13 active torsions:
REMARK  status: ('A' for Active; 'I' for Inactive)
REMARK    1  A    between atoms: C_1  and  C_2
REMARK    2  A    between atoms: C_2  and  C_3
REMARK    3  A    between atoms: C_2  and  N_4
REMARK    4  A    between atoms: N_4  and  C_5
REMARK    5  A    between atoms: C_5  and  C_6
REMARK    6  A    between atoms: C_8  and  C_9
REMARK    7  A    between atoms: C_17  and  C_19
REMARK    8  A    between atoms: C_19  and  O_20
REMARK    9  A    between atoms: O_20  and  C_21
REMARK   10  A    between atoms: C_24  and  C_25
REMARK   11  A    between atoms: C_25  and  C_26
REMARK   12  A    between atoms: C_25  and  C_27
REMARK   13  A    between atoms: C_25  and  C_28
REMARK                            x       y       z     vdW  Elec       q    Type
REMARK                         _______ _______ _______ _____ _____    ______ ____
ROOT
ATOM      1  N   UNL     1       6.271   5.459  17.590  0.00  0.00    +0.000 N 
ATOM      2  C   UNL     1       5.270   5.354  18.551  0.00  0.00    +0.000 C 
ATOM      3  O   UNL     1       5.526   5.519  19.749  0.00  0.00    +0.000 OA
ENDROOT
BRANCH   1   5
ATOM      4  C   UNL     1       5.983   3.965  15.562  0.00  0.00    +0.000 C 
ATOM      5  C   UNL     1       6.105   5.383  16.115  0.00  0.00    +0.000 C 
ATOM      6  C   UNL     1       5.006   6.318  15.597  0.00  0.00    +0.000 C 
ENDBRANCH   1   5
BRANCH   1   7
ATOM      7  C   UNL     1       7.622   5.797  18.073  0.00  0.00    +0.000 C 
BRANCH   7   8
ATOM      8  C   UNL     1       7.886   7.267  18.099  0.00  0.00    +0.000 A 
ATOM      9  N   UNL     1       8.725   7.986  18.815  0.00  0.00    +0.000 NA
ATOM     10  C   UNL     1       8.524   9.263  18.331  0.00  0.00    +0.000 A 
ATOM     11  N   UNL     1       7.645   9.325  17.318  0.00  0.00    +0.000 NA
ATOM     12  O   UNL     1       7.219   8.009  17.165  0.00  0.00    +0.000 OA
BRANCH  10  13
ATOM     13  C   UNL     1       9.198  10.424  18.891  0.00  0.00    +0.000 A 
ATOM     14  C   UNL     1       9.365  10.603  20.268  0.00  0.00    +0.000 A 
ATOM     15  C   UNL     1      10.068  11.710  20.745  0.00  0.00    +0.000 A 
ATOM     16  C   UNL     1      10.574  12.615  19.827  0.00  0.00    +0.000 A 
ATOM     17  N   UNL     1      10.418  12.489  18.491  0.00  0.00    +0.000 NA
ATOM     18  C   UNL     1       9.737  11.398  18.057  0.00  0.00    +0.000 A 
ENDBRANCH  10  13
ENDBRANCH   7   8
ENDBRANCH   1   7
BRANCH   2  19
ATOM     19  C   UNL     1       3.820   5.048  18.154  0.00  0.00    +0.000 C 
BRANCH  19  20
ATOM     20  O   UNL     1       2.944   5.413  19.209  0.00  0.00    +0.000 OA
BRANCH  20  21
ATOM     21  C   UNL     1       2.408   6.667  19.118  0.00  0.00    +0.000 A 
ATOM     22  C   UNL     1       1.894   7.176  20.308  0.00  0.00    +0.000 A 
ATOM     23  C   UNL     1       1.353   8.464  20.359  0.00  0.00    +0.000 A 
ATOM     24  C   UNL     1       1.336   9.293  19.227  0.00  0.00    +0.000 A 
ATOM     25  C   UNL     1       1.827   8.746  18.025  0.00  0.00    +0.000 A 
ATOM     26  C   UNL     1       2.362   7.452  17.970  0.00  0.00    +0.000 A 
BRANCH  24  27
ATOM     27  C   UNL     1       0.874  10.760  19.284  0.00  0.00    +0.000 C 
ATOM     28  C   UNL     1      -0.506  10.997  18.631  0.00  0.00    +0.000 C 
ATOM     29  C   UNL     1       0.757  11.192  20.763  0.00  0.00    +0.000 C 
ATOM     30  C   UNL     1       1.883  11.681  18.569  0.00  0.00    +0.000 C 
ENDBRANCH  24  27
ENDBRANCH  20  21
ENDBRANCH  19  20
ENDBRANCH   2  19
TORSDOF 8
ENDMDL
MODEL 5
REMARK VINA RESULT:      -7.9      4.038      5.474
REMARK  Name = 
REMARK  13 active torsions:
REMARK  status: ('A' for Active; 'I' for Inactive)
REMARK    1  A    between atoms: C_1  and  C_2
REMARK    2  A    between atoms: C_2  and  C_3
REMARK    3  A    between atoms: C_2  and  N_4
REMARK    4  A    between atoms: N_4  and  C_5
REMARK    5  A    between atoms: C_5  and  C_6
REMARK    6  A    between atoms: C_8  and  C_9
REMARK    7  A    between atoms: C_17  and  C_19
REMARK    8  A    between atoms: C_19  and  O_20
REMARK    9  A    between atoms: O_20  and  C_21
REMARK   10  A    between atoms: C_24  and  C_25
REMARK   11  A    between atoms: C_25  and  C_26
REMARK   12  A    between atoms: C_25  and  C_27
REMARK   13  A    between atoms: C_25  and  C_28
REMARK                            x       y       z     vdW  Elec       q    Type
REMARK                         _______ _______ _______ _____ _____    ______ ____
ROOT
ATOM      1  N   UNL     1       2.868   4.168  19.703  0.00  0.00    +0.000 N 
ATOM      2  C   UNL     1       3.031   5.550  19.674  0.00  0.00    +0.000 C 
ATOM      3  O   UNL     1       4.161   6.051  19.691  0.00  0.00    +0.000 OA
ENDROOT
BRANCH   1   5
ATOM      4  C   UNL     1       1.545   2.405  18.449  0.00  0.00    +0.000 C 
ATOM      5  C   UNL     1       1.590   3.417  19.592  0.00  0.00    +0.000 C 
ATOM      6  C   UNL     1       1.140   2.819  20.931  0.00  0.00    +0.000 C 
ENDBRANCH   1   5
BRANCH   1   7
ATOM      7  C   UNL     1       4.097   3.354  19.731  0.00  0.00    +0.000 C 
BRANCH   7   8
ATOM      8  C   UNL     1       5.063   3.713  18.651  0.00  0.00    +0.000 A 
ATOM      9  N   UNL     1       4.926   3.752  17.341  0.00  0.00    +0.000 NA
ATOM     10  C   UNL     1       6.158   4.208  16.918  0.00  0.00    +0.000 A 
ATOM     11  N   UNL     1       7.002   4.497  17.922  0.00  0.00    +0.000 NA
ATOM     12  O   UNL     1       6.282   4.167  19.067  0.00  0.00    +0.000 OA
BRANCH  10  13
ATOM     13  C   UNL     1       6.499   4.340  15.511  0.00  0.00    +0.000 A 
ATOM     14  C   UNL     1       5.843   3.617  14.508  0.00  0.00    +0.000 A 
ATOM     15  C   UNL     1       6.176   3.826  13.169  0.00  0.00    +0.000 A 
ATOM     16  C   UNL     1       7.168   4.746  12.873  0.00  0.00    +0.000 A 
ATOM     17  N   UNL     1       7.838   5.450  13.811  0.00  0.00    +0.000 NA
ATOM     18  C   UNL     1       7.486   5.231  15.104  0.00  0.00    +0.000 A 
ENDBRANCH  10  13
ENDBRANCH   7   8
ENDBRANCH   1   7
BRANCH   2  19
ATOM     19  C   UNL     1       1.821   6.489  19.601  0.00  0.00    +0.000 C 
BRANCH  19  20
ATOM     20  O   UNL     1       2.055   7.640  20.399  0.00  0.00    +0.000 OA
BRANCH  20  21
ATOM     21  C   UNL     1       1.262   8.718  20.119  0.00  0.00    +0.000 A 
ATOM     22  C   UNL     1       1.420   9.250  18.842  0.00  0.00    +0.000 A 
ATOM     23  C   UNL     1       0.640  10.329  18.416  0.00  0.00    +0.000 A 
ATOM     24  C   UNL     1      -0.342  10.890  19.247  0.00  0.00    +0.000 A 
ATOM     25  C   UNL     1      -0.460  10.362  20.547  0.00  0.00    +0.000 A 
ATOM     26  C   UNL     1       0.326   9.285  20.979  0.00  0.00    +0.000 A 
BRANCH  24  27
ATOM     27  C   UNL     1      -1.308  11.986  18.761  0.00  0.00    +0.000 C 
ATOM     28  C   UNL     1      -2.188  11.547  17.569  0.00  0.00    +0.000 C 
ATOM     29  C   UNL     1      -2.263  12.361  19.916  0.00  0.00    +0.000 C 
ATOM     30  C   UNL     1      -0.534  13.244  18.318  0.00  0.00    +0.000 C 
ENDBRANCH  24  27
ENDBRANCH  20  21
ENDBRANCH  19  20
ENDBRANCH   2  19
TORSDOF 8
ENDMDL
MODEL 6
REMARK VINA RESULT:      -7.9      4.169      5.641
REMARK  Name = 
REMARK  13 active torsions:
REMARK  status: ('A' for Active; 'I' for Inactive)
REMARK    1  A    between atoms: C_1  and  C_2
REMARK    2  A    between atoms: C_2  and  C_3
REMARK    3  A    between atoms: C_2  and  N_4
REMARK    4  A    between atoms: N_4  and  C_5
REMARK    5  A    between atoms: C_5  and  C_6
REMARK    6  A    between atoms: C_8  and  C_9
REMARK    7  A    between atoms: C_17  and  C_19
REMARK    8  A    between atoms: C_19  and  O_20
REMARK    9  A    between atoms: O_20  and  C_21
REMARK   10  A    between atoms: C_24  and  C_25
REMARK   11  A    between atoms: C_25  and  C_26
REMARK   12  A    between atoms: C_25  and  C_27
REMARK   13  A    between atoms: C_25  and  C_28
REMARK                            x       y       z     vdW  Elec       q    Type
REMARK                         _______ _______ _______ _____ _____    ______ ____
ROOT
ATOM      1  N   UNL     1       3.172   4.464  19.125  0.00  0.00    +0.000 N 
ATOM      2  C   UNL     1       3.408   5.823  19.306  0.00  0.00    +0.000 C 
ATOM      3  O   UNL     1       4.558   6.246  19.473  0.00  0.00    +0.000 OA
ENDROOT
BRANCH   1   5
ATOM      4  C   UNL     1       1.974   2.545  17.979  0.00  0.00    +0.000 C 
ATOM      5  C   UNL     1       1.870   3.816  18.820  0.00  0.00    +0.000 C 
ATOM      6  C   UNL     1       0.997   3.631  20.067  0.00  0.00    +0.000 C 
ENDBRANCH   1   5
BRANCH   1   7
ATOM      7  C   UNL     1       4.352   3.580  19.119  0.00  0.00    +0.000 C 
BRANCH   7   8
ATOM      8  C   UNL     1       5.293   3.865  17.995  0.00  0.00    +0.000 A 
ATOM      9  N   UNL     1       5.109   3.879  16.691  0.00  0.00    +0.000 NA
ATOM     10  C   UNL     1       6.345   4.265  16.212  0.00  0.00    +0.000 A 
ATOM     11  N   UNL     1       7.239   4.536  17.177  0.00  0.00    +0.000 NA
ATOM     12  O   UNL     1       6.548   4.269  18.355  0.00  0.00    +0.000 OA
BRANCH  10  13
ATOM     13  C   UNL     1       6.639   4.346  14.790  0.00  0.00    +0.000 A 
ATOM     14  C   UNL     1       6.007   3.531  13.845  0.00  0.00    +0.000 A 
ATOM     15  C   UNL     1       6.291   3.691  12.487  0.00  0.00    +0.000 A 
ATOM     16  C   UNL     1       7.209   4.658  12.117  0.00  0.00    +0.000 A 
ATOM     17  N   UNL     1       7.855   5.453  12.998  0.00  0.00    +0.000 NA
ATOM     18  C   UNL     1       7.553   5.279  14.310  0.00  0.00    +0.000 A 
ENDBRANCH  10  13
ENDBRANCH   7   8
ENDBRANCH   1   7
BRANCH   2  19
ATOM     19  C   UNL     1       2.257   6.836  19.288  0.00  0.00    +0.000 C 
BRANCH  19  20
ATOM     20  O   UNL     1       1.929   7.218  20.615  0.00  0.00    +0.000 OA
BRANCH  20  21
ATOM     21  C   UNL     1       1.196   8.366  20.730  0.00  0.00    +0.000 A 
ATOM     22  C   UNL     1       0.497   8.502  21.927  0.00  0.00    +0.000 A 
ATOM     23  C   UNL     1      -0.259   9.649  22.186  0.00  0.00    +0.000 A 
ATOM     24  C   UNL     1      -0.315  10.707  21.267  0.00  0.00    +0.000 A 
ATOM     25  C   UNL     1       0.368  10.535  20.048  0.00  0.00    +0.000 A 
ATOM     26  C   UNL     1       1.120   9.382  19.782  0.00  0.00    +0.000 A 
BRANCH  24  27
ATOM     27  C   UNL     1      -1.025  12.037  21.580  0.00  0.00    +0.000 C 
ATOM     28  C   UNL     1      -2.127  12.403  20.560  0.00  0.00    +0.000 C 
ATOM     29  C   UNL     1      -1.705  11.928  22.964  0.00  0.00    +0.000 C 
ATOM     30  C   UNL     1      -0.018  13.204  21.605  0.00  0.00    +0.000 C 
ENDBRANCH  24  27
ENDBRANCH  20  21
ENDBRANCH  19  20
ENDBRANCH   2  19
TORSDOF 8
ENDMDL
MODEL 7
REMARK VINA RESULT:      -7.8      4.099      5.622
REMARK  Name = 
REMARK  13 active torsions:
REMARK  status: ('A' for Active; 'I' for Inactive)
REMARK    1  A    between atoms: C_1  and  C_2
REMARK    2  A    between atoms: C_2  and  C_3
REMARK    3  A    between atoms: C_2  and  N_4
REMARK    4  A    between atoms: N_4  and  C_5
REMARK    5  A    between atoms: C_5  and  C_6
REMARK    6  A    between atoms: C_8  and  C_9
REMARK    7  A    between atoms: C_17  and  C_19
REMARK    8  A    between atoms: C_19  and  O_20
REMARK    9  A    between atoms: O_20  and  C_21
REMARK   10  A    between atoms: C_24  and  C_25
REMARK   11  A    between atoms: C_25  and  C_26
REMARK   12  A    between atoms: C_25  and  C_27
REMARK   13  A    between atoms: C_25  and  C_28
REMARK                            x       y       z     vdW  Elec       q    Type
REMARK                         _______ _______ _______ _____ _____    ______ ____
ROOT
ATOM      1  N   UNL     1       2.844   4.637  19.539  0.00  0.00    +0.000 N 
ATOM      2  C   UNL     1       3.203   5.980  19.603  0.00  0.00    +0.000 C 
ATOM      3  O   UNL     1       4.391   6.311  19.689  0.00  0.00    +0.000 OA
ENDROOT
BRANCH   1   5
ATOM      4  C   UNL     1       1.197   3.587  17.923  0.00  0.00    +0.000 C 
ATOM      5  C   UNL     1       1.479   4.085  19.339  0.00  0.00    +0.000 C 
ATOM      6  C   UNL     1       1.092   3.064  20.415  0.00  0.00    +0.000 C 
ENDBRANCH   1   5
BRANCH   1   7
ATOM      7  C   UNL     1       3.943   3.654  19.556  0.00  0.00    +0.000 C 
BRANCH   7   8
ATOM      8  C   UNL     1       4.962   3.895  18.491  0.00  0.00    +0.000 A 
ATOM      9  N   UNL     1       4.848   3.978  17.182  0.00  0.00    +0.000 NA
ATOM     10  C   UNL     1       6.136   4.266  16.780  0.00  0.00    +0.000 A 
ATOM     11  N   UNL     1       7.000   4.415  17.797  0.00  0.00    +0.000 NA
ATOM     12  O   UNL     1       6.228   4.167  18.928  0.00  0.00    +0.000 OA
BRANCH  10  13
ATOM     13  C   UNL     1       6.509   4.376  15.378  0.00  0.00    +0.000 A 
ATOM     14  C   UNL     1       5.874   3.640  14.372  0.00  0.00    +0.000 A 
ATOM     15  C   UNL     1       6.238   3.828  13.038  0.00  0.00    +0.000 A 
ATOM     16  C   UNL     1       7.238   4.741  12.750  0.00  0.00    +0.000 A 
ATOM     17  N   UNL     1       7.888   5.457  13.692  0.00  0.00    +0.000 NA
ATOM     18  C   UNL     1       7.507   5.259  14.980  0.00  0.00    +0.000 A 
ENDBRANCH  10  13
ENDBRANCH   7   8
ENDBRANCH   1   7
BRANCH   2  19
ATOM     19  C   UNL     1       2.143   7.086  19.550  0.00  0.00    +0.000 C 
BRANCH  19  20
ATOM     20  O   UNL     1       1.751   7.442  20.867  0.00  0.00    +0.000 OA
BRANCH  20  21
ATOM     21  C   UNL     1       0.984   8.569  20.966  0.00  0.00    +0.000 A 
ATOM     22  C   UNL     1       0.334   8.734  22.186  0.00  0.00    +0.000 A 
ATOM     23  C   UNL     1      -0.451   9.866  22.430  0.00  0.00    +0.000 A 
ATOM     24  C   UNL     1      -0.585  10.879  21.470  0.00  0.00    +0.000 A 
ATOM     25  C   UNL     1       0.050  10.676  20.230  0.00  0.00    +0.000 A 
ATOM     26  C   UNL     1       0.830   9.538  19.980  0.00  0.00    +0.000 A 
BRANCH  24  27
ATOM     27  C   UNL     1      -1.327  12.197  21.758  0.00  0.00    +0.000 C 
ATOM     28  C   UNL     1      -0.383  13.383  22.058  0.00  0.00    +0.000 C 
ATOM     29  C   UNL     1      -2.161  12.584  20.516  0.00  0.00    +0.000 C 
ATOM     30  C   UNL     1      -2.268  12.044  22.969  0.00  0.00    +0.000 C 
ENDBRANCH  24  27
ENDBRANCH  20  21
ENDBRANCH  19  20
ENDBRANCH   2  19
TORSDOF 8
ENDMDL
MODEL 8
REMARK VINA RESULT:      -7.7      0.868      1.489
REMARK  Name = 
REMARK  13 active torsions:
REMARK  status: ('A' for Active; 'I' for Inactive)
REMARK    1  A    between atoms: C_1  and  C_2
REMARK    2  A    between atoms: C_2  and  C_3
REMARK    3  A    between atoms: C_2  and  N_4
REMARK    4  A    between atoms: N_4  and  C_5
REMARK    5  A    between atoms: C_5  and  C_6
REMARK    6  A    between atoms: C_8  and  C_9
REMARK    7  A    between atoms: C_17  and  C_19
REMARK    8  A    between atoms: C_19  and  O_20
REMARK    9  A    between atoms: O_20  and  C_21
REMARK   10  A    between atoms: C_24  and  C_25
REMARK   11  A    between atoms: C_25  and  C_26
REMARK   12  A    between atoms: C_25  and  C_27
REMARK   13  A    between atoms: C_25  and  C_28
REMARK                            x       y       z     vdW  Elec       q    Type
REMARK                         _______ _______ _______ _____ _____    ______ ____
ROOT
ATOM      1  N   UNL     1       6.219   4.970  17.476  0.00  0.00    +0.000 N 
ATOM      2  C   UNL     1       5.291   4.842  18.505  0.00  0.00    +0.000 C 
ATOM      3  O   UNL     1       5.613   5.078  19.675  0.00  0.00    +0.000 OA
ENDROOT
BRANCH   1   5
ATOM      4  C   UNL     1       5.224   5.987  15.377  0.00  0.00    +0.000 C 
ATOM      5  C   UNL     1       5.965   4.816  16.019  0.00  0.00    +0.000 C 
ATOM      6  C   UNL     1       7.222   4.412  15.241  0.00  0.00    +0.000 C 
ENDBRANCH   1   5
BRANCH   1   7
ATOM      7  C   UNL     1       7.572   5.419  17.853  0.00  0.00    +0.000 C 
BRANCH   7   8
ATOM      8  C   UNL     1       7.707   6.905  17.894  0.00  0.00    +0.000 A 
ATOM      9  N   UNL     1       8.537   7.683  18.557  0.00  0.00    +0.000 NA
ATOM     10  C   UNL     1       8.185   8.946  18.125  0.00  0.00    +0.000 A 
ATOM     11  N   UNL     1       7.220   8.948  17.191  0.00  0.00    +0.000 NA
ATOM     12  O   UNL     1       6.900   7.602  17.039  0.00  0.00    +0.000 OA
BRANCH  10  13
ATOM     13  C   UNL     1       8.799  10.151  18.657  0.00  0.00    +0.000 A 
ATOM     14  C   UNL     1       9.357  10.207  19.939  0.00  0.00    +0.000 A 
ATOM     15  C   UNL     1       9.981  11.377  20.376  0.00  0.00    +0.000 A 
ATOM     16  C   UNL     1      10.019  12.463  19.518  0.00  0.00    +0.000 A 
ATOM     17  N   UNL     1       9.476  12.457  18.281  0.00  0.00    +0.000 NA
ATOM     18  C   UNL     1       8.883  11.303  17.881  0.00  0.00    +0.000 A 
ENDBRANCH  10  13
ENDBRANCH   7   8
ENDBRANCH   1   7
BRANCH   2  19
ATOM     19  C   UNL     1       3.845   4.422  18.219  0.00  0.00    +0.000 C 
BRANCH  19  20
ATOM     20  O   UNL     1       3.110   5.531  17.722  0.00  0.00    +0.000 OA
BRANCH  20  21
ATOM     21  C   UNL     1       2.584   6.359  18.673  0.00  0.00    +0.000 A 
ATOM     22  C   UNL     1       2.388   7.676  18.266  0.00  0.00    +0.000 A 
ATOM     23  C   UNL     1       1.819   8.615  19.131  0.00  0.00    +0.000 A 
ATOM     24  C   UNL     1       1.403   8.257  20.422  0.00  0.00    +0.000 A 
ATOM     25  C   UNL     1       1.643   6.930  20.828  0.00  0.00    +0.000 A 
ATOM     26  C   UNL     1       2.221   5.989  19.965  0.00  0.00    +0.000 A 
BRANCH  24  27
ATOM     27  C   UNL     1       0.650   9.231  21.347  0.00  0.00    +0.000 C 
ATOM     28  C   UNL     1      -0.743   8.719  21.778  0.00  0.00    +0.000 C 
ATOM     29  C   UNL     1       1.477   9.437  22.637  0.00  0.00    +0.000 C 
ATOM     30  C   UNL     1       0.444  10.594  20.658  0.00  0.00    +0.000 C 
ENDBRANCH  24  27
ENDBRANCH  20  21
ENDBRANCH  19  20
ENDBRANCH   2  19
TORSDOF 8
ENDMDL
MODEL 9
REMARK VINA RESULT:      -7.7      4.123      5.559
REMARK  Name = 
REMARK  13 active torsions:
REMARK  status: ('A' for Active; 'I' for Inactive)
REMARK    1  A    between atoms: C_1  and  C_2
REMARK    2  A    between atoms: C_2  and  C_3
REMARK    3  A    between atoms: C_2  and  N_4
REMARK    4  A    between atoms: N_4  and  C_5
REMARK    5  A    between atoms: C_5  and  C_6
REMARK    6  A    between atoms: C_8  and  C_9
REMARK    7  A    between atoms: C_17  and  C_19
REMARK    8  A    between atoms: C_19  and  O_20
REMARK    9  A    between atoms: O_20  and  C_21
REMARK   10  A    between atoms: C_24  and  C_25
REMARK   11  A    between atoms: C_25  and  C_26
REMARK   12  A    between atoms: C_25  and  C_27
REMARK   13  A    between atoms: C_25  and  C_28
REMARK                            x       y       z     vdW  Elec       q    Type
REMARK                         _______ _______ _______ _____ _____    ______ ____
ROOT
ATOM      1  N   UNL     1       3.365   4.743  18.926  0.00  0.00    +0.000 N 
ATOM      2  C   UNL     1       3.571   6.115  18.816  0.00  0.00    +0.000 C 
ATOM      3  O   UNL     1       4.716   6.581  18.809  0.00  0.00    +0.000 OA
ENDROOT
BRANCH   1   5
ATOM      4  C   UNL     1       2.098   2.729  18.048  0.00  0.00    +0.000 C 
ATOM      5  C   UNL     1       2.065   4.026  18.854  0.00  0.00    +0.000 C 
ATOM      6  C   UNL     1       1.411   3.852  20.230  0.00  0.00    +0.000 C 
ENDBRANCH   1   5
BRANCH   1   7
ATOM      7  C   UNL     1       4.568   3.895  19.006  0.00  0.00    +0.000 C 
BRANCH   7   8
ATOM      8  C   UNL     1       5.483   4.061  17.837  0.00  0.00    +0.000 A 
ATOM      9  N   UNL     1       5.238   4.120  16.544  0.00  0.00    +0.000 NA
ATOM     10  C   UNL     1       6.490   4.336  16.005  0.00  0.00    +0.000 A 
ATOM     11  N   UNL     1       7.460   4.466  16.925  0.00  0.00    +0.000 NA
ATOM     12  O   UNL     1       6.798   4.281  18.135  0.00  0.00    +0.000 OA
BRANCH  10  13
ATOM     13  C   UNL     1       6.721   4.396  14.571  0.00  0.00    +0.000 A 
ATOM     14  C   UNL     1       7.620   5.299  13.992  0.00  0.00    +0.000 A 
ATOM     15  C   UNL     1       7.841   5.274  12.614  0.00  0.00    +0.000 A 
ATOM     16  C   UNL     1       7.144   4.352  11.852  0.00  0.00    +0.000 A 
ATOM     17  N   UNL     1       6.254   3.476  12.369  0.00  0.00    +0.000 NA
ATOM     18  C   UNL     1       6.066   3.519  13.712  0.00  0.00    +0.000 A 
ENDBRANCH  10  13
ENDBRANCH   7   8
ENDBRANCH   1   7
BRANCH   2  19
ATOM     19  C   UNL     1       2.391   7.085  18.685  0.00  0.00    +0.000 C 
BRANCH  19  20
ATOM     20  O   UNL     1       1.995   7.540  19.970  0.00  0.00    +0.000 OA
BRANCH  20  21
ATOM     21  C   UNL     1       1.235   8.676  19.980  0.00  0.00    +0.000 A 
ATOM     22  C   UNL     1       1.273   9.422  18.805  0.00  0.00    +0.000 A 
ATOM     23  C   UNL     1       0.509  10.585  18.671  0.00  0.00    +0.000 A 
ATOM     24  C   UNL     1      -0.338  11.021  19.701  0.00  0.00    +0.000 A 
ATOM     25  C   UNL     1      -0.334  10.274  20.895  0.00  0.00    +0.000 A 
ATOM     26  C   UNL     1       0.437   9.112  21.034  0.00  0.00    +0.000 A 
BRANCH  24  27
ATOM     27  C   UNL     1      -1.292  12.218  19.534  0.00  0.00    +0.000 C 
ATOM     28  C   UNL     1      -2.661  11.835  18.927  0.00  0.00    +0.000 C 
ATOM     29  C   UNL     1      -1.570  12.836  20.923  0.00  0.00    +0.000 C 
ATOM     30  C   UNL     1      -0.672  13.292  18.619  0.00  0.00    +0.000 C 
ENDBRANCH  24  27
ENDBRANCH  20  21
ENDBRANCH  19  20
ENDBRANCH   2  19
TORSDOF 8
ENDMDL
