MODEL 1
REMARK VINA RESULT:      -7.1      0.000      0.000
REMARK  Name = 
REMARK  6 active torsions:
REMARK  status: ('A' for Active; 'I' for Inactive)
REMARK    1  A    between atoms: C_1  and  O_2
REMARK    2  A    between atoms: O_2  and  C_3
REMARK    3  A    between atoms: C_8  and  C_9
REMARK    4  A    between atoms: C_11  and  O_12
REMARK    5  A    between atoms: C_14  and  S_15
REMARK    6  A    between atoms: S_15  and  C_16
REMARK                            x       y       z     vdW  Elec       q    Type
REMARK                         _______ _______ _______ _____ _____    ______ ____
ROOT
ATOM      1  C   UNL     1       3.342   3.640  19.384  0.00  0.00    +0.000 A 
ATOM      2  C   UNL     1       2.558   3.479  20.534  0.00  0.00    +0.000 A 
ATOM      3  C   UNL     1       1.885   4.553  21.085  0.00  0.00    +0.000 A 
ATOM      4  C   UNL     1       1.917   5.804  20.519  0.00  0.00    +0.000 A 
ATOM      5  N   UNL     1       1.244   6.751  21.155  0.00  0.00    +0.000 NA
ATOM      6  C   UNL     1       1.229   7.983  20.640  0.00  0.00    +0.000 A 
ATOM      7  C   UNL     1       0.475   9.051  21.363  0.00  0.00    +0.000 C 
ATOM      8  N   UNL     1       1.828   8.317  19.489  0.00  0.00    +0.000 NA
ATOM      9  C   UNL     1       2.496   7.329  18.883  0.00  0.00    +0.000 A 
ATOM     10  C   UNL     1       2.649   6.009  19.325  0.00  0.00    +0.000 A 
ATOM     11  C   UNL     1       3.417   4.918  18.767  0.00  0.00    +0.000 A 
ENDROOT
BRANCH   1  13
ATOM     12  C   UNL     1       3.373   1.607  18.159  0.00  0.00    +0.000 C 
ATOM     13  O   UNL     1       4.095   2.581  18.932  0.00  0.00    +0.000 OA
ENDBRANCH   1  13
BRANCH   9  14
ATOM     14  O   UNL     1       3.013   7.773  17.707  0.00  0.00    +0.000 OA
ATOM     15  H   UNL     1       3.551   7.002  17.455  0.00  0.00    +0.000 HD
ENDBRANCH   9  14
BRANCH  11  16
ATOM     16  S   UNL     1       4.394   5.185  17.250  0.00  0.00    +0.000 S 
BRANCH  16  17
ATOM     17  C   UNL     1       5.926   5.951  17.780  0.00  0.00    +0.000 A 
ATOM     18  C   UNL     1       6.687   5.375  18.788  0.00  0.00    +0.000 A 
ATOM     19  C   UNL     1       7.852   6.009  19.189  0.00  0.00    +0.000 A 
ATOM     20  N   UNL     1       8.331   7.136  18.615  0.00  0.00    +0.000 NA
ATOM     21  C   UNL     1       7.617   7.640  17.589  0.00  0.00    +0.000 A 
ATOM     22  C   UNL     1       6.425   7.090  17.134  0.00  0.00    +0.000 A 
ENDBRANCH  16  17
ENDBRANCH  11  16
TORSDOF 4
ENDMDL
MODEL 2
REMARK VINA RESULT:      -7.0      0.118      1.031
REMARK  Name = 
REMARK  6 active torsions:
REMARK  status: ('A' for Active; 'I' for Inactive)
REMARK    1  A    between atoms: C_1  and  O_2
REMARK    2  A    between atoms: O_2  and  C_3
REMARK    3  A    between atoms: C_8  and  C_9
REMARK    4  A    between atoms: C_11  and  O_12
REMARK    5  A    between atoms: C_14  and  S_15
REMARK    6  A    between atoms: S_15  and  C_16
REMARK                            x       y       z     vdW  Elec       q    Type
REMARK                         _______ _______ _______ _____ _____    ______ ____
ROOT
ATOM      1  C   UNL     1       3.259   3.740  19.363  0.00  0.00    +0.000 A 
ATOM      2  C   UNL     1       2.470   3.592  20.512  0.00  0.00    +0.000 A 
ATOM      3  C   UNL     1       1.811   4.676  21.060  0.00  0.00    +0.000 A 
ATOM      4  C   UNL     1       1.862   5.925  20.492  0.00  0.00    +0.000 A 
ATOM      5  N   UNL     1       1.201   6.883  21.126  0.00  0.00    +0.000 NA
ATOM      6  C   UNL     1       1.204   8.114  20.608  0.00  0.00    +0.000 A 
ATOM      7  C   UNL     1       0.464   9.194  21.329  0.00  0.00    +0.000 C 
ATOM      8  N   UNL     1       1.810   8.438  19.458  0.00  0.00    +0.000 NA
ATOM      9  C   UNL     1       2.465   7.439  18.855  0.00  0.00    +0.000 A 
ATOM     10  C   UNL     1       2.599   6.118  19.300  0.00  0.00    +0.000 A 
ATOM     11  C   UNL     1       3.353   5.016  18.745  0.00  0.00    +0.000 A 
ENDROOT
BRANCH   1  13
ATOM     12  C   UNL     1       3.280   1.738  18.088  0.00  0.00    +0.000 C 
ATOM     13  O   UNL     1       3.997   2.670  18.915  0.00  0.00    +0.000 OA
ENDBRANCH   1  13
BRANCH   9  14
ATOM     14  O   UNL     1       2.991   7.874  17.680  0.00  0.00    +0.000 OA
ATOM     15  H   UNL     1       3.821   8.269  18.000  0.00  0.00    +0.000 HD
ENDBRANCH   9  14
BRANCH  11  16
ATOM     16  S   UNL     1       4.336   5.267  17.230  0.00  0.00    +0.000 S 
BRANCH  16  17
ATOM     17  C   UNL     1       5.901   5.958  17.767  0.00  0.00    +0.000 A 
ATOM     18  C   UNL     1       6.398   7.114  17.177  0.00  0.00    +0.000 A 
ATOM     19  C   UNL     1       7.623   7.604  17.601  0.00  0.00    +0.000 A 
ATOM     20  N   UNL     1       8.346   7.057  18.603  0.00  0.00    +0.000 NA
ATOM     21  C   UNL     1       7.813   5.980  19.214  0.00  0.00    +0.000 A 
ATOM     22  C   UNL     1       6.605   5.402  18.843  0.00  0.00    +0.000 A 
ENDBRANCH  16  17
ENDBRANCH  11  16
TORSDOF 4
ENDMDL
MODEL 3
REMARK VINA RESULT:      -6.6      1.291      1.335
REMARK  Name = 
REMARK  6 active torsions:
REMARK  status: ('A' for Active; 'I' for Inactive)
REMARK    1  A    between atoms: C_1  and  O_2
REMARK    2  A    between atoms: O_2  and  C_3
REMARK    3  A    between atoms: C_8  and  C_9
REMARK    4  A    between atoms: C_11  and  O_12
REMARK    5  A    between atoms: C_14  and  S_15
REMARK    6  A    between atoms: S_15  and  C_16
REMARK                            x       y       z     vdW  Elec       q    Type
REMARK                         _______ _______ _______ _____ _____    ______ ____
ROOT
ATOM      1  C   UNL     1       2.270   3.143  18.843  0.00  0.00    +0.000 A 
ATOM      2  C   UNL     1       1.411   3.026  19.944  0.00  0.00    +0.000 A 
ATOM      3  C   UNL     1       1.036   4.143  20.667  0.00  0.00    +0.000 A 
ATOM      4  C   UNL     1       1.446   5.408  20.324  0.00  0.00    +0.000 A 
ATOM      5  N   UNL     1       1.031   6.391  21.109  0.00  0.00    +0.000 NA
ATOM      6  C   UNL     1       1.387   7.643  20.812  0.00  0.00    +0.000 A 
ATOM      7  C   UNL     1       0.924   8.749  21.703  0.00  0.00    +0.000 C 
ATOM      8  N   UNL     1       2.118   7.975  19.739  0.00  0.00    +0.000 NA
ATOM      9  C   UNL     1       2.515   6.950  18.976  0.00  0.00    +0.000 A 
ATOM     10  C   UNL     1       2.270   5.587  19.188  0.00  0.00    +0.000 A 
ATOM     11  C   UNL     1       2.732   4.429  18.455  0.00  0.00    +0.000 A 
ENDROOT
BRANCH   1  13
ATOM     12  C   UNL     1       3.858   1.379  18.842  0.00  0.00    +0.000 C 
ATOM     13  O   UNL     1       2.721   2.001  18.222  0.00  0.00    +0.000 OA
ENDBRANCH   1  13
BRANCH   9  14
ATOM     14  O   UNL     1       3.198   7.413  17.897  0.00  0.00    +0.000 OA
ATOM     15  H   UNL     1       4.044   7.648  18.318  0.00  0.00    +0.000 HD
ENDBRANCH   9  14
BRANCH  11  16
ATOM     16  S   UNL     1       3.825   4.650  17.012  0.00  0.00    +0.000 S 
BRANCH  16  17
ATOM     17  C   UNL     1       5.486   4.792  17.670  0.00  0.00    +0.000 A 
ATOM     18  C   UNL     1       5.692   5.242  18.968  0.00  0.00    +0.000 A 
ATOM     19  C   UNL     1       6.991   5.364  19.433  0.00  0.00    +0.000 A 
ATOM     20  N   UNL     1       8.083   5.013  18.718  0.00  0.00    +0.000 NA
ATOM     21  C   UNL     1       7.860   4.508  17.487  0.00  0.00    +0.000 A 
ATOM     22  C   UNL     1       6.597   4.373  16.926  0.00  0.00    +0.000 A 
ENDBRANCH  16  17
ENDBRANCH  11  16
TORSDOF 4
ENDMDL
MODEL 4
REMARK VINA RESULT:      -6.5      4.046      7.898
REMARK  Name = 
REMARK  6 active torsions:
REMARK  status: ('A' for Active; 'I' for Inactive)
REMARK    1  A    between atoms: C_1  and  O_2
REMARK    2  A    between atoms: O_2  and  C_3
REMARK    3  A    between atoms: C_8  and  C_9
REMARK    4  A    between atoms: C_11  and  O_12
REMARK    5  A    between atoms: C_14  and  S_15
REMARK    6  A    between atoms: S_15  and  C_16
REMARK                            x       y       z     vdW  Elec       q    Type
REMARK                         _______ _______ _______ _____ _____    ______ ____
ROOT
ATOM      1  C   UNL     1      -0.116  10.291  21.299  0.00  0.00    +0.000 A 
ATOM      2  C   UNL     1       0.279   9.213  22.103  0.00  0.00    +0.000 A 
ATOM      3  C   UNL     1       1.066   8.201  21.588  0.00  0.00    +0.000 A 
ATOM      4  C   UNL     1       1.529   8.220  20.295  0.00  0.00    +0.000 A 
ATOM      5  N   UNL     1       2.259   7.180  19.919  0.00  0.00    +0.000 NA
ATOM      6  C   UNL     1       2.748   7.155  18.677  0.00  0.00    +0.000 A 
ATOM      7  C   UNL     1       3.565   5.978  18.254  0.00  0.00    +0.000 C 
ATOM      8  N   UNL     1       2.572   8.142  17.787  0.00  0.00    +0.000 NA
ATOM      9  C   UNL     1       1.828   9.170  18.210  0.00  0.00    +0.000 A 
ATOM     10  C   UNL     1       1.205   9.313  19.457  0.00  0.00    +0.000 A 
ATOM     11  C   UNL     1       0.327  10.351  19.950  0.00  0.00    +0.000 A 
ENDROOT
BRANCH   1  13
ATOM     12  C   UNL     1      -1.359  11.024  23.183  0.00  0.00    +0.000 C 
ATOM     13  O   UNL     1      -0.998  11.217  21.805  0.00  0.00    +0.000 OA
ENDBRANCH   1  13
BRANCH   9  14
ATOM     14  O   UNL     1       1.766  10.125  17.246  0.00  0.00    +0.000 OA
ATOM     15  H   UNL     1       1.116   9.720  16.646  0.00  0.00    +0.000 HD
ENDBRANCH   9  14
BRANCH  11  16
ATOM     16  S   UNL     1      -0.125  11.744  18.862  0.00  0.00    +0.000 S 
BRANCH  16  17
ATOM     17  C   UNL     1      -1.736  11.339  18.188  0.00  0.00    +0.000 A 
ATOM     18  C   UNL     1      -1.859  10.378  17.192  0.00  0.00    +0.000 A 
ATOM     19  C   UNL     1      -3.117  10.111  16.677  0.00  0.00    +0.000 A 
ATOM     20  N   UNL     1      -4.253  10.689  17.127  0.00  0.00    +0.000 NA
ATOM     21  C   UNL     1      -4.123  11.564  18.144  0.00  0.00    +0.000 A 
ATOM     22  C   UNL     1      -2.902  11.915  18.707  0.00  0.00    +0.000 A 
ENDBRANCH  16  17
ENDBRANCH  11  16
TORSDOF 4
ENDMDL
MODEL 5
REMARK VINA RESULT:      -6.5      3.914      7.711
REMARK  Name = 
REMARK  6 active torsions:
REMARK  status: ('A' for Active; 'I' for Inactive)
REMARK    1  A    between atoms: C_1  and  O_2
REMARK    2  A    between atoms: O_2  and  C_3
REMARK    3  A    between atoms: C_8  and  C_9
REMARK    4  A    between atoms: C_11  and  O_12
REMARK    5  A    between atoms: C_14  and  S_15
REMARK    6  A    between atoms: S_15  and  C_16
REMARK                            x       y       z     vdW  Elec       q    Type
REMARK                         _______ _______ _______ _____ _____    ______ ____
ROOT
ATOM      1  C   UNL     1       0.047   9.676  21.192  0.00  0.00    +0.000 A 
ATOM      2  C   UNL     1       0.479   8.510  21.837  0.00  0.00    +0.000 A 
ATOM      3  C   UNL     1       1.316   7.617  21.195  0.00  0.00    +0.000 A 
ATOM      4  C   UNL     1       1.792   7.844  19.926  0.00  0.00    +0.000 A 
ATOM      5  N   UNL     1       2.572   6.902  19.416  0.00  0.00    +0.000 NA
ATOM      6  C   UNL     1       3.075   7.080  18.192  0.00  0.00    +0.000 A 
ATOM      7  C   UNL     1       3.948   6.013  17.617  0.00  0.00    +0.000 C 
ATOM      8  N   UNL     1       2.867   8.178  17.453  0.00  0.00    +0.000 NA
ATOM      9  C   UNL     1       2.073   9.101  18.008  0.00  0.00    +0.000 A 
ATOM     10  C   UNL     1       1.431   9.034  19.251  0.00  0.00    +0.000 A 
ATOM     11  C   UNL     1       0.502   9.951  19.875  0.00  0.00    +0.000 A 
ENDROOT
BRANCH   1  13
ATOM     12  C   UNL     1      -0.904  10.387  23.247  0.00  0.00    +0.000 C 
ATOM     13  O   UNL     1      -0.880  10.480  21.813  0.00  0.00    +0.000 OA
ENDBRANCH   1  13
BRANCH   9  14
ATOM     14  O   UNL     1       1.981  10.183  17.192  0.00  0.00    +0.000 OA
ATOM     15  H   UNL     1       1.812  10.880  17.850  0.00  0.00    +0.000 HD
ENDBRANCH   9  14
BRANCH  11  16
ATOM     16  S   UNL     1       0.002  11.468  18.994  0.00  0.00    +0.000 S 
BRANCH  16  17
ATOM     17  C   UNL     1      -1.649  11.153  18.371  0.00  0.00    +0.000 A 
ATOM     18  C   UNL     1      -2.727  11.900  18.829  0.00  0.00    +0.000 A 
ATOM     19  C   UNL     1      -3.992  11.611  18.344  0.00  0.00    +0.000 A 
ATOM     20  N   UNL     1      -4.240  10.677  17.399  0.00  0.00    +0.000 NA
ATOM     21  C   UNL     1      -3.173  10.014  16.912  0.00  0.00    +0.000 A 
ATOM     22  C   UNL     1      -1.871  10.215  17.354  0.00  0.00    +0.000 A 
ENDBRANCH  16  17
ENDBRANCH  11  16
TORSDOF 4
ENDMDL
MODEL 6
REMARK VINA RESULT:      -6.4      3.430      5.072
REMARK  Name = 
REMARK  6 active torsions:
REMARK  status: ('A' for Active; 'I' for Inactive)
REMARK    1  A    between atoms: C_1  and  O_2
REMARK    2  A    between atoms: O_2  and  C_3
REMARK    3  A    between atoms: C_8  and  C_9
REMARK    4  A    between atoms: C_11  and  O_12
REMARK    5  A    between atoms: C_14  and  S_15
REMARK    6  A    between atoms: S_15  and  C_16
REMARK                            x       y       z     vdW  Elec       q    Type
REMARK                         _______ _______ _______ _____ _____    ______ ____
ROOT
ATOM      1  C   UNL     1       5.209   6.659  17.067  0.00  0.00    +0.000 A 
ATOM      2  C   UNL     1       4.049   7.332  17.472  0.00  0.00    +0.000 A 
ATOM      3  C   UNL     1       2.925   6.629  17.862  0.00  0.00    +0.000 A 
ATOM      4  C   UNL     1       2.902   5.256  17.910  0.00  0.00    +0.000 A 
ATOM      5  N   UNL     1       1.757   4.703  18.283  0.00  0.00    +0.000 NA
ATOM      6  C   UNL     1       1.684   3.372  18.363  0.00  0.00    +0.000 A 
ATOM      7  C   UNL     1       0.390   2.751  18.777  0.00  0.00    +0.000 C 
ATOM      8  N   UNL     1       2.717   2.553  18.119  0.00  0.00    +0.000 NA
ATOM      9  C   UNL     1       3.851   3.156  17.745  0.00  0.00    +0.000 A 
ATOM     10  C   UNL     1       4.065   4.528  17.564  0.00  0.00    +0.000 A 
ATOM     11  C   UNL     1       5.231   5.238  17.087  0.00  0.00    +0.000 A 
ENDROOT
BRANCH   1  13
ATOM     12  C   UNL     1       7.302   7.682  17.521  0.00  0.00    +0.000 C 
ATOM     13  O   UNL     1       6.266   7.385  16.570  0.00  0.00    +0.000 OA
ENDBRANCH   1  13
BRANCH   9  14
ATOM     14  O   UNL     1       4.833   2.232  17.579  0.00  0.00    +0.000 OA
ATOM     15  H   UNL     1       4.504   1.773  16.787  0.00  0.00    +0.000 HD
ENDBRANCH   9  14
BRANCH  11  16
ATOM     16  S   UNL     1       6.721   4.304  16.603  0.00  0.00    +0.000 S 
BRANCH  16  17
ATOM     17  C   UNL     1       6.739   4.302  14.810  0.00  0.00    +0.000 A 
ATOM     18  C   UNL     1       5.807   3.556  14.099  0.00  0.00    +0.000 A 
ATOM     19  C   UNL     1       5.869   3.558  12.715  0.00  0.00    +0.000 A 
ATOM     20  N   UNL     1       6.751   4.293  12.002  0.00  0.00    +0.000 NA
ATOM     21  C   UNL     1       7.599   5.068  12.707  0.00  0.00    +0.000 A 
ATOM     22  C   UNL     1       7.631   5.112  14.095  0.00  0.00    +0.000 A 
ENDBRANCH  16  17
ENDBRANCH  11  16
TORSDOF 4
ENDMDL
MODEL 7
REMARK VINA RESULT:      -6.4      3.445      5.124
REMARK  Name = 
REMARK  6 active torsions:
REMARK  status: ('A' for Active; 'I' for Inactive)
REMARK    1  A    between atoms: C_1  and  O_2
REMARK    2  A    between atoms: O_2  and  C_3
REMARK    3  A    between atoms: C_8  and  C_9
REMARK    4  A    between atoms: C_11  and  O_12
REMARK    5  A    between atoms: C_14  and  S_15
REMARK    6  A    between atoms: S_15  and  C_16
REMARK                            x       y       z     vdW  Elec       q    Type
REMARK                         _______ _______ _______ _____ _____    ______ ____
ROOT
ATOM      1  C   UNL     1       5.215   6.660  17.050  0.00  0.00    +0.000 A 
ATOM      2  C   UNL     1       4.058   7.333  17.464  0.00  0.00    +0.000 A 
ATOM      3  C   UNL     1       2.936   6.630  17.858  0.00  0.00    +0.000 A 
ATOM      4  C   UNL     1       2.911   5.258  17.903  0.00  0.00    +0.000 A 
ATOM      5  N   UNL     1       1.768   4.705  18.281  0.00  0.00    +0.000 NA
ATOM      6  C   UNL     1       1.693   3.374  18.356  0.00  0.00    +0.000 A 
ATOM      7  C   UNL     1       0.401   2.753  18.776  0.00  0.00    +0.000 C 
ATOM      8  N   UNL     1       2.723   2.555  18.104  0.00  0.00    +0.000 NA
ATOM      9  C   UNL     1       3.856   3.157  17.725  0.00  0.00    +0.000 A 
ATOM     10  C   UNL     1       4.071   4.530  17.547  0.00  0.00    +0.000 A 
ATOM     11  C   UNL     1       5.235   5.240  17.066  0.00  0.00    +0.000 A 
ENDROOT
BRANCH   1  13
ATOM     12  C   UNL     1       7.279   7.737  17.510  0.00  0.00    +0.000 C 
ATOM     13  O   UNL     1       6.270   7.386  16.549  0.00  0.00    +0.000 OA
ENDBRANCH   1  13
BRANCH   9  14
ATOM     14  O   UNL     1       4.836   2.232  17.550  0.00  0.00    +0.000 OA
ATOM     15  H   UNL     1       5.090   2.074  18.476  0.00  0.00    +0.000 HD
ENDBRANCH   9  14
BRANCH  11  16
ATOM     16  S   UNL     1       6.721   4.305  16.569  0.00  0.00    +0.000 S 
BRANCH  16  17
ATOM     17  C   UNL     1       6.736   4.321  14.777  0.00  0.00    +0.000 A 
ATOM     18  C   UNL     1       7.661   5.096  14.089  0.00  0.00    +0.000 A 
ATOM     19  C   UNL     1       7.626   5.103  12.704  0.00  0.00    +0.000 A 
ATOM     20  N   UNL     1       6.777   4.350  11.969  0.00  0.00    +0.000 NA
ATOM     21  C   UNL     1       5.936   3.548  12.653  0.00  0.00    +0.000 A 
ATOM     22  C   UNL     1       5.880   3.493  14.040  0.00  0.00    +0.000 A 
ENDBRANCH  16  17
ENDBRANCH  11  16
TORSDOF 4
ENDMDL
MODEL 8
REMARK VINA RESULT:      -6.4      0.971      1.525
REMARK  Name = 
REMARK  6 active torsions:
REMARK  status: ('A' for Active; 'I' for Inactive)
REMARK    1  A    between atoms: C_1  and  O_2
REMARK    2  A    between atoms: O_2  and  C_3
REMARK    3  A    between atoms: C_8  and  C_9
REMARK    4  A    between atoms: C_11  and  O_12
REMARK    5  A    between atoms: C_14  and  S_15
REMARK    6  A    between atoms: S_15  and  C_16
REMARK                            x       y       z     vdW  Elec       q    Type
REMARK                         _______ _______ _______ _____ _____    ______ ____
ROOT
ATOM      1  C   UNL     1       2.869   4.638  19.752  0.00  0.00    +0.000 A 
ATOM      2  C   UNL     1       2.029   4.853  20.853  0.00  0.00    +0.000 A 
ATOM      3  C   UNL     1       1.447   6.088  21.065  0.00  0.00    +0.000 A 
ATOM      4  C   UNL     1       1.627   7.140  20.200  0.00  0.00    +0.000 A 
ATOM      5  N   UNL     1       1.029   8.276  20.527  0.00  0.00    +0.000 NA
ATOM      6  C   UNL     1       1.158   9.326  19.712  0.00  0.00    +0.000 A 
ATOM      7  C   UNL     1       0.488  10.608  20.087  0.00  0.00    +0.000 C 
ATOM      8  N   UNL     1       1.832   9.292  18.554  0.00  0.00    +0.000 NA
ATOM      9  C   UNL     1       2.419   8.125  18.266  0.00  0.00    +0.000 A 
ATOM     10  C   UNL     1       2.421   6.959  19.043  0.00  0.00    +0.000 A 
ATOM     11  C   UNL     1       3.096   5.697  18.834  0.00  0.00    +0.000 A 
ENDROOT
BRANCH   1  13
ATOM     12  C   UNL     1       2.704   2.325  19.243  0.00  0.00    +0.000 C 
ATOM     13  O   UNL     1       3.527   3.436  19.637  0.00  0.00    +0.000 OA
ENDBRANCH   1  13
BRANCH   9  14
ATOM     14  O   UNL     1       3.023   8.198  17.051  0.00  0.00    +0.000 OA
ATOM     15  H   UNL     1       2.315   7.842  16.486  0.00  0.00    +0.000 HD
ENDBRANCH   9  14
BRANCH  11  16
ATOM     16  S   UNL     1       4.152   5.471  17.364  0.00  0.00    +0.000 S 
BRANCH  16  17
ATOM     17  C   UNL     1       5.786   6.033  17.841  0.00  0.00    +0.000 A 
ATOM     18  C   UNL     1       6.349   7.150  17.236  0.00  0.00    +0.000 A 
ATOM     19  C   UNL     1       7.625   7.538  17.612  0.00  0.00    +0.000 A 
ATOM     20  N   UNL     1       8.342   6.929  18.582  0.00  0.00    +0.000 NA
ATOM     21  C   UNL     1       7.750   5.893  19.209  0.00  0.00    +0.000 A 
ATOM     22  C   UNL     1       6.487   5.414  18.884  0.00  0.00    +0.000 A 
ENDBRANCH  16  17
ENDBRANCH  11  16
TORSDOF 4
ENDMDL
MODEL 9
REMARK VINA RESULT:      -6.4      1.524      1.829
REMARK  Name = 
REMARK  6 active torsions:
REMARK  status: ('A' for Active; 'I' for Inactive)
REMARK    1  A    between atoms: C_1  and  O_2
REMARK    2  A    between atoms: O_2  and  C_3
REMARK    3  A    between atoms: C_8  and  C_9
REMARK    4  A    between atoms: C_11  and  O_12
REMARK    5  A    between atoms: C_14  and  S_15
REMARK    6  A    between atoms: S_15  and  C_16
REMARK                            x       y       z     vdW  Elec       q    Type
REMARK                         _______ _______ _______ _____ _____    ______ ____
ROOT
ATOM      1  C   UNL     1       2.321   2.784  19.123  0.00  0.00    +0.000 A 
ATOM      2  C   UNL     1       1.771   2.787  20.411  0.00  0.00    +0.000 A 
ATOM      3  C   UNL     1       1.513   3.977  21.065  0.00  0.00    +0.000 A 
ATOM      4  C   UNL     1       1.740   5.198  20.479  0.00  0.00    +0.000 A 
ATOM      5  N   UNL     1       1.468   6.263  21.219  0.00  0.00    +0.000 NA
ATOM      6  C   UNL     1       1.656   7.475  20.692  0.00  0.00    +0.000 A 
ATOM      7  C   UNL     1       1.355   8.674  21.531  0.00  0.00    +0.000 C 
ATOM      8  N   UNL     1       2.075   7.685  19.436  0.00  0.00    +0.000 NA
ATOM      9  C   UNL     1       2.338   6.581  18.727  0.00  0.00    +0.000 A 
ATOM     10  C   UNL     1       2.244   5.252  19.157  0.00  0.00    +0.000 A 
ATOM     11  C   UNL     1       2.586   4.022  18.477  0.00  0.00    +0.000 A 
ENDROOT
BRANCH   1  13
ATOM     12  C   UNL     1       4.003   1.128  18.872  0.00  0.00    +0.000 C 
ATOM     13  O   UNL     1       2.679   1.586  18.549  0.00  0.00    +0.000 OA
ENDBRANCH   1  13
BRANCH   9  14
ATOM     14  O   UNL     1       2.701   6.919  17.462  0.00  0.00    +0.000 OA
ATOM     15  H   UNL     1       2.378   6.140  16.977  0.00  0.00    +0.000 HD
ENDBRANCH   9  14
BRANCH  11  16
ATOM     16  S   UNL     1       3.271   4.085  16.788  0.00  0.00    +0.000 S 
BRANCH  16  17
ATOM     17  C   UNL     1       5.040   4.305  16.982  0.00  0.00    +0.000 A 
ATOM     18  C   UNL     1       5.865   4.378  15.867  0.00  0.00    +0.000 A 
ATOM     19  C   UNL     1       7.230   4.522  16.056  0.00  0.00    +0.000 A 
ATOM     20  N   UNL     1       7.811   4.656  17.269  0.00  0.00    +0.000 NA
ATOM     21  C   UNL     1       6.987   4.658  18.336  0.00  0.00    +0.000 A 
ATOM     22  C   UNL     1       5.610   4.493  18.247  0.00  0.00    +0.000 A 
ENDBRANCH  16  17
ENDBRANCH  11  16
TORSDOF 4
ENDMDL
