MODEL 1
REMARK VINA RESULT:      -7.8      0.000      0.000
REMARK  Name = 
REMARK  7 active torsions:
REMARK  status: ('A' for Active; 'I' for Inactive)
REMARK    1  A    between atoms: C_1  and  C_2
REMARK    2  A    between atoms: C_2  and  O_3
REMARK    3  A    between atoms: O_3  and  C_4
REMARK    4  A    between atoms: C_7  and  N_8
REMARK    5  A    between atoms: C_9  and  C_11
REMARK    6  A    between atoms: N_14  and  C_15
REMARK    7  A    between atoms: C_21  and  N_22
REMARK                            x       y       z     vdW  Elec       q    Type
REMARK                         _______ _______ _______ _____ _____    ______ ____
ROOT
ATOM      1  C   UNL     1       0.423   9.396  21.306  0.00  0.00    +0.000 A 
ATOM      2  C   UNL     1       0.506   9.195  22.695  0.00  0.00    +0.000 A 
ATOM      3  N   UNL     1      -0.036  10.192  23.398  0.00  0.00    +0.000 NA
ATOM      4  N   UNL     1      -0.572  11.032  22.464  0.00  0.00    +0.000 N 
ATOM      5  C   UNL     1      -0.313  10.571  21.186  0.00  0.00    +0.000 A 
ENDROOT
BRANCH   4   6
ATOM      6  C   UNL     1      -1.344  12.153  22.887  0.00  0.00    +0.000 A 
ATOM      7  C   UNL     1      -2.667  11.964  23.307  0.00  0.00    +0.000 A 
ATOM      8  C   UNL     1      -3.397  13.044  23.812  0.00  0.00    +0.000 A 
ATOM      9  C   UNL     1      -2.819  14.313  23.883  0.00  0.00    +0.000 A 
ATOM     10  C   UNL     1      -1.520  14.513  23.429  0.00  0.00    +0.000 A 
ATOM     11  C   UNL     1      -0.793  13.442  22.912  0.00  0.00    +0.000 A 
ENDBRANCH   4   6
BRANCH   5  12
ATOM     12  N   UNL     1      -0.599  11.254  19.998  0.00  0.00    +0.000 N 
ATOM     13  C   UNL     1      -1.639  10.973  19.130  0.00  0.00    +0.000 A 
ATOM     14  C   UNL     1      -1.592  11.838  18.060  0.00  0.00    +0.000 A 
ATOM     15  C   UNL     1      -0.499  12.702  18.275  0.00  0.00    +0.000 A 
ATOM     16  C   UNL     1       0.095  12.321  19.458  0.00  0.00    +0.000 A 
ENDBRANCH   5  12
BRANCH   1  18
ATOM     17  N   UNL     1       1.768   7.544  20.476  0.00  0.00    +0.000 N 
ATOM     18  C   UNL     1       1.125   8.740  20.213  0.00  0.00    +0.000 C 
ATOM     19  O   UNL     1       1.150   9.306  19.125  0.00  0.00    +0.000 OA
ATOM     20  H   UNL     1       1.763   7.177  21.418  0.00  0.00    +0.000 HD
BRANCH  17  24
ATOM     21  C   UNL     1       3.808   5.222  17.559  0.00  0.00    +0.000 A 
ATOM     22  C   UNL     1       3.861   6.604  17.497  0.00  0.00    +0.000 A 
ATOM     23  C   UNL     1       3.202   7.374  18.453  0.00  0.00    +0.000 A 
ATOM     24  C   UNL     1       2.460   6.785  19.488  0.00  0.00    +0.000 A 
ATOM     25  C   UNL     1       2.392   5.389  19.529  0.00  0.00    +0.000 A 
ATOM     26  C   UNL     1       3.060   4.612  18.565  0.00  0.00    +0.000 A 
BRANCH  21  27
ATOM     27  O   UNL     1       4.508   4.591  16.574  0.00  0.00    +0.000 OA
BRANCH  27  29
ATOM     28  C   UNL     1       5.804   4.621  14.587  0.00  0.00    +0.000 C 
ATOM     29  C   UNL     1       5.399   5.406  15.819  0.00  0.00    +0.000 C 
ENDBRANCH  27  29
ENDBRANCH  21  27
ENDBRANCH  17  24
ENDBRANCH   1  18
TORSDOF 6
ENDMDL
MODEL 2
REMARK VINA RESULT:      -7.7      0.179      1.166
REMARK  Name = 
REMARK  7 active torsions:
REMARK  status: ('A' for Active; 'I' for Inactive)
REMARK    1  A    between atoms: C_1  and  C_2
REMARK    2  A    between atoms: C_2  and  O_3
REMARK    3  A    between atoms: O_3  and  C_4
REMARK    4  A    between atoms: C_7  and  N_8
REMARK    5  A    between atoms: C_9  and  C_11
REMARK    6  A    between atoms: N_14  and  C_15
REMARK    7  A    between atoms: C_21  and  N_22
REMARK                            x       y       z     vdW  Elec       q    Type
REMARK                         _______ _______ _______ _____ _____    ______ ____
ROOT
ATOM      1  C   UNL     1       0.417   9.444  21.390  0.00  0.00    +0.000 A 
ATOM      2  C   UNL     1       0.487   9.258  22.782  0.00  0.00    +0.000 A 
ATOM      3  N   UNL     1      -0.075  10.255  23.469  0.00  0.00    +0.000 NA
ATOM      4  N   UNL     1      -0.612  11.079  22.519  0.00  0.00    +0.000 N 
ATOM      5  C   UNL     1      -0.332  10.608  21.250  0.00  0.00    +0.000 A 
ENDROOT
BRANCH   4   6
ATOM      6  C   UNL     1      -1.402  12.194  22.922  0.00  0.00    +0.000 A 
ATOM      7  C   UNL     1      -0.836  13.476  22.934  0.00  0.00    +0.000 A 
ATOM      8  C   UNL     1      -1.633  14.584  23.237  0.00  0.00    +0.000 A 
ATOM      9  C   UNL     1      -2.983  14.417  23.547  0.00  0.00    +0.000 A 
ATOM     10  C   UNL     1      -3.538  13.142  23.578  0.00  0.00    +0.000 A 
ATOM     11  C   UNL     1      -2.745  12.033  23.289  0.00  0.00    +0.000 A 
ENDBRANCH   4   6
BRANCH   5  12
ATOM     12  N   UNL     1      -0.614  11.275  20.051  0.00  0.00    +0.000 N 
ATOM     13  C   UNL     1       0.068  12.370  19.552  0.00  0.00    +0.000 A 
ATOM     14  C   UNL     1      -0.506  12.766  18.365  0.00  0.00    +0.000 A 
ATOM     15  C   UNL     1      -1.569  11.879  18.103  0.00  0.00    +0.000 A 
ATOM     16  C   UNL     1      -1.621  10.985  19.149  0.00  0.00    +0.000 A 
ENDBRANCH   5  12
BRANCH   1  18
ATOM     17  N   UNL     1       1.675   7.533  20.556  0.00  0.00    +0.000 N 
ATOM     18  C   UNL     1       1.139   8.785  20.313  0.00  0.00    +0.000 C 
ATOM     19  O   UNL     1       1.277   9.395  19.256  0.00  0.00    +0.000 OA
ATOM     20  H   UNL     1       1.583   7.127  21.477  0.00  0.00    +0.000 HD
BRANCH  17  24
ATOM     21  C   UNL     1       3.735   5.194  17.667  0.00  0.00    +0.000 A 
ATOM     22  C   UNL     1       3.772   6.575  17.586  0.00  0.00    +0.000 A 
ATOM     23  C   UNL     1       3.107   7.351  18.532  0.00  0.00    +0.000 A 
ATOM     24  C   UNL     1       2.374   6.768  19.577  0.00  0.00    +0.000 A 
ATOM     25  C   UNL     1       2.321   5.372  19.638  0.00  0.00    +0.000 A 
ATOM     26  C   UNL     1       2.995   4.589  18.684  0.00  0.00    +0.000 A 
BRANCH  21  27
ATOM     27  O   UNL     1       4.439   4.556  16.690  0.00  0.00    +0.000 OA
BRANCH  27  29
ATOM     28  C   UNL     1       5.728   4.907  14.729  0.00  0.00    +0.000 C 
ATOM     29  C   UNL     1       5.590   5.239  16.202  0.00  0.00    +0.000 C 
ENDBRANCH  27  29
ENDBRANCH  21  27
ENDBRANCH  17  24
ENDBRANCH   1  18
TORSDOF 6
ENDMDL
MODEL 3
REMARK VINA RESULT:      -7.5      0.869      1.248
REMARK  Name = 
REMARK  7 active torsions:
REMARK  status: ('A' for Active; 'I' for Inactive)
REMARK    1  A    between atoms: C_1  and  C_2
REMARK    2  A    between atoms: C_2  and  O_3
REMARK    3  A    between atoms: O_3  and  C_4
REMARK    4  A    between atoms: C_7  and  N_8
REMARK    5  A    between atoms: C_9  and  C_11
REMARK    6  A    between atoms: N_14  and  C_15
REMARK    7  A    between atoms: C_21  and  N_22
REMARK                            x       y       z     vdW  Elec       q    Type
REMARK                         _______ _______ _______ _____ _____    ______ ____
ROOT
ATOM      1  C   UNL     1       0.846   8.989  21.276  0.00  0.00    +0.000 A 
ATOM      2  C   UNL     1       1.041   8.961  22.668  0.00  0.00    +0.000 A 
ATOM      3  N   UNL     1       0.460   9.987  23.295  0.00  0.00    +0.000 NA
ATOM      4  N   UNL     1      -0.213  10.664  22.317  0.00  0.00    +0.000 N 
ATOM      5  C   UNL     1      -0.000  10.077  21.083  0.00  0.00    +0.000 A 
ENDROOT
BRANCH   4   6
ATOM      6  C   UNL     1      -1.052  11.759  22.671  0.00  0.00    +0.000 A 
ATOM      7  C   UNL     1      -2.335  11.514  23.178  0.00  0.00    +0.000 A 
ATOM      8  C   UNL     1      -3.125  12.581  23.614  0.00  0.00    +0.000 A 
ATOM      9  C   UNL     1      -2.650  13.891  23.530  0.00  0.00    +0.000 A 
ATOM     10  C   UNL     1      -1.393  14.142  22.988  0.00  0.00    +0.000 A 
ATOM     11  C   UNL     1      -0.607  13.082  22.539  0.00  0.00    +0.000 A 
ENDBRANCH   4   6
BRANCH   5  12
ATOM     12  N   UNL     1      -0.428  10.588  19.852  0.00  0.00    +0.000 N 
ATOM     13  C   UNL     1       0.079  11.709  19.217  0.00  0.00    +0.000 A 
ATOM     14  C   UNL     1      -0.603  11.917  18.039  0.00  0.00    +0.000 A 
ATOM     15  C   UNL     1      -1.554  10.884  17.923  0.00  0.00    +0.000 A 
ATOM     16  C   UNL     1      -1.434  10.091  19.043  0.00  0.00    +0.000 A 
ENDBRANCH   5  12
BRANCH   1  18
ATOM     17  N   UNL     1       1.957   6.978  20.471  0.00  0.00    +0.000 N 
ATOM     18  C   UNL     1       1.528   8.267  20.213  0.00  0.00    +0.000 C 
ATOM     19  O   UNL     1       1.729   8.858  19.156  0.00  0.00    +0.000 OA
ATOM     20  H   UNL     1       1.818   6.586  21.391  0.00  0.00    +0.000 HD
BRANCH  17  24
ATOM     21  C   UNL     1       3.952   4.533  17.623  0.00  0.00    +0.000 A 
ATOM     22  C   UNL     1       2.571   4.628  17.600  0.00  0.00    +0.000 A 
ATOM     23  C   UNL     1       1.909   5.433  18.523  0.00  0.00    +0.000 A 
ATOM     24  C   UNL     1       2.605   6.153  19.506  0.00  0.00    +0.000 A 
ATOM     25  C   UNL     1       3.998   6.033  19.538  0.00  0.00    +0.000 A 
ATOM     26  C   UNL     1       4.667   5.222  18.603  0.00  0.00    +0.000 A 
BRANCH  21  27
ATOM     27  O   UNL     1       4.475   3.727  16.657  0.00  0.00    +0.000 OA
BRANCH  27  29
ATOM     28  C   UNL     1       6.577   4.227  15.677  0.00  0.00    +0.000 C 
ATOM     29  C   UNL     1       5.075   4.389  15.548  0.00  0.00    +0.000 C 
ENDBRANCH  27  29
ENDBRANCH  21  27
ENDBRANCH  17  24
ENDBRANCH   1  18
TORSDOF 6
ENDMDL
MODEL 4
REMARK VINA RESULT:      -7.5      0.241      1.303
REMARK  Name = 
REMARK  7 active torsions:
REMARK  status: ('A' for Active; 'I' for Inactive)
REMARK    1  A    between atoms: C_1  and  C_2
REMARK    2  A    between atoms: C_2  and  O_3
REMARK    3  A    between atoms: O_3  and  C_4
REMARK    4  A    between atoms: C_7  and  N_8
REMARK    5  A    between atoms: C_9  and  C_11
REMARK    6  A    between atoms: N_14  and  C_15
REMARK    7  A    between atoms: C_21  and  N_22
REMARK                            x       y       z     vdW  Elec       q    Type
REMARK                         _______ _______ _______ _____ _____    ______ ____
ROOT
ATOM      1  C   UNL     1       0.472   9.313  21.367  0.00  0.00    +0.000 A 
ATOM      2  C   UNL     1       0.538   9.119  22.758  0.00  0.00    +0.000 A 
ATOM      3  N   UNL     1      -0.025  10.113  23.449  0.00  0.00    +0.000 NA
ATOM      4  N   UNL     1      -0.560  10.942  22.503  0.00  0.00    +0.000 N 
ATOM      5  C   UNL     1      -0.277  10.478  21.232  0.00  0.00    +0.000 A 
ENDROOT
BRANCH   4   6
ATOM      6  C   UNL     1      -1.351  12.055  22.910  0.00  0.00    +0.000 A 
ATOM      7  C   UNL     1      -0.815  13.347  22.843  0.00  0.00    +0.000 A 
ATOM      8  C   UNL     1      -1.618  14.449  23.152  0.00  0.00    +0.000 A 
ATOM      9  C   UNL     1      -2.945  14.266  23.545  0.00  0.00    +0.000 A 
ATOM     10  C   UNL     1      -3.468  12.982  23.653  0.00  0.00    +0.000 A 
ATOM     11  C   UNL     1      -2.667  11.880  23.360  0.00  0.00    +0.000 A 
ENDBRANCH   4   6
BRANCH   5  12
ATOM     12  N   UNL     1      -0.557  11.151  20.036  0.00  0.00    +0.000 N 
ATOM     13  C   UNL     1      -1.564  10.835  19.142  0.00  0.00    +0.000 A 
ATOM     14  C   UNL     1      -1.519  11.702  18.074  0.00  0.00    +0.000 A 
ATOM     15  C   UNL     1      -0.461  12.601  18.315  0.00  0.00    +0.000 A 
ATOM     16  C   UNL     1       0.116  12.240  19.513  0.00  0.00    +0.000 A 
ENDBRANCH   5  12
BRANCH   1  18
ATOM     17  N   UNL     1       1.767   7.425  20.539  0.00  0.00    +0.000 N 
ATOM     18  C   UNL     1       1.196   8.660  20.288  0.00  0.00    +0.000 C 
ATOM     19  O   UNL     1       1.304   9.261  19.223  0.00  0.00    +0.000 OA
ATOM     20  H   UNL     1       1.697   7.028  21.465  0.00  0.00    +0.000 HD
BRANCH  17  24
ATOM     21  C   UNL     1       3.882   5.222  17.583  0.00  0.00    +0.000 A 
ATOM     22  C   UNL     1       3.362   4.568  18.686  0.00  0.00    +0.000 A 
ATOM     23  C   UNL     1       2.660   5.279  19.656  0.00  0.00    +0.000 A 
ATOM     24  C   UNL     1       2.472   6.667  19.559  0.00  0.00    +0.000 A 
ATOM     25  C   UNL     1       3.022   7.324  18.454  0.00  0.00    +0.000 A 
ATOM     26  C   UNL     1       3.728   6.604  17.473  0.00  0.00    +0.000 A 
BRANCH  21  27
ATOM     27  O   UNL     1       4.531   4.408  16.703  0.00  0.00    +0.000 OA
BRANCH  27  29
ATOM     28  C   UNL     1       5.895   4.715  14.786  0.00  0.00    +0.000 C 
ATOM     29  C   UNL     1       5.827   4.835  16.296  0.00  0.00    +0.000 C 
ENDBRANCH  27  29
ENDBRANCH  21  27
ENDBRANCH  17  24
ENDBRANCH   1  18
TORSDOF 6
ENDMDL
MODEL 5
REMARK VINA RESULT:      -7.2      0.757      1.052
REMARK  Name = 
REMARK  7 active torsions:
REMARK  status: ('A' for Active; 'I' for Inactive)
REMARK    1  A    between atoms: C_1  and  C_2
REMARK    2  A    between atoms: C_2  and  O_3
REMARK    3  A    between atoms: O_3  and  C_4
REMARK    4  A    between atoms: C_7  and  N_8
REMARK    5  A    between atoms: C_9  and  C_11
REMARK    6  A    between atoms: N_14  and  C_15
REMARK    7  A    between atoms: C_21  and  N_22
REMARK                            x       y       z     vdW  Elec       q    Type
REMARK                         _______ _______ _______ _____ _____    ______ ____
ROOT
ATOM      1  C   UNL     1       0.113   9.701  21.263  0.00  0.00    +0.000 A 
ATOM      2  C   UNL     1      -0.098   9.234  22.572  0.00  0.00    +0.000 A 
ATOM      3  N   UNL     1      -0.662  10.147  23.366  0.00  0.00    +0.000 NA
ATOM      4  N   UNL     1      -0.918  11.214  22.550  0.00  0.00    +0.000 N 
ATOM      5  C   UNL     1      -0.463  10.969  21.268  0.00  0.00    +0.000 A 
ENDROOT
BRANCH   4   6
ATOM      6  C   UNL     1      -1.639  12.332  23.062  0.00  0.00    +0.000 A 
ATOM      7  C   UNL     1      -2.982  12.179  23.431  0.00  0.00    +0.000 A 
ATOM      8  C   UNL     1      -3.665  13.247  24.020  0.00  0.00    +0.000 A 
ATOM      9  C   UNL     1      -3.022  14.469  24.225  0.00  0.00    +0.000 A 
ATOM     10  C   UNL     1      -1.701  14.636  23.822  0.00  0.00    +0.000 A 
ATOM     11  C   UNL     1      -1.020  13.579  23.221  0.00  0.00    +0.000 A 
ENDBRANCH   4   6
BRANCH   5  12
ATOM     12  N   UNL     1      -0.441  11.895  20.219  0.00  0.00    +0.000 N 
ATOM     13  C   UNL     1       0.502  12.890  20.033  0.00  0.00    +0.000 A 
ATOM     14  C   UNL     1       0.186  13.618  18.908  0.00  0.00    +0.000 A 
ATOM     15  C   UNL     1      -0.982  13.050  18.362  0.00  0.00    +0.000 A 
ATOM     16  C   UNL     1      -1.350  12.007  19.182  0.00  0.00    +0.000 A 
ENDBRANCH   5  12
BRANCH   1  18
ATOM     17  N   UNL     1       1.596   7.970  20.409  0.00  0.00    +0.000 N 
ATOM     18  C   UNL     1       0.943   9.170  20.193  0.00  0.00    +0.000 C 
ATOM     19  O   UNL     1       1.060   9.839  19.170  0.00  0.00    +0.000 OA
ATOM     20  H   UNL     1       1.508   7.514  21.306  0.00  0.00    +0.000 HD
BRANCH  17  24
ATOM     21  C   UNL     1       4.025   5.993  17.536  0.00  0.00    +0.000 A 
ATOM     22  C   UNL     1       3.567   7.274  17.283  0.00  0.00    +0.000 A 
ATOM     23  C   UNL     1       2.777   7.934  18.222  0.00  0.00    +0.000 A 
ATOM     24  C   UNL     1       2.410   7.326  19.432  0.00  0.00    +0.000 A 
ATOM     25  C   UNL     1       2.856   6.022  19.669  0.00  0.00    +0.000 A 
ATOM     26  C   UNL     1       3.657   5.358  18.722  0.00  0.00    +0.000 A 
BRANCH  21  27
ATOM     27  O   UNL     1       4.800   5.469  16.544  0.00  0.00    +0.000 OA
BRANCH  27  29
ATOM     28  C   UNL     1       5.971   3.706  15.472  0.00  0.00    +0.000 C 
ATOM     29  C   UNL     1       5.045   4.068  16.617  0.00  0.00    +0.000 C 
ENDBRANCH  27  29
ENDBRANCH  21  27
ENDBRANCH  17  24
ENDBRANCH   1  18
TORSDOF 6
ENDMDL
MODEL 6
REMARK VINA RESULT:      -7.0      1.054      1.376
REMARK  Name = 
REMARK  7 active torsions:
REMARK  status: ('A' for Active; 'I' for Inactive)
REMARK    1  A    between atoms: C_1  and  C_2
REMARK    2  A    between atoms: C_2  and  O_3
REMARK    3  A    between atoms: O_3  and  C_4
REMARK    4  A    between atoms: C_7  and  N_8
REMARK    5  A    between atoms: C_9  and  C_11
REMARK    6  A    between atoms: N_14  and  C_15
REMARK    7  A    between atoms: C_21  and  N_22
REMARK                            x       y       z     vdW  Elec       q    Type
REMARK                         _______ _______ _______ _____ _____    ______ ____
ROOT
ATOM      1  C   UNL     1       0.168   9.558  21.618  0.00  0.00    +0.000 A 
ATOM      2  C   UNL     1       0.149   9.423  23.017  0.00  0.00    +0.000 A 
ATOM      3  N   UNL     1      -0.393  10.475  23.634  0.00  0.00    +0.000 NA
ATOM      4  N   UNL     1      -0.828  11.290  22.626  0.00  0.00    +0.000 N 
ATOM      5  C   UNL     1      -0.505  10.755  21.393  0.00  0.00    +0.000 A 
ENDROOT
BRANCH   4   6
ATOM      6  C   UNL     1      -1.575  12.461  22.943  0.00  0.00    +0.000 A 
ATOM      7  C   UNL     1      -2.954  12.363  23.167  0.00  0.00    +0.000 A 
ATOM      8  C   UNL     1      -3.674  13.492  23.570  0.00  0.00    +0.000 A 
ATOM      9  C   UNL     1      -3.028  14.719  23.731  0.00  0.00    +0.000 A 
ATOM     10  C   UNL     1      -1.667  14.829  23.469  0.00  0.00    +0.000 A 
ATOM     11  C   UNL     1      -0.948  13.710  23.054  0.00  0.00    +0.000 A 
ENDBRANCH   4   6
BRANCH   5  12
ATOM     12  N   UNL     1      -0.681  11.389  20.157  0.00  0.00    +0.000 N 
ATOM     13  C   UNL     1       0.090  12.423  19.657  0.00  0.00    +0.000 A 
ATOM     14  C   UNL     1      -0.394  12.803  18.426  0.00  0.00    +0.000 A 
ATOM     15  C   UNL     1      -1.493  11.969  18.137  0.00  0.00    +0.000 A 
ATOM     16  C   UNL     1      -1.654  11.121  19.211  0.00  0.00    +0.000 A 
ENDBRANCH   5  12
BRANCH   1  18
ATOM     17  N   UNL     1       1.425   7.582  20.952  0.00  0.00    +0.000 N 
ATOM     18  C   UNL     1       0.910   8.819  20.608  0.00  0.00    +0.000 C 
ATOM     19  O   UNL     1       1.083   9.353  19.517  0.00  0.00    +0.000 OA
ATOM     20  H   UNL     1       1.303   7.241  21.895  0.00  0.00    +0.000 HD
BRANCH  17  24
ATOM     21  C   UNL     1       3.551   5.031  18.299  0.00  0.00    +0.000 A 
ATOM     22  C   UNL     1       3.279   6.337  17.927  0.00  0.00    +0.000 A 
ATOM     23  C   UNL     1       2.591   7.183  18.793  0.00  0.00    +0.000 A 
ATOM     24  C   UNL     1       2.140   6.744  20.047  0.00  0.00    +0.000 A 
ATOM     25  C   UNL     1       2.396   5.417  20.405  0.00  0.00    +0.000 A 
ATOM     26  C   UNL     1       3.095   4.564  19.531  0.00  0.00    +0.000 A 
BRANCH  21  27
ATOM     27  O   UNL     1       4.244   4.316  17.368  0.00  0.00    +0.000 OA
BRANCH  27  29
ATOM     28  C   UNL     1       2.738   2.490  17.201  0.00  0.00    +0.000 C 
ATOM     29  C   UNL     1       4.170   2.899  17.487  0.00  0.00    +0.000 C 
ENDBRANCH  27  29
ENDBRANCH  21  27
ENDBRANCH  17  24
ENDBRANCH   1  18
TORSDOF 6
ENDMDL
MODEL 7
REMARK VINA RESULT:      -7.0      0.962      1.369
REMARK  Name = 
REMARK  7 active torsions:
REMARK  status: ('A' for Active; 'I' for Inactive)
REMARK    1  A    between atoms: C_1  and  C_2
REMARK    2  A    between atoms: C_2  and  O_3
REMARK    3  A    between atoms: O_3  and  C_4
REMARK    4  A    between atoms: C_7  and  N_8
REMARK    5  A    between atoms: C_9  and  C_11
REMARK    6  A    between atoms: N_14  and  C_15
REMARK    7  A    between atoms: C_21  and  N_22
REMARK                            x       y       z     vdW  Elec       q    Type
REMARK                         _______ _______ _______ _____ _____    ______ ____
ROOT
ATOM      1  C   UNL     1       0.197   9.592  21.582  0.00  0.00    +0.000 A 
ATOM      2  C   UNL     1       0.150   9.384  22.972  0.00  0.00    +0.000 A 
ATOM      3  N   UNL     1      -0.422  10.395  23.631  0.00  0.00    +0.000 NA
ATOM      4  N   UNL     1      -0.847  11.254  22.657  0.00  0.00    +0.000 N 
ATOM      5  C   UNL     1      -0.490  10.790  21.405  0.00  0.00    +0.000 A 
ENDROOT
BRANCH   4   6
ATOM      6  C   UNL     1      -1.619  12.396  23.017  0.00  0.00    +0.000 A 
ATOM      7  C   UNL     1      -2.977  12.245  23.330  0.00  0.00    +0.000 A 
ATOM      8  C   UNL     1      -3.714  13.346  23.774  0.00  0.00    +0.000 A 
ATOM      9  C   UNL     1      -3.110  14.598  23.891  0.00  0.00    +0.000 A 
ATOM     10  C   UNL     1      -1.773  14.762  23.542  0.00  0.00    +0.000 A 
ATOM     11  C   UNL     1      -1.037  13.670  23.085  0.00  0.00    +0.000 A 
ENDBRANCH   4   6
BRANCH   5  12
ATOM     12  N   UNL     1      -0.649  11.485  20.200  0.00  0.00    +0.000 N 
ATOM     13  C   UNL     1      -1.634  11.257  19.255  0.00  0.00    +0.000 A 
ATOM     14  C   UNL     1      -1.460  12.117  18.194  0.00  0.00    +0.000 A 
ATOM     15  C   UNL     1      -0.342  12.922  18.493  0.00  0.00    +0.000 A 
ATOM     16  C   UNL     1       0.140  12.513  19.716  0.00  0.00    +0.000 A 
ENDBRANCH   5  12
BRANCH   1  18
ATOM     17  N   UNL     1       1.562   7.708  20.867  0.00  0.00    +0.000 N 
ATOM     18  C   UNL     1       0.973   8.918  20.552  0.00  0.00    +0.000 C 
ATOM     19  O   UNL     1       1.103   9.483  19.470  0.00  0.00    +0.000 OA
ATOM     20  H   UNL     1       1.469   7.342  21.804  0.00  0.00    +0.000 HD
BRANCH  17  24
ATOM     21  C   UNL     1       3.808   5.445  18.057  0.00  0.00    +0.000 A 
ATOM     22  C   UNL     1       3.570   4.930  19.320  0.00  0.00    +0.000 A 
ATOM     23  C   UNL     1       2.828   5.660  20.245  0.00  0.00    +0.000 A 
ATOM     24  C   UNL     1       2.317   6.931  19.940  0.00  0.00    +0.000 A 
ATOM     25  C   UNL     1       2.584   7.454  18.671  0.00  0.00    +0.000 A 
ATOM     26  C   UNL     1       3.330   6.715  17.736  0.00  0.00    +0.000 A 
BRANCH  21  27
ATOM     27  O   UNL     1       4.532   4.623  17.245  0.00  0.00    +0.000 OA
BRANCH  27  29
ATOM     28  C   UNL     1       2.757   3.071  16.975  0.00  0.00    +0.000 C 
ATOM     29  C   UNL     1       4.224   3.235  17.326  0.00  0.00    +0.000 C 
ENDBRANCH  27  29
ENDBRANCH  21  27
ENDBRANCH  17  24
ENDBRANCH   1  18
TORSDOF 6
ENDMDL
MODEL 8
REMARK VINA RESULT:      -7.0      1.846      2.521
REMARK  Name = 
REMARK  7 active torsions:
REMARK  status: ('A' for Active; 'I' for Inactive)
REMARK    1  A    between atoms: C_1  and  C_2
REMARK    2  A    between atoms: C_2  and  O_3
REMARK    3  A    between atoms: O_3  and  C_4
REMARK    4  A    between atoms: C_7  and  N_8
REMARK    5  A    between atoms: C_9  and  C_11
REMARK    6  A    between atoms: N_14  and  C_15
REMARK    7  A    between atoms: C_21  and  N_22
REMARK                            x       y       z     vdW  Elec       q    Type
REMARK                         _______ _______ _______ _____ _____    ______ ____
ROOT
ATOM      1  C   UNL     1       0.067  10.316  21.956  0.00  0.00    +0.000 A 
ATOM      2  C   UNL     1      -0.801  10.274  23.061  0.00  0.00    +0.000 A 
ATOM      3  N   UNL     1      -1.320  11.468  23.359  0.00  0.00    +0.000 NA
ATOM      4  N   UNL     1      -0.864  12.306  22.381  0.00  0.00    +0.000 N 
ATOM      5  C   UNL     1      -0.025  11.633  21.513  0.00  0.00    +0.000 A 
ENDROOT
BRANCH   4   6
ATOM      6  C   UNL     1      -1.337  13.649  22.331  0.00  0.00    +0.000 A 
ATOM      7  C   UNL     1      -0.947  14.558  23.323  0.00  0.00    +0.000 A 
ATOM      8  C   UNL     1      -1.332  15.898  23.227  0.00  0.00    +0.000 A 
ATOM      9  C   UNL     1      -2.116  16.332  22.157  0.00  0.00    +0.000 A 
ATOM     10  C   UNL     1      -2.540  15.424  21.192  0.00  0.00    +0.000 A 
ATOM     11  C   UNL     1      -2.171  14.084  21.291  0.00  0.00    +0.000 A 
ENDBRANCH   4   6
BRANCH   5  12
ATOM     12  N   UNL     1       0.720  12.215  20.481  0.00  0.00    +0.000 N 
ATOM     13  C   UNL     1       1.890  12.939  20.632  0.00  0.00    +0.000 A 
ATOM     14  C   UNL     1       2.323  13.373  19.400  0.00  0.00    +0.000 A 
ATOM     15  C   UNL     1       1.405  12.892  18.444  0.00  0.00    +0.000 A 
ATOM     16  C   UNL     1       0.433  12.197  19.128  0.00  0.00    +0.000 A 
ENDBRANCH   5  12
BRANCH   1  18
ATOM     17  N   UNL     1       0.878   8.800  20.232  0.00  0.00    +0.000 N 
ATOM     18  C   UNL     1       1.049   9.349  21.490  0.00  0.00    +0.000 C 
ATOM     19  O   UNL     1       1.955   9.035  22.256  0.00  0.00    +0.000 OA
ATOM     20  H   UNL     1       0.065   9.055  19.688  0.00  0.00    +0.000 HD
BRANCH  17  24
ATOM     21  C   UNL     1       3.596   6.073  18.432  0.00  0.00    +0.000 A 
ATOM     22  C   UNL     1       2.962   5.732  19.615  0.00  0.00    +0.000 A 
ATOM     23  C   UNL     1       2.064   6.615  20.208  0.00  0.00    +0.000 A 
ATOM     24  C   UNL     1       1.785   7.870  19.645  0.00  0.00    +0.000 A 
ATOM     25  C   UNL     1       2.448   8.217  18.464  0.00  0.00    +0.000 A 
ATOM     26  C   UNL     1       3.353   7.323  17.863  0.00  0.00    +0.000 A 
BRANCH  21  27
ATOM     27  O   UNL     1       4.436   5.114  17.950  0.00  0.00    +0.000 OA
BRANCH  27  29
ATOM     28  C   UNL     1       6.602   5.484  18.847  0.00  0.00    +0.000 C 
ATOM     29  C   UNL     1       5.379   4.587  18.878  0.00  0.00    +0.000 C 
ENDBRANCH  27  29
ENDBRANCH  21  27
ENDBRANCH  17  24
ENDBRANCH   1  18
TORSDOF 6
ENDMDL
MODEL 9
REMARK VINA RESULT:      -7.0      1.947      2.527
REMARK  Name = 
REMARK  7 active torsions:
REMARK  status: ('A' for Active; 'I' for Inactive)
REMARK    1  A    between atoms: C_1  and  C_2
REMARK    2  A    between atoms: C_2  and  O_3
REMARK    3  A    between atoms: O_3  and  C_4
REMARK    4  A    between atoms: C_7  and  N_8
REMARK    5  A    between atoms: C_9  and  C_11
REMARK    6  A    between atoms: N_14  and  C_15
REMARK    7  A    between atoms: C_21  and  N_22
REMARK                            x       y       z     vdW  Elec       q    Type
REMARK                         _______ _______ _______ _____ _____    ______ ____
ROOT
ATOM      1  C   UNL     1      -0.002  10.684  21.989  0.00  0.00    +0.000 A 
ATOM      2  C   UNL     1      -0.895  10.721  23.074  0.00  0.00    +0.000 A 
ATOM      3  N   UNL     1      -1.347  11.950  23.335  0.00  0.00    +0.000 NA
ATOM      4  N   UNL     1      -0.819  12.736  22.349  0.00  0.00    +0.000 N 
ATOM      5  C   UNL     1      -0.003  11.993  21.516  0.00  0.00    +0.000 A 
ENDROOT
BRANCH   4   6
ATOM      6  C   UNL     1      -1.206  14.104  22.258  0.00  0.00    +0.000 A 
ATOM      7  C   UNL     1      -2.019  14.525  21.198  0.00  0.00    +0.000 A 
ATOM      8  C   UNL     1      -2.479  15.844  21.156  0.00  0.00    +0.000 A 
ATOM      9  C   UNL     1      -2.117  16.749  22.156  0.00  0.00    +0.000 A 
ATOM     10  C   UNL     1      -1.276  16.345  23.188  0.00  0.00    +0.000 A 
ATOM     11  C   UNL     1      -0.804  15.035  23.227  0.00  0.00    +0.000 A 
ENDBRANCH   4   6
BRANCH   5  12
ATOM     12  N   UNL     1       0.799  12.505  20.489  0.00  0.00    +0.000 N 
ATOM     13  C   UNL     1       2.003  13.167  20.653  0.00  0.00    +0.000 A 
ATOM     14  C   UNL     1       2.491  13.543  19.421  0.00  0.00    +0.000 A 
ATOM     15  C   UNL     1       1.573  13.086  18.455  0.00  0.00    +0.000 A 
ATOM     16  C   UNL     1       0.546  12.464  19.130  0.00  0.00    +0.000 A 
ENDBRANCH   5  12
BRANCH   1  18
ATOM     17  N   UNL     1       0.693   9.010  20.363  0.00  0.00    +0.000 N 
ATOM     18  C   UNL     1       0.929   9.648  21.568  0.00  0.00    +0.000 C 
ATOM     19  O   UNL     1       1.850   9.361  22.326  0.00  0.00    +0.000 OA
ATOM     20  H   UNL     1      -0.130   9.252  19.829  0.00  0.00    +0.000 HD
BRANCH  17  24
ATOM     21  C   UNL     1       3.218   5.970  18.800  0.00  0.00    +0.000 A 
ATOM     22  C   UNL     1       3.082   7.168  18.119  0.00  0.00    +0.000 A 
ATOM     23  C   UNL     1       2.263   8.173  18.627  0.00  0.00    +0.000 A 
ATOM     24  C   UNL     1       1.546   8.005  19.821  0.00  0.00    +0.000 A 
ATOM     25  C   UNL     1       1.670   6.783  20.490  0.00  0.00    +0.000 A 
ATOM     26  C   UNL     1       2.499   5.769  19.978  0.00  0.00    +0.000 A 
BRANCH  21  27
ATOM     27  O   UNL     1       4.060   5.079  18.203  0.00  0.00    +0.000 OA
BRANCH  27  29
ATOM     28  C   UNL     1       2.835   3.271  17.277  0.00  0.00    +0.000 C 
ATOM     29  C   UNL     1       3.756   3.703  18.402  0.00  0.00    +0.000 C 
ENDBRANCH  27  29
ENDBRANCH  21  27
ENDBRANCH  17  24
ENDBRANCH   1  18
TORSDOF 6
ENDMDL
