MODEL 1
REMARK VINA RESULT:      -7.4      0.000      0.000
REMARK  Name = 
REMARK  6 active torsions:
REMARK  status: ('A' for Active; 'I' for Inactive)
REMARK    1  A    between atoms: C_1  and  O_2
REMARK    2  A    between atoms: O_2  and  C_3
REMARK    3  A    between atoms: C_4  and  O_5
REMARK    4  A    between atoms: C_9  and  O_10
REMARK    5  A    between atoms: C_14  and  C_15
REMARK    6  A    between atoms: C_18  and  O_19
REMARK                            x       y       z     vdW  Elec       q    Type
REMARK                         _______ _______ _______ _____ _____    ______ ____
ROOT
ATOM      1  C   UNL     1       0.669  10.622  21.240  0.00  0.00    +0.000 A 
ATOM      2  C   UNL     1       0.752   9.572  22.167  0.00  0.00    +0.000 A 
ATOM      3  C   UNL     1       1.216   8.311  21.811  0.00  0.00    +0.000 A 
ATOM      4  C   UNL     1       1.588   8.075  20.492  0.00  0.00    +0.000 A 
ATOM      5  C   UNL     1       1.555   9.116  19.561  0.00  0.00    +0.000 A 
ATOM      6  C   UNL     1       1.115  10.398  19.932  0.00  0.00    +0.000 A 
ATOM      7  C   UNL     1       2.019   8.836  18.191  0.00  0.00    +0.000 C 
ATOM      8  O   UNL     1       1.973   9.716  17.333  0.00  0.00    +0.000 OA
ATOM      9  C   UNL     1       2.606   7.488  17.932  0.00  0.00    +0.000 C 
ATOM     10  C   UNL     1       1.895   6.467  18.807  0.00  0.00    +0.000 C 
ATOM     11  O   UNL     1       2.006   6.806  20.198  0.00  0.00    +0.000 OA
ENDROOT
BRANCH  10  12
ATOM     12  C   UNL     1       2.521   5.103  18.580  0.00  0.00    +0.000 A 
ATOM     13  C   UNL     1       1.914   4.156  17.738  0.00  0.00    +0.000 A 
ATOM     14  C   UNL     1       2.447   2.874  17.602  0.00  0.00    +0.000 A 
ATOM     15  C   UNL     1       3.590   2.533  18.314  0.00  0.00    +0.000 A 
ATOM     16  C   UNL     1       4.215   3.456  19.146  0.00  0.00    +0.000 A 
ATOM     17  C   UNL     1       3.682   4.739  19.281  0.00  0.00    +0.000 A 
BRANCH  15  18
ATOM     18  O   UNL     1       4.129   1.283  18.232  0.00  0.00    +0.000 OA
ATOM     19  H   UNL     1       4.966   1.278  18.728  0.00  0.00    +0.000 HD
ENDBRANCH  15  18
ENDBRANCH  10  12
BRANCH   1  21
ATOM     20  C   UNL     1      -1.218  12.043  21.469  0.00  0.00    +0.000 C 
ATOM     21  O   UNL     1       0.156  11.788  21.754  0.00  0.00    +0.000 OA
ENDBRANCH   1  21
BRANCH   2  22
ATOM     22  O   UNL     1       0.347   9.761  23.461  0.00  0.00    +0.000 OA
ATOM     23  H   UNL     1      -0.552   9.378  23.509  0.00  0.00    +0.000 HD
ENDBRANCH   2  22
BRANCH   6  24
ATOM     24  O   UNL     1       1.145  11.435  19.033  0.00  0.00    +0.000 OA
ATOM     25  H   UNL     1       1.304  11.075  18.132  0.00  0.00    +0.000 HD
ENDBRANCH   6  24
TORSDOF 5
ENDMDL
MODEL 2
REMARK VINA RESULT:      -7.4      1.190      1.223
REMARK  Name = 
REMARK  6 active torsions:
REMARK  status: ('A' for Active; 'I' for Inactive)
REMARK    1  A    between atoms: C_1  and  O_2
REMARK    2  A    between atoms: O_2  and  C_3
REMARK    3  A    between atoms: C_4  and  O_5
REMARK    4  A    between atoms: C_9  and  O_10
REMARK    5  A    between atoms: C_14  and  C_15
REMARK    6  A    between atoms: C_18  and  O_19
REMARK                            x       y       z     vdW  Elec       q    Type
REMARK                         _______ _______ _______ _____ _____    ______ ____
ROOT
ATOM      1  C   UNL     1       0.287  10.844  20.775  0.00  0.00    +0.000 A 
ATOM      2  C   UNL     1       0.394  10.031  21.913  0.00  0.00    +0.000 A 
ATOM      3  C   UNL     1       0.995   8.779  21.870  0.00  0.00    +0.000 A 
ATOM      4  C   UNL     1       1.486   8.306  20.657  0.00  0.00    +0.000 A 
ATOM      5  C   UNL     1       1.429   9.114  19.519  0.00  0.00    +0.000 A 
ATOM      6  C   UNL     1       0.849  10.393  19.574  0.00  0.00    +0.000 A 
ATOM      7  C   UNL     1       2.019   8.598  18.272  0.00  0.00    +0.000 C 
ATOM      8  O   UNL     1       1.958   9.264  17.240  0.00  0.00    +0.000 OA
ATOM      9  C   UNL     1       2.743   7.294  18.349  0.00  0.00    +0.000 C 
ATOM     10  C   UNL     1       2.063   6.415  19.387  0.00  0.00    +0.000 C 
ATOM     11  O   UNL     1       2.037   7.054  20.673  0.00  0.00    +0.000 OA
ENDROOT
BRANCH  10  12
ATOM     12  C   UNL     1       2.825   5.108  19.500  0.00  0.00    +0.000 A 
ATOM     13  C   UNL     1       2.325   4.039  20.263  0.00  0.00    +0.000 A 
ATOM     14  C   UNL     1       3.071   2.873  20.436  0.00  0.00    +0.000 A 
ATOM     15  C   UNL     1       4.325   2.774  19.847  0.00  0.00    +0.000 A 
ATOM     16  C   UNL     1       4.837   3.814  19.077  0.00  0.00    +0.000 A 
ATOM     17  C   UNL     1       4.092   4.980  18.905  0.00  0.00    +0.000 A 
BRANCH  15  18
ATOM     18  O   UNL     1       5.099   1.663  20.011  0.00  0.00    +0.000 OA
ATOM     19  H   UNL     1       5.769   1.854  20.690  0.00  0.00    +0.000 HD
ENDBRANCH  15  18
ENDBRANCH  10  12
BRANCH   1  21
ATOM     20  C   UNL     1       0.464  13.166  21.229  0.00  0.00    +0.000 C 
ATOM     21  O   UNL     1      -0.367  12.033  20.991  0.00  0.00    +0.000 OA
ENDBRANCH   1  21
BRANCH   2  22
ATOM     22  O   UNL     1      -0.123  10.449  23.111  0.00  0.00    +0.000 OA
ATOM     23  H   UNL     1      -1.066  10.636  22.933  0.00  0.00    +0.000 HD
ENDBRANCH   2  22
BRANCH   6  24
ATOM     24  O   UNL     1       0.853  11.211  18.472  0.00  0.00    +0.000 OA
ATOM     25  H   UNL     1       1.202  10.710  17.701  0.00  0.00    +0.000 HD
ENDBRANCH   6  24
TORSDOF 5
ENDMDL
MODEL 3
REMARK VINA RESULT:      -7.3      0.166      1.043
REMARK  Name = 
REMARK  6 active torsions:
REMARK  status: ('A' for Active; 'I' for Inactive)
REMARK    1  A    between atoms: C_1  and  O_2
REMARK    2  A    between atoms: O_2  and  C_3
REMARK    3  A    between atoms: C_4  and  O_5
REMARK    4  A    between atoms: C_9  and  O_10
REMARK    5  A    between atoms: C_14  and  C_15
REMARK    6  A    between atoms: C_18  and  O_19
REMARK                            x       y       z     vdW  Elec       q    Type
REMARK                         _______ _______ _______ _____ _____    ______ ____
ROOT
ATOM      1  C   UNL     1       0.614  10.727  21.245  0.00  0.00    +0.000 A 
ATOM      2  C   UNL     1       0.676   9.688  22.185  0.00  0.00    +0.000 A 
ATOM      3  C   UNL     1       1.136   8.420  21.852  0.00  0.00    +0.000 A 
ATOM      4  C   UNL     1       1.525   8.164  20.541  0.00  0.00    +0.000 A 
ATOM      5  C   UNL     1       1.511   9.194  19.597  0.00  0.00    +0.000 A 
ATOM      6  C   UNL     1       1.076  10.484  19.946  0.00  0.00    +0.000 A 
ATOM      7  C   UNL     1       1.992   8.894  18.237  0.00  0.00    +0.000 C 
ATOM      8  O   UNL     1       1.964   9.764  17.367  0.00  0.00    +0.000 OA
ATOM      9  C   UNL     1       2.574   7.538  18.003  0.00  0.00    +0.000 C 
ATOM     10  C   UNL     1       1.844   6.533  18.880  0.00  0.00    +0.000 C 
ATOM     11  O   UNL     1       1.938   6.890  20.268  0.00  0.00    +0.000 OA
ENDROOT
BRANCH  10  12
ATOM     12  C   UNL     1       2.464   5.162  18.678  0.00  0.00    +0.000 A 
ATOM     13  C   UNL     1       3.713   4.842  19.235  0.00  0.00    +0.000 A 
ATOM     14  C   UNL     1       4.318   3.612  18.973  0.00  0.00    +0.000 A 
ATOM     15  C   UNL     1       3.675   2.699  18.147  0.00  0.00    +0.000 A 
ATOM     16  C   UNL     1       2.432   2.989  17.593  0.00  0.00    +0.000 A 
ATOM     17  C   UNL     1       1.827   4.219  17.855  0.00  0.00    +0.000 A 
BRANCH  15  18
ATOM     18  O   UNL     1       4.241   1.496  17.844  0.00  0.00    +0.000 OA
ATOM     19  H   UNL     1       4.970   1.651  17.218  0.00  0.00    +0.000 HD
ENDBRANCH  15  18
ENDBRANCH  10  12
BRANCH   1  21
ATOM     20  C   UNL     1      -1.265  12.166  21.425  0.00  0.00    +0.000 C 
ATOM     21  O   UNL     1       0.101  11.903  21.737  0.00  0.00    +0.000 OA
ENDBRANCH   1  21
BRANCH   2  22
ATOM     22  O   UNL     1       0.255   9.896  23.472  0.00  0.00    +0.000 OA
ATOM     23  H   UNL     1      -0.113  10.802  23.479  0.00  0.00    +0.000 HD
ENDBRANCH   2  22
BRANCH   6  24
ATOM     24  O   UNL     1       1.125  11.509  19.035  0.00  0.00    +0.000 OA
ATOM     25  H   UNL     1       1.812  12.154  19.314  0.00  0.00    +0.000 HD
ENDBRANCH   6  24
TORSDOF 5
ENDMDL
MODEL 4
REMARK VINA RESULT:      -7.3      1.240      1.397
REMARK  Name = 
REMARK  6 active torsions:
REMARK  status: ('A' for Active; 'I' for Inactive)
REMARK    1  A    between atoms: C_1  and  O_2
REMARK    2  A    between atoms: O_2  and  C_3
REMARK    3  A    between atoms: C_4  and  O_5
REMARK    4  A    between atoms: C_9  and  O_10
REMARK    5  A    between atoms: C_14  and  C_15
REMARK    6  A    between atoms: C_18  and  O_19
REMARK                            x       y       z     vdW  Elec       q    Type
REMARK                         _______ _______ _______ _____ _____    ______ ____
ROOT
ATOM      1  C   UNL     1       0.057  10.936  20.872  0.00  0.00    +0.000 A 
ATOM      2  C   UNL     1       0.242  10.162  22.027  0.00  0.00    +0.000 A 
ATOM      3  C   UNL     1       0.923   8.951  22.000  0.00  0.00    +0.000 A 
ATOM      4  C   UNL     1       1.417   8.479  20.789  0.00  0.00    +0.000 A 
ATOM      5  C   UNL     1       1.282   9.252  19.633  0.00  0.00    +0.000 A 
ATOM      6  C   UNL     1       0.620  10.491  19.670  0.00  0.00    +0.000 A 
ATOM      7  C   UNL     1       1.876   8.742  18.385  0.00  0.00    +0.000 C 
ATOM      8  O   UNL     1       1.750   9.376  17.338  0.00  0.00    +0.000 OA
ATOM      9  C   UNL     1       2.686   7.491  18.477  0.00  0.00    +0.000 C 
ATOM     10  C   UNL     1       2.089   6.597  19.552  0.00  0.00    +0.000 C 
ATOM     11  O   UNL     1       2.050   7.267  20.822  0.00  0.00    +0.000 OA
ENDROOT
BRANCH  10  12
ATOM     12  C   UNL     1       2.937   5.345  19.680  0.00  0.00    +0.000 A 
ATOM     13  C   UNL     1       4.219   5.276  19.109  0.00  0.00    +0.000 A 
ATOM     14  C   UNL     1       4.959   4.093  19.153  0.00  0.00    +0.000 A 
ATOM     15  C   UNL     1       4.414   2.972  19.766  0.00  0.00    +0.000 A 
ATOM     16  C   UNL     1       3.151   3.020  20.348  0.00  0.00    +0.000 A 
ATOM     17  C   UNL     1       2.412   4.202  20.304  0.00  0.00    +0.000 A 
BRANCH  15  18
ATOM     18  O   UNL     1       5.090   1.789  19.809  0.00  0.00    +0.000 OA
ATOM     19  H   UNL     1       4.867   1.340  20.642  0.00  0.00    +0.000 HD
ENDBRANCH  15  18
ENDBRANCH  10  12
BRANCH   1  21
ATOM     20  C   UNL     1       0.092  13.275  21.271  0.00  0.00    +0.000 C 
ATOM     21  O   UNL     1      -0.668  12.085  21.073  0.00  0.00    +0.000 OA
ENDBRANCH   1  21
BRANCH   2  22
ATOM     22  O   UNL     1      -0.274  10.577  23.226  0.00  0.00    +0.000 OA
ATOM     23  H   UNL     1      -1.220  10.753  23.052  0.00  0.00    +0.000 HD
ENDBRANCH   2  22
BRANCH   6  24
ATOM     24  O   UNL     1       0.546  11.278  18.548  0.00  0.00    +0.000 OA
ATOM     25  H   UNL     1       1.428  11.304  18.115  0.00  0.00    +0.000 HD
ENDBRANCH   6  24
TORSDOF 5
ENDMDL
MODEL 5
REMARK VINA RESULT:      -7.2      1.723      7.152
REMARK  Name = 
REMARK  6 active torsions:
REMARK  status: ('A' for Active; 'I' for Inactive)
REMARK    1  A    between atoms: C_1  and  O_2
REMARK    2  A    between atoms: O_2  and  C_3
REMARK    3  A    between atoms: C_4  and  O_5
REMARK    4  A    between atoms: C_9  and  O_10
REMARK    5  A    between atoms: C_14  and  C_15
REMARK    6  A    between atoms: C_18  and  O_19
REMARK                            x       y       z     vdW  Elec       q    Type
REMARK                         _______ _______ _______ _____ _____    ______ ____
ROOT
ATOM      1  C   UNL     1       3.408   3.870  19.289  0.00  0.00    +0.000 A 
ATOM      2  C   UNL     1       2.684   3.724  20.482  0.00  0.00    +0.000 A 
ATOM      3  C   UNL     1       1.957   4.772  21.035  0.00  0.00    +0.000 A 
ATOM      4  C   UNL     1       1.966   6.010  20.400  0.00  0.00    +0.000 A 
ATOM      5  C   UNL     1       2.645   6.167  19.190  0.00  0.00    +0.000 A 
ATOM      6  C   UNL     1       3.353   5.097  18.618  0.00  0.00    +0.000 A 
ATOM      7  C   UNL     1       2.574   7.478  18.521  0.00  0.00    +0.000 C 
ATOM      8  O   UNL     1       3.187   7.668  17.471  0.00  0.00    +0.000 OA
ATOM      9  C   UNL     1       1.678   8.506  19.129  0.00  0.00    +0.000 C 
ATOM     10  C   UNL     1       1.682   8.330  20.639  0.00  0.00    +0.000 C 
ATOM     11  O   UNL     1       1.258   7.008  21.010  0.00  0.00    +0.000 OA
ENDROOT
BRANCH  10  12
ATOM     12  C   UNL     1       0.736   9.344  21.256  0.00  0.00    +0.000 A 
ATOM     13  C   UNL     1       0.493  10.581  20.637  0.00  0.00    +0.000 A 
ATOM     14  C   UNL     1      -0.307  11.544  21.252  0.00  0.00    +0.000 A 
ATOM     15  C   UNL     1      -0.866  11.272  22.495  0.00  0.00    +0.000 A 
ATOM     16  C   UNL     1      -0.649  10.049  23.123  0.00  0.00    +0.000 A 
ATOM     17  C   UNL     1       0.152   9.087  22.508  0.00  0.00    +0.000 A 
BRANCH  15  18
ATOM     18  O   UNL     1      -1.634  12.194  23.143  0.00  0.00    +0.000 OA
ATOM     19  H   UNL     1      -2.560  12.060  22.879  0.00  0.00    +0.000 HD
ENDBRANCH  15  18
ENDBRANCH  10  12
BRANCH   1  21
ATOM     20  C   UNL     1       3.427   1.890  17.982  0.00  0.00    +0.000 C 
ATOM     21  O   UNL     1       4.096   2.744  18.907  0.00  0.00    +0.000 OA
ENDBRANCH   1  21
BRANCH   2  22
ATOM     22  O   UNL     1       2.695   2.531  21.155  0.00  0.00    +0.000 OA
ATOM     23  H   UNL     1       2.783   1.846  20.463  0.00  0.00    +0.000 HD
ENDBRANCH   2  22
BRANCH   6  24
ATOM     24  O   UNL     1       3.964   5.235  17.397  0.00  0.00    +0.000 OA
ATOM     25  H   UNL     1       3.382   4.858  16.700  0.00  0.00    +0.000 HD
ENDBRANCH   6  24
TORSDOF 5
ENDMDL
MODEL 6
REMARK VINA RESULT:      -7.1      1.740      7.162
REMARK  Name = 
REMARK  6 active torsions:
REMARK  status: ('A' for Active; 'I' for Inactive)
REMARK    1  A    between atoms: C_1  and  O_2
REMARK    2  A    between atoms: O_2  and  C_3
REMARK    3  A    between atoms: C_4  and  O_5
REMARK    4  A    between atoms: C_9  and  O_10
REMARK    5  A    between atoms: C_14  and  C_15
REMARK    6  A    between atoms: C_18  and  O_19
REMARK                            x       y       z     vdW  Elec       q    Type
REMARK                         _______ _______ _______ _____ _____    ______ ____
ROOT
ATOM      1  C   UNL     1       3.399   3.830  19.313  0.00  0.00    +0.000 A 
ATOM      2  C   UNL     1       2.675   3.692  20.507  0.00  0.00    +0.000 A 
ATOM      3  C   UNL     1       1.956   4.747  21.056  0.00  0.00    +0.000 A 
ATOM      4  C   UNL     1       1.971   5.982  20.418  0.00  0.00    +0.000 A 
ATOM      5  C   UNL     1       2.650   6.132  19.206  0.00  0.00    +0.000 A 
ATOM      6  C   UNL     1       3.351   5.055  18.637  0.00  0.00    +0.000 A 
ATOM      7  C   UNL     1       2.586   7.441  18.533  0.00  0.00    +0.000 C 
ATOM      8  O   UNL     1       3.199   7.624  17.483  0.00  0.00    +0.000 OA
ATOM      9  C   UNL     1       1.697   8.477  19.139  0.00  0.00    +0.000 C 
ATOM     10  C   UNL     1       1.702   8.305  20.650  0.00  0.00    +0.000 C 
ATOM     11  O   UNL     1       1.270   6.987  21.025  0.00  0.00    +0.000 OA
ENDROOT
BRANCH  10  12
ATOM     12  C   UNL     1       0.762   9.326  21.264  0.00  0.00    +0.000 A 
ATOM     13  C   UNL     1       0.351   9.221  22.604  0.00  0.00    +0.000 A 
ATOM     14  C   UNL     1      -0.581  10.112  23.137  0.00  0.00    +0.000 A 
ATOM     15  C   UNL     1      -1.109  11.111  22.329  0.00  0.00    +0.000 A 
ATOM     16  C   UNL     1      -0.709  11.242  21.003  0.00  0.00    +0.000 A 
ATOM     17  C   UNL     1       0.223  10.351  20.469  0.00  0.00    +0.000 A 
BRANCH  15  18
ATOM     18  O   UNL     1      -2.041  11.986  22.802  0.00  0.00    +0.000 OA
ATOM     19  H   UNL     1      -2.584  12.288  22.053  0.00  0.00    +0.000 HD
ENDBRANCH  15  18
ENDBRANCH  10  12
BRANCH   1  21
ATOM     20  C   UNL     1       3.410   1.851  18.004  0.00  0.00    +0.000 C 
ATOM     21  O   UNL     1       4.080   2.699  18.933  0.00  0.00    +0.000 OA
ENDBRANCH   1  21
BRANCH   2  22
ATOM     22  O   UNL     1       2.680   2.502  21.183  0.00  0.00    +0.000 OA
ATOM     23  H   UNL     1       2.289   1.852  20.565  0.00  0.00    +0.000 HD
ENDBRANCH   2  22
BRANCH   6  24
ATOM     24  O   UNL     1       3.962   5.186  17.415  0.00  0.00    +0.000 OA
ATOM     25  H   UNL     1       3.616   5.989  16.967  0.00  0.00    +0.000 HD
ENDBRANCH   6  24
TORSDOF 5
ENDMDL
MODEL 7
REMARK VINA RESULT:      -6.9      1.597      1.935
REMARK  Name = 
REMARK  6 active torsions:
REMARK  status: ('A' for Active; 'I' for Inactive)
REMARK    1  A    between atoms: C_1  and  O_2
REMARK    2  A    between atoms: O_2  and  C_3
REMARK    3  A    between atoms: C_4  and  O_5
REMARK    4  A    between atoms: C_9  and  O_10
REMARK    5  A    between atoms: C_14  and  C_15
REMARK    6  A    between atoms: C_18  and  O_19
REMARK                            x       y       z     vdW  Elec       q    Type
REMARK                         _______ _______ _______ _____ _____    ______ ____
ROOT
ATOM      1  C   UNL     1      -0.491  10.453  21.801  0.00  0.00    +0.000 A 
ATOM      2  C   UNL     1       0.229   9.524  22.568  0.00  0.00    +0.000 A 
ATOM      3  C   UNL     1       1.125   8.632  21.992  0.00  0.00    +0.000 A 
ATOM      4  C   UNL     1       1.299   8.642  20.612  0.00  0.00    +0.000 A 
ATOM      5  C   UNL     1       0.625   9.586  19.833  0.00  0.00    +0.000 A 
ATOM      6  C   UNL     1      -0.257  10.508  20.422  0.00  0.00    +0.000 A 
ATOM      7  C   UNL     1       0.888   9.602  18.383  0.00  0.00    +0.000 C 
ATOM      8  O   UNL     1       0.290  10.394  17.657  0.00  0.00    +0.000 OA
ATOM      9  C   UNL     1       1.950   8.684  17.872  0.00  0.00    +0.000 C 
ATOM     10  C   UNL     1       1.952   7.419  18.716  0.00  0.00    +0.000 C 
ATOM     11  O   UNL     1       2.170   7.719  20.104  0.00  0.00    +0.000 OA
ENDROOT
BRANCH  10  12
ATOM     12  C   UNL     1       3.062   6.504  18.229  0.00  0.00    +0.000 A 
ATOM     13  C   UNL     1       4.112   6.996  17.436  0.00  0.00    +0.000 A 
ATOM     14  C   UNL     1       5.080   6.135  16.918  0.00  0.00    +0.000 A 
ATOM     15  C   UNL     1       4.997   4.775  17.188  0.00  0.00    +0.000 A 
ATOM     16  C   UNL     1       3.972   4.266  17.979  0.00  0.00    +0.000 A 
ATOM     17  C   UNL     1       3.004   5.127  18.498  0.00  0.00    +0.000 A 
BRANCH  15  18
ATOM     18  O   UNL     1       5.906   3.895  16.681  0.00  0.00    +0.000 OA
ATOM     19  H   UNL     1       6.427   4.353  15.998  0.00  0.00    +0.000 HD
ENDBRANCH  15  18
ENDBRANCH  10  12
BRANCH   1  21
ATOM     20  C   UNL     1      -0.944  12.578  22.754  0.00  0.00    +0.000 C 
ATOM     21  O   UNL     1      -1.357  11.233  22.527  0.00  0.00    +0.000 OA
ENDBRANCH   1  21
BRANCH   2  22
ATOM     22  O   UNL     1       0.043   9.458  23.923  0.00  0.00    +0.000 OA
ATOM     23  H   UNL     1       0.543   8.669  24.213  0.00  0.00    +0.000 HD
ENDBRANCH   2  22
BRANCH   6  24
ATOM     24  O   UNL     1      -0.866  11.476  19.663  0.00  0.00    +0.000 OA
ATOM     25  H   UNL     1      -1.778  11.622  20.001  0.00  0.00    +0.000 HD
ENDBRANCH   6  24
TORSDOF 5
ENDMDL
MODEL 8
REMARK VINA RESULT:      -6.9      2.303      3.338
REMARK  Name = 
REMARK  6 active torsions:
REMARK  status: ('A' for Active; 'I' for Inactive)
REMARK    1  A    between atoms: C_1  and  O_2
REMARK    2  A    between atoms: O_2  and  C_3
REMARK    3  A    between atoms: C_4  and  O_5
REMARK    4  A    between atoms: C_9  and  O_10
REMARK    5  A    between atoms: C_14  and  C_15
REMARK    6  A    between atoms: C_18  and  O_19
REMARK                            x       y       z     vdW  Elec       q    Type
REMARK                         _______ _______ _______ _____ _____    ______ ____
ROOT
ATOM      1  C   UNL     1       0.828  10.314  19.946  0.00  0.00    +0.000 A 
ATOM      2  C   UNL     1       1.310  10.719  18.692  0.00  0.00    +0.000 A 
ATOM      3  C   UNL     1       2.024   9.860  17.866  0.00  0.00    +0.000 A 
ATOM      4  C   UNL     1       2.290   8.566  18.304  0.00  0.00    +0.000 A 
ATOM      5  C   UNL     1       1.785   8.128  19.530  0.00  0.00    +0.000 A 
ATOM      6  C   UNL     1       1.035   8.990  20.348  0.00  0.00    +0.000 A 
ATOM      7  C   UNL     1       2.037   6.730  19.923  0.00  0.00    +0.000 C 
ATOM      8  O   UNL     1       1.638   6.315  21.010  0.00  0.00    +0.000 OA
ATOM      9  C   UNL     1       2.713   5.851  18.923  0.00  0.00    +0.000 C 
ATOM     10  C   UNL     1       3.691   6.690  18.115  0.00  0.00    +0.000 C 
ATOM     11  O   UNL     1       3.025   7.780  17.460  0.00  0.00    +0.000 OA
ENDROOT
BRANCH  10  12
ATOM     12  C   UNL     1       4.346   5.808  17.067  0.00  0.00    +0.000 A 
ATOM     13  C   UNL     1       4.333   4.408  17.185  0.00  0.00    +0.000 A 
ATOM     14  C   UNL     1       5.012   3.607  16.266  0.00  0.00    +0.000 A 
ATOM     15  C   UNL     1       5.710   4.207  15.225  0.00  0.00    +0.000 A 
ATOM     16  C   UNL     1       5.728   5.591  15.081  0.00  0.00    +0.000 A 
ATOM     17  C   UNL     1       5.050   6.392  16.000  0.00  0.00    +0.000 A 
BRANCH  15  18
ATOM     18  O   UNL     1       6.409   3.464  14.320  0.00  0.00    +0.000 OA
ATOM     19  H   UNL     1       6.861   4.072  13.710  0.00  0.00    +0.000 HD
ENDBRANCH  15  18
ENDBRANCH  10  12
BRANCH   1  21
ATOM     20  C   UNL     1      -1.226  11.412  20.402  0.00  0.00    +0.000 C 
ATOM     21  O   UNL     1       0.174  11.301  20.644  0.00  0.00    +0.000 OA
ENDBRANCH   1  21
BRANCH   2  22
ATOM     22  O   UNL     1       1.105  12.001  18.256  0.00  0.00    +0.000 OA
ATOM     23  H   UNL     1       1.887  12.214  17.708  0.00  0.00    +0.000 HD
ENDBRANCH   2  22
BRANCH   6  24
ATOM     24  O   UNL     1       0.484   8.537  21.521  0.00  0.00    +0.000 OA
ATOM     25  H   UNL     1       1.084   7.869  21.921  0.00  0.00    +0.000 HD
ENDBRANCH   6  24
TORSDOF 5
ENDMDL
MODEL 9
REMARK VINA RESULT:      -6.9      2.382      3.425
REMARK  Name = 
REMARK  6 active torsions:
REMARK  status: ('A' for Active; 'I' for Inactive)
REMARK    1  A    between atoms: C_1  and  O_2
REMARK    2  A    between atoms: O_2  and  C_3
REMARK    3  A    between atoms: C_4  and  O_5
REMARK    4  A    between atoms: C_9  and  O_10
REMARK    5  A    between atoms: C_14  and  C_15
REMARK    6  A    between atoms: C_18  and  O_19
REMARK                            x       y       z     vdW  Elec       q    Type
REMARK                         _______ _______ _______ _____ _____    ______ ____
ROOT
ATOM      1  C   UNL     1       0.863  10.204  19.830  0.00  0.00    +0.000 A 
ATOM      2  C   UNL     1       1.392  10.632  18.604  0.00  0.00    +0.000 A 
ATOM      3  C   UNL     1       2.157   9.797  17.800  0.00  0.00    +0.000 A 
ATOM      4  C   UNL     1       2.429   8.503  18.234  0.00  0.00    +0.000 A 
ATOM      5  C   UNL     1       1.878   8.040  19.431  0.00  0.00    +0.000 A 
ATOM      6  C   UNL     1       1.077   8.878  20.226  0.00  0.00    +0.000 A 
ATOM      7  C   UNL     1       2.139   6.643  19.819  0.00  0.00    +0.000 C 
ATOM      8  O   UNL     1       1.701   6.207  20.883  0.00  0.00    +0.000 OA
ATOM      9  C   UNL     1       2.874   5.789  18.840  0.00  0.00    +0.000 C 
ATOM     10  C   UNL     1       3.871   6.655  18.085  0.00  0.00    +0.000 C 
ATOM     11  O   UNL     1       3.214   7.741  17.414  0.00  0.00    +0.000 OA
ENDROOT
BRANCH  10  12
ATOM     12  C   UNL     1       4.587   5.798  17.057  0.00  0.00    +0.000 A 
ATOM     13  C   UNL     1       5.155   6.369  15.905  0.00  0.00    +0.000 A 
ATOM     14  C   UNL     1       5.733   5.568  14.920  0.00  0.00    +0.000 A 
ATOM     15  C   UNL     1       5.742   4.188  15.084  0.00  0.00    +0.000 A 
ATOM     16  C   UNL     1       5.197   3.600  16.221  0.00  0.00    +0.000 A 
ATOM     17  C   UNL     1       4.618   4.402  17.205  0.00  0.00    +0.000 A 
BRANCH  15  18
ATOM     18  O   UNL     1       6.274   3.366  14.135  0.00  0.00    +0.000 OA
ATOM     19  H   UNL     1       5.929   2.468  14.281  0.00  0.00    +0.000 HD
ENDBRANCH  15  18
ENDBRANCH  10  12
BRANCH   1  21
ATOM     20  C   UNL     1      -1.233  11.246  20.221  0.00  0.00    +0.000 C 
ATOM     21  O   UNL     1       0.161  11.169  20.510  0.00  0.00    +0.000 OA
ENDBRANCH   1  21
BRANCH   2  22
ATOM     22  O   UNL     1       1.182  11.915  18.173  0.00  0.00    +0.000 OA
ATOM     23  H   UNL     1       1.885  12.084  17.514  0.00  0.00    +0.000 HD
ENDBRANCH   2  22
BRANCH   6  24
ATOM     24  O   UNL     1       0.484   8.401  21.368  0.00  0.00    +0.000 OA
ATOM     25  H   UNL     1       1.044   8.633  22.142  0.00  0.00    +0.000 HD
ENDBRANCH   6  24
TORSDOF 5
ENDMDL
