MODEL 1
REMARK VINA RESULT:      -8.1      0.000      0.000
REMARK  Name = 
REMARK  8 active torsions:
REMARK  status: ('A' for Active; 'I' for Inactive)
REMARK    1  A    between atoms: C_2  and  C_5
REMARK    2  A    between atoms: N_3  and  O_4
REMARK    3  A    between atoms: C_5  and  C_6
REMARK    4  A    between atoms: C_5  and  C_20
REMARK    5  A    between atoms: C_6  and  C_7
REMARK    6  A    between atoms: C_11  and  O_12
REMARK    7  A    between atoms: O_12  and  C_13
REMARK    8  A    between atoms: N_25  and  C_26
REMARK                            x       y       z     vdW  Elec       q    Type
REMARK                         _______ _______ _______ _____ _____    ______ ____
ROOT
ATOM      1  C   UNL     1       1.180   9.246  19.323  0.00  0.00    +0.000 C 
ENDROOT
BRANCH   1   2
ATOM      2  C   UNL     1       0.434  10.177  20.286  0.00  0.00    +0.000 C 
ATOM      3  O   UNL     1       1.055  10.751  21.187  0.00  0.00    +0.000 OA
ATOM      4  N   UNL     1      -0.905  10.450  20.093  0.00  0.00    +0.000 N 
ATOM      5  C   UNL     1      -1.513  11.579  20.828  0.00  0.00    +0.000 C 
ATOM      6  C   UNL     1      -2.144  12.615  19.873  0.00  0.00    +0.000 C 
ATOM      7  N   UNL     1      -3.009  11.985  18.857  0.00  0.00    +0.000 N 
ATOM      8  C   UNL     1      -2.429  10.822  18.156  0.00  0.00    +0.000 C 
ATOM      9  C   UNL     1      -1.845   9.807  19.165  0.00  0.00    +0.000 C 
BRANCH   7  10
ATOM     10  C   UNL     1      -4.389  12.128  18.887  0.00  0.00    +0.000 A 
ATOM     11  C   UNL     1      -5.168  11.715  17.793  0.00  0.00    +0.000 A 
ATOM     12  C   UNL     1      -6.558  11.866  17.776  0.00  0.00    +0.000 A 
ATOM     13  C   UNL     1      -7.208  12.436  18.865  0.00  0.00    +0.000 A 
ATOM     14  C   UNL     1      -6.462  12.858  19.961  0.00  0.00    +0.000 A 
ATOM     15  C   UNL     1      -5.069  12.709  19.965  0.00  0.00    +0.000 A 
ENDBRANCH   7  10
ENDBRANCH   1   2
BRANCH   1  17
ATOM     16  O   UNL     1       2.295   9.272  17.185  0.00  0.00    +0.000 OA
ATOM     17  C   UNL     1       1.860   9.927  18.138  0.00  0.00    +0.000 C 
ATOM     18  N   UNL     1       1.952  11.289  18.142  0.00  0.00    +0.000 N 
ATOM     19  H   UNL     1       1.704  11.871  18.947  0.00  0.00    +0.000 HD
BRANCH  18  20
ATOM     20  O   UNL     1       2.682  11.892  17.096  0.00  0.00    +0.000 OA
ATOM     21  H   UNL     1       2.559  12.848  17.278  0.00  0.00    +0.000 HD
ENDBRANCH  18  20
ENDBRANCH   1  17
BRANCH   1  22
ATOM     22  C   UNL     1       2.187   8.313  20.006  0.00  0.00    +0.000 C 
BRANCH  22  23
ATOM     23  C   UNL     1       2.033   6.824  19.752  0.00  0.00    +0.000 A 
ATOM     24  C   UNL     1       1.469   5.973  20.709  0.00  0.00    +0.000 A 
ATOM     25  C   UNL     1       1.444   4.589  20.505  0.00  0.00    +0.000 A 
ATOM     26  C   UNL     1       2.015   4.037  19.359  0.00  0.00    +0.000 A 
ATOM     27  C   UNL     1       2.599   4.879  18.405  0.00  0.00    +0.000 A 
ATOM     28  C   UNL     1       2.544   6.268  18.575  0.00  0.00    +0.000 A 
BRANCH  27  29
ATOM     29  O   UNL     1       3.195   4.267  17.328  0.00  0.00    +0.000 OA
BRANCH  29  30
ATOM     30  C   UNL     1       4.570   4.354  17.195  0.00  0.00    +0.000 A 
ATOM     31  C   UNL     1       5.444   4.538  18.273  0.00  0.00    +0.000 A 
ATOM     32  C   UNL     1       6.812   4.696  18.047  0.00  0.00    +0.000 A 
ATOM     33  C   UNL     1       7.317   4.597  16.753  0.00  0.00    +0.000 A 
ATOM     34  C   UNL     1       6.458   4.338  15.685  0.00  0.00    +0.000 A 
ATOM     35  C   UNL     1       5.083   4.220  15.907  0.00  0.00    +0.000 A 
ENDBRANCH  29  30
ENDBRANCH  27  29
ENDBRANCH  22  23
ENDBRANCH   1  22
TORSDOF 8
ENDMDL
MODEL 2
REMARK VINA RESULT:      -7.8      3.517     10.494
REMARK  Name = 
REMARK  8 active torsions:
REMARK  status: ('A' for Active; 'I' for Inactive)
REMARK    1  A    between atoms: C_2  and  C_5
REMARK    2  A    between atoms: N_3  and  O_4
REMARK    3  A    between atoms: C_5  and  C_6
REMARK    4  A    between atoms: C_5  and  C_20
REMARK    5  A    between atoms: C_6  and  C_7
REMARK    6  A    between atoms: C_11  and  O_12
REMARK    7  A    between atoms: O_12  and  C_13
REMARK    8  A    between atoms: N_25  and  C_26
REMARK                            x       y       z     vdW  Elec       q    Type
REMARK                         _______ _______ _______ _____ _____    ______ ____
ROOT
ATOM      1  C   UNL     1       3.690   4.492  19.428  0.00  0.00    +0.000 C 
ENDROOT
BRANCH   1   2
ATOM      2  C   UNL     1       4.981   5.177  18.963  0.00  0.00    +0.000 C 
ATOM      3  O   UNL     1       5.768   5.631  19.801  0.00  0.00    +0.000 OA
ATOM      4  N   UNL     1       5.313   5.203  17.624  0.00  0.00    +0.000 N 
ATOM      5  C   UNL     1       6.691   5.577  17.241  0.00  0.00    +0.000 C 
ATOM      6  C   UNL     1       7.377   4.472  16.410  0.00  0.00    +0.000 C 
ATOM      7  N   UNL     1       6.525   3.990  15.307  0.00  0.00    +0.000 N 
ATOM      8  C   UNL     1       5.131   3.665  15.671  0.00  0.00    +0.000 C 
ATOM      9  C   UNL     1       4.488   4.821  16.470  0.00  0.00    +0.000 C 
BRANCH   7  10
ATOM     10  C   UNL     1       6.821   4.274  13.981  0.00  0.00    +0.000 A 
ATOM     11  C   UNL     1       6.290   3.479  12.951  0.00  0.00    +0.000 A 
ATOM     12  C   UNL     1       6.586   3.719  11.604  0.00  0.00    +0.000 A 
ATOM     13  C   UNL     1       7.425   4.771  11.255  0.00  0.00    +0.000 A 
ATOM     14  C   UNL     1       7.967   5.573  12.254  0.00  0.00    +0.000 A 
ATOM     15  C   UNL     1       7.671   5.320  13.600  0.00  0.00    +0.000 A 
ENDBRANCH   7  10
ENDBRANCH   1   2
BRANCH   1  17
ATOM     16  O   UNL     1       2.939   2.566  20.669  0.00  0.00    +0.000 OA
ATOM     17  C   UNL     1       3.863   3.112  20.056  0.00  0.00    +0.000 C 
ATOM     18  N   UNL     1       5.062   2.477  19.901  0.00  0.00    +0.000 N 
ATOM     19  H   UNL     1       5.890   2.921  19.496  0.00  0.00    +0.000 HD
BRANCH  18  20
ATOM     20  O   UNL     1       5.240   1.255  20.583  0.00  0.00    +0.000 OA
ATOM     21  H   UNL     1       5.359   1.549  21.512  0.00  0.00    +0.000 HD
ENDBRANCH  18  20
ENDBRANCH   1  17
BRANCH   1  22
ATOM     22  C   UNL     1       2.819   5.354  20.348  0.00  0.00    +0.000 C 
BRANCH  22  23
ATOM     23  C   UNL     1       2.288   6.657  19.778  0.00  0.00    +0.000 A 
ATOM     24  C   UNL     1       2.513   7.016  18.444  0.00  0.00    +0.000 A 
ATOM     25  C   UNL     1       2.119   8.272  17.969  0.00  0.00    +0.000 A 
ATOM     26  C   UNL     1       1.530   9.197  18.832  0.00  0.00    +0.000 A 
ATOM     27  C   UNL     1       1.320   8.853  20.173  0.00  0.00    +0.000 A 
ATOM     28  C   UNL     1       1.638   7.565  20.619  0.00  0.00    +0.000 A 
BRANCH  27  29
ATOM     29  O   UNL     1       0.789   9.830  20.981  0.00  0.00    +0.000 OA
BRANCH  29  30
ATOM     30  C   UNL     1      -0.222  10.628  20.478  0.00  0.00    +0.000 A 
ATOM     31  C   UNL     1      -1.003  10.285  19.368  0.00  0.00    +0.000 A 
ATOM     32  C   UNL     1      -1.951  11.181  18.873  0.00  0.00    +0.000 A 
ATOM     33  C   UNL     1      -2.171  12.390  19.528  0.00  0.00    +0.000 A 
ATOM     34  C   UNL     1      -1.447  12.703  20.679  0.00  0.00    +0.000 A 
ATOM     35  C   UNL     1      -0.470  11.822  21.151  0.00  0.00    +0.000 A 
ENDBRANCH  29  30
ENDBRANCH  27  29
ENDBRANCH  22  23
ENDBRANCH   1  22
TORSDOF 8
ENDMDL
MODEL 3
REMARK VINA RESULT:      -7.8      3.406      5.130
REMARK  Name = 
REMARK  8 active torsions:
REMARK  status: ('A' for Active; 'I' for Inactive)
REMARK    1  A    between atoms: C_2  and  C_5
REMARK    2  A    between atoms: N_3  and  O_4
REMARK    3  A    between atoms: C_5  and  C_6
REMARK    4  A    between atoms: C_5  and  C_20
REMARK    5  A    between atoms: C_6  and  C_7
REMARK    6  A    between atoms: C_11  and  O_12
REMARK    7  A    between atoms: O_12  and  C_13
REMARK    8  A    between atoms: N_25  and  C_26
REMARK                            x       y       z     vdW  Elec       q    Type
REMARK                         _______ _______ _______ _____ _____    ______ ____
ROOT
ATOM      1  C   UNL     1      -1.285  11.779  18.864  0.00  0.00    +0.000 C 
ENDROOT
BRANCH   1   2
ATOM      2  C   UNL     1      -0.950  13.247  19.151  0.00  0.00    +0.000 C 
ATOM      3  O   UNL     1      -0.283  13.893  18.335  0.00  0.00    +0.000 OA
ATOM      4  N   UNL     1      -1.466  13.875  20.267  0.00  0.00    +0.000 N 
ATOM      5  C   UNL     1      -1.393  15.349  20.350  0.00  0.00    +0.000 C 
ATOM      6  C   UNL     1      -2.789  15.985  20.521  0.00  0.00    +0.000 C 
ATOM      7  N   UNL     1      -3.576  15.332  21.584  0.00  0.00    +0.000 N 
ATOM      8  C   UNL     1      -3.609  13.856  21.539  0.00  0.00    +0.000 C 
ATOM      9  C   UNL     1      -2.182  13.278  21.402  0.00  0.00    +0.000 C 
BRANCH   7  10
ATOM     10  C   UNL     1      -3.847  15.971  22.785  0.00  0.00    +0.000 A 
ATOM     11  C   UNL     1      -2.799  16.491  23.564  0.00  0.00    +0.000 A 
ATOM     12  C   UNL     1      -3.032  17.120  24.792  0.00  0.00    +0.000 A 
ATOM     13  C   UNL     1      -4.331  17.247  25.271  0.00  0.00    +0.000 A 
ATOM     14  C   UNL     1      -5.388  16.740  24.523  0.00  0.00    +0.000 A 
ATOM     15  C   UNL     1      -5.144  16.105  23.298  0.00  0.00    +0.000 A 
ENDBRANCH   7  10
ENDBRANCH   1   2
BRANCH   1  17
ATOM     16  O   UNL     1      -3.454  11.088  18.069  0.00  0.00    +0.000 OA
ATOM     17  C   UNL     1      -2.339  11.540  17.787  0.00  0.00    +0.000 C 
ATOM     18  N   UNL     1      -2.031  11.867  16.498  0.00  0.00    +0.000 N 
ATOM     19  H   UNL     1      -1.094  12.145  16.192  0.00  0.00    +0.000 HD
BRANCH  18  20
ATOM     20  O   UNL     1      -2.974  11.535  15.503  0.00  0.00    +0.000 OA
ATOM     21  H   UNL     1      -2.461  11.662  14.676  0.00  0.00    +0.000 HD
ENDBRANCH  18  20
ENDBRANCH   1  17
BRANCH   1  22
ATOM     22  C   UNL     1      -0.063  10.902  18.569  0.00  0.00    +0.000 C 
BRANCH  22  23
ATOM     23  C   UNL     1       0.325   9.879  19.622  0.00  0.00    +0.000 A 
ATOM     24  C   UNL     1      -0.070  10.019  20.957  0.00  0.00    +0.000 A 
ATOM     25  C   UNL     1       0.396   9.131  21.934  0.00  0.00    +0.000 A 
ATOM     26  C   UNL     1       1.290   8.116  21.592  0.00  0.00    +0.000 A 
ATOM     27  C   UNL     1       1.706   7.981  20.262  0.00  0.00    +0.000 A 
ATOM     28  C   UNL     1       1.169   8.819  19.277  0.00  0.00    +0.000 A 
BRANCH  27  29
ATOM     29  O   UNL     1       2.632   6.999  20.005  0.00  0.00    +0.000 OA
BRANCH  29  30
ATOM     30  C   UNL     1       2.189   5.784  19.514  0.00  0.00    +0.000 A 
ATOM     31  C   UNL     1       2.266   5.415  18.166  0.00  0.00    +0.000 A 
ATOM     32  C   UNL     1       1.724   4.204  17.737  0.00  0.00    +0.000 A 
ATOM     33  C   UNL     1       1.168   3.326  18.664  0.00  0.00    +0.000 A 
ATOM     34  C   UNL     1       1.156   3.657  20.020  0.00  0.00    +0.000 A 
ATOM     35  C   UNL     1       1.664   4.888  20.443  0.00  0.00    +0.000 A 
ENDBRANCH  29  30
ENDBRANCH  27  29
ENDBRANCH  22  23
ENDBRANCH   1  22
TORSDOF 8
ENDMDL
MODEL 4
REMARK VINA RESULT:      -7.7      4.832      8.339
REMARK  Name = 
REMARK  8 active torsions:
REMARK  status: ('A' for Active; 'I' for Inactive)
REMARK    1  A    between atoms: C_2  and  C_5
REMARK    2  A    between atoms: N_3  and  O_4
REMARK    3  A    between atoms: C_5  and  C_6
REMARK    4  A    between atoms: C_5  and  C_20
REMARK    5  A    between atoms: C_6  and  C_7
REMARK    6  A    between atoms: C_11  and  O_12
REMARK    7  A    between atoms: O_12  and  C_13
REMARK    8  A    between atoms: N_25  and  C_26
REMARK                            x       y       z     vdW  Elec       q    Type
REMARK                         _______ _______ _______ _____ _____    ______ ____
ROOT
ATOM      1  C   UNL     1      -0.362  11.407  19.426  0.00  0.00    +0.000 C 
ENDROOT
BRANCH   1   2
ATOM      2  C   UNL     1      -0.264  11.690  20.930  0.00  0.00    +0.000 C 
ATOM      3  O   UNL     1       0.720  11.292  21.564  0.00  0.00    +0.000 OA
ATOM      4  N   UNL     1      -1.217  12.467  21.557  0.00  0.00    +0.000 N 
ATOM      5  C   UNL     1      -0.933  12.983  22.913  0.00  0.00    +0.000 C 
ATOM      6  C   UNL     1      -1.016  14.523  22.971  0.00  0.00    +0.000 C 
ATOM      7  N   UNL     1      -2.247  15.041  22.343  0.00  0.00    +0.000 N 
ATOM      8  C   UNL     1      -2.566  14.490  21.011  0.00  0.00    +0.000 C 
ATOM      9  C   UNL     1      -2.499  12.946  21.025  0.00  0.00    +0.000 C 
BRANCH   7  10
ATOM     10  C   UNL     1      -3.268  15.601  23.098  0.00  0.00    +0.000 A 
ATOM     11  C   UNL     1      -4.601  15.514  22.662  0.00  0.00    +0.000 A 
ATOM     12  C   UNL     1      -5.654  16.087  23.383  0.00  0.00    +0.000 A 
ATOM     13  C   UNL     1      -5.395  16.764  24.569  0.00  0.00    +0.000 A 
ATOM     14  C   UNL     1      -4.084  16.869  25.024  0.00  0.00    +0.000 A 
ATOM     15  C   UNL     1      -3.036  16.299  24.291  0.00  0.00    +0.000 A 
ENDBRANCH   7  10
ENDBRANCH   1   2
BRANCH   1  17
ATOM     16  O   UNL     1       1.591  10.285  18.565  0.00  0.00    +0.000 OA
ATOM     17  C   UNL     1       0.966  11.346  18.677  0.00  0.00    +0.000 C 
ATOM     18  N   UNL     1       1.438  12.492  18.104  0.00  0.00    +0.000 N 
ATOM     19  H   UNL     1       1.019  13.413  18.253  0.00  0.00    +0.000 HD
BRANCH  18  20
ATOM     20  O   UNL     1       2.718  12.440  17.515  0.00  0.00    +0.000 OA
ATOM     21  H   UNL     1       3.285  12.840  18.209  0.00  0.00    +0.000 HD
ENDBRANCH  18  20
ENDBRANCH   1  17
BRANCH   1  22
ATOM     22  C   UNL     1      -1.191  10.167  19.074  0.00  0.00    +0.000 C 
BRANCH  22  23
ATOM     23  C   UNL     1      -2.200  10.305  17.948  0.00  0.00    +0.000 A 
ATOM     24  C   UNL     1      -1.917   9.856  16.653  0.00  0.00    +0.000 A 
ATOM     25  C   UNL     1      -2.810  10.098  15.604  0.00  0.00    +0.000 A 
ATOM     26  C   UNL     1      -3.980  10.824  15.831  0.00  0.00    +0.000 A 
ATOM     27  C   UNL     1      -4.262  11.294  17.119  0.00  0.00    +0.000 A 
ATOM     28  C   UNL     1      -3.406  10.974  18.180  0.00  0.00    +0.000 A 
BRANCH  27  29
ATOM     29  O   UNL     1      -5.400  12.051  17.261  0.00  0.00    +0.000 OA
BRANCH  29  30
ATOM     30  C   UNL     1      -6.051  12.046  18.482  0.00  0.00    +0.000 A 
ATOM     31  C   UNL     1      -6.821  10.972  18.946  0.00  0.00    +0.000 A 
ATOM     32  C   UNL     1      -7.512  11.076  20.154  0.00  0.00    +0.000 A 
ATOM     33  C   UNL     1      -7.378  12.222  20.933  0.00  0.00    +0.000 A 
ATOM     34  C   UNL     1      -6.551  13.263  20.509  0.00  0.00    +0.000 A 
ATOM     35  C   UNL     1      -5.891  13.175  19.281  0.00  0.00    +0.000 A 
ENDBRANCH  29  30
ENDBRANCH  27  29
ENDBRANCH  22  23
ENDBRANCH   1  22
TORSDOF 8
ENDMDL
MODEL 5
REMARK VINA RESULT:      -7.7      3.002      4.067
REMARK  Name = 
REMARK  8 active torsions:
REMARK  status: ('A' for Active; 'I' for Inactive)
REMARK    1  A    between atoms: C_2  and  C_5
REMARK    2  A    between atoms: N_3  and  O_4
REMARK    3  A    between atoms: C_5  and  C_6
REMARK    4  A    between atoms: C_5  and  C_20
REMARK    5  A    between atoms: C_6  and  C_7
REMARK    6  A    between atoms: C_11  and  O_12
REMARK    7  A    between atoms: O_12  and  C_13
REMARK    8  A    between atoms: N_25  and  C_26
REMARK                            x       y       z     vdW  Elec       q    Type
REMARK                         _______ _______ _______ _____ _____    ______ ____
ROOT
ATOM      1  C   UNL     1       0.093  11.113  18.896  0.00  0.00    +0.000 C 
ENDROOT
BRANCH   1   2
ATOM      2  C   UNL     1       0.357  12.566  19.312  0.00  0.00    +0.000 C 
ATOM      3  O   UNL     1       1.136  13.259  18.649  0.00  0.00    +0.000 OA
ATOM      4  N   UNL     1      -0.340  13.128  20.362  0.00  0.00    +0.000 N 
ATOM      5  C   UNL     1      -0.302  14.595  20.535  0.00  0.00    +0.000 C 
ATOM      6  C   UNL     1      -1.716  15.213  20.515  0.00  0.00    +0.000 C 
ATOM      7  N   UNL     1      -2.653  14.497  21.402  0.00  0.00    +0.000 N 
ATOM      8  C   UNL     1      -2.658  13.026  21.273  0.00  0.00    +0.000 C 
ATOM      9  C   UNL     1      -1.219  12.465  21.334  0.00  0.00    +0.000 C 
BRANCH   7  10
ATOM     10  C   UNL     1      -3.121  15.067  22.577  0.00  0.00    +0.000 A 
ATOM     11  C   UNL     1      -3.906  16.232  22.535  0.00  0.00    +0.000 A 
ATOM     12  C   UNL     1      -4.377  16.849  23.700  0.00  0.00    +0.000 A 
ATOM     13  C   UNL     1      -4.072  16.308  24.943  0.00  0.00    +0.000 A 
ATOM     14  C   UNL     1      -3.294  15.157  25.015  0.00  0.00    +0.000 A 
ATOM     15  C   UNL     1      -2.821  14.551  23.844  0.00  0.00    +0.000 A 
ENDBRANCH   7  10
ENDBRANCH   1   2
BRANCH   1  17
ATOM     16  O   UNL     1      -1.695   9.832  17.906  0.00  0.00    +0.000 OA
ATOM     17  C   UNL     1      -1.077  10.903  17.939  0.00  0.00    +0.000 C 
ATOM     18  N   UNL     1      -1.448  11.940  17.133  0.00  0.00    +0.000 N 
ATOM     19  H   UNL     1      -0.911  12.807  17.043  0.00  0.00    +0.000 HD
BRANCH  18  20
ATOM     20  O   UNL     1      -2.455  11.690  16.178  0.00  0.00    +0.000 OA
ATOM     21  H   UNL     1      -2.126  12.178  15.393  0.00  0.00    +0.000 HD
ENDBRANCH  18  20
ENDBRANCH   1  17
BRANCH   1  22
ATOM     22  C   UNL     1       1.324  10.384  18.347  0.00  0.00    +0.000 C 
BRANCH  22  23
ATOM     23  C   UNL     1       1.579   8.977  18.858  0.00  0.00    +0.000 A 
ATOM     24  C   UNL     1       1.289   8.615  20.179  0.00  0.00    +0.000 A 
ATOM     25  C   UNL     1       1.641   7.350  20.664  0.00  0.00    +0.000 A 
ATOM     26  C   UNL     1       2.319   6.447  19.844  0.00  0.00    +0.000 A 
ATOM     27  C   UNL     1       2.630   6.808  18.528  0.00  0.00    +0.000 A 
ATOM     28  C   UNL     1       2.200   8.041  18.025  0.00  0.00    +0.000 A 
BRANCH  27  29
ATOM     29  O   UNL     1       3.350   5.895  17.795  0.00  0.00    +0.000 OA
BRANCH  29  30
ATOM     30  C   UNL     1       3.295   4.562  18.160  0.00  0.00    +0.000 A 
ATOM     31  C   UNL     1       4.201   3.961  19.042  0.00  0.00    +0.000 A 
ATOM     32  C   UNL     1       4.127   2.591  19.298  0.00  0.00    +0.000 A 
ATOM     33  C   UNL     1       3.105   1.834  18.730  0.00  0.00    +0.000 A 
ATOM     34  C   UNL     1       2.156   2.445  17.910  0.00  0.00    +0.000 A 
ATOM     35  C   UNL     1       2.254   3.809  17.623  0.00  0.00    +0.000 A 
ENDBRANCH  29  30
ENDBRANCH  27  29
ENDBRANCH  22  23
ENDBRANCH   1  22
TORSDOF 8
ENDMDL
MODEL 6
REMARK VINA RESULT:      -7.6      3.066      4.313
REMARK  Name = 
REMARK  8 active torsions:
REMARK  status: ('A' for Active; 'I' for Inactive)
REMARK    1  A    between atoms: C_2  and  C_5
REMARK    2  A    between atoms: N_3  and  O_4
REMARK    3  A    between atoms: C_5  and  C_6
REMARK    4  A    between atoms: C_5  and  C_20
REMARK    5  A    between atoms: C_6  and  C_7
REMARK    6  A    between atoms: C_11  and  O_12
REMARK    7  A    between atoms: O_12  and  C_13
REMARK    8  A    between atoms: N_25  and  C_26
REMARK                            x       y       z     vdW  Elec       q    Type
REMARK                         _______ _______ _______ _____ _____    ______ ____
ROOT
ATOM      1  C   UNL     1      -0.097  11.437  19.065  0.00  0.00    +0.000 C 
ENDROOT
BRANCH   1   2
ATOM      2  C   UNL     1       0.118  12.911  19.429  0.00  0.00    +0.000 C 
ATOM      3  O   UNL     1       0.888  13.602  18.752  0.00  0.00    +0.000 OA
ATOM      4  N   UNL     1      -0.613  13.492  20.446  0.00  0.00    +0.000 N 
ATOM      5  C   UNL     1      -0.621  14.965  20.562  0.00  0.00    +0.000 C 
ATOM      6  C   UNL     1      -2.052  15.540  20.496  0.00  0.00    +0.000 C 
ATOM      7  N   UNL     1      -2.982  14.830  21.395  0.00  0.00    +0.000 N 
ATOM      8  C   UNL     1      -2.942  13.356  21.322  0.00  0.00    +0.000 C 
ATOM      9  C   UNL     1      -1.489  12.840  21.428  0.00  0.00    +0.000 C 
BRANCH   7  10
ATOM     10  C   UNL     1      -3.487  15.430  22.539  0.00  0.00    +0.000 A 
ATOM     11  C   UNL     1      -2.639  16.160  23.390  0.00  0.00    +0.000 A 
ATOM     12  C   UNL     1      -3.107  16.758  24.565  0.00  0.00    +0.000 A 
ATOM     13  C   UNL     1      -4.447  16.642  24.917  0.00  0.00    +0.000 A 
ATOM     14  C   UNL     1      -5.309  15.923  24.095  0.00  0.00    +0.000 A 
ATOM     15  C   UNL     1      -4.830  15.321  22.924  0.00  0.00    +0.000 A 
ENDBRANCH   7  10
ENDBRANCH   1   2
BRANCH   1  17
ATOM     16  O   UNL     1      -2.019  10.191  18.313  0.00  0.00    +0.000 OA
ATOM     17  C   UNL     1      -1.264  11.152  18.125  0.00  0.00    +0.000 C 
ATOM     18  N   UNL     1      -1.475  12.004  17.079  0.00  0.00    +0.000 N 
ATOM     19  H   UNL     1      -0.825  12.749  16.816  0.00  0.00    +0.000 HD
BRANCH  18  20
ATOM     20  O   UNL     1      -2.487  11.660  16.159  0.00  0.00    +0.000 OA
ATOM     21  H   UNL     1      -3.290  11.653  16.722  0.00  0.00    +0.000 HD
ENDBRANCH  18  20
ENDBRANCH   1  17
BRANCH   1  22
ATOM     22  C   UNL     1       1.156  10.733  18.532  0.00  0.00    +0.000 C 
BRANCH  22  23
ATOM     23  C   UNL     1       1.428   9.327  19.037  0.00  0.00    +0.000 A 
ATOM     24  C   UNL     1       1.144   8.956  20.356  0.00  0.00    +0.000 A 
ATOM     25  C   UNL     1       1.510   7.693  20.835  0.00  0.00    +0.000 A 
ATOM     26  C   UNL     1       2.196   6.801  20.011  0.00  0.00    +0.000 A 
ATOM     27  C   UNL     1       2.501   7.171  18.696  0.00  0.00    +0.000 A 
ATOM     28  C   UNL     1       2.056   8.401  18.198  0.00  0.00    +0.000 A 
BRANCH  27  29
ATOM     29  O   UNL     1       3.229   6.269  17.958  0.00  0.00    +0.000 OA
BRANCH  29  30
ATOM     30  C   UNL     1       2.963   4.920  18.112  0.00  0.00    +0.000 A 
ATOM     31  C   UNL     1       1.724   4.334  17.824  0.00  0.00    +0.000 A 
ATOM     32  C   UNL     1       1.511   2.980  18.082  0.00  0.00    +0.000 A 
ATOM     33  C   UNL     1       2.556   2.193  18.561  0.00  0.00    +0.000 A 
ATOM     34  C   UNL     1       3.813   2.757  18.778  0.00  0.00    +0.000 A 
ATOM     35  C   UNL     1       4.015   4.122  18.556  0.00  0.00    +0.000 A 
ENDBRANCH  29  30
ENDBRANCH  27  29
ENDBRANCH  22  23
ENDBRANCH   1  22
TORSDOF 8
ENDMDL
MODEL 7
REMARK VINA RESULT:      -7.6      3.188      5.011
REMARK  Name = 
REMARK  8 active torsions:
REMARK  status: ('A' for Active; 'I' for Inactive)
REMARK    1  A    between atoms: C_2  and  C_5
REMARK    2  A    between atoms: N_3  and  O_4
REMARK    3  A    between atoms: C_5  and  C_6
REMARK    4  A    between atoms: C_5  and  C_20
REMARK    5  A    between atoms: C_6  and  C_7
REMARK    6  A    between atoms: C_11  and  O_12
REMARK    7  A    between atoms: O_12  and  C_13
REMARK    8  A    between atoms: N_25  and  C_26
REMARK                            x       y       z     vdW  Elec       q    Type
REMARK                         _______ _______ _______ _____ _____    ______ ____
ROOT
ATOM      1  C   UNL     1       0.484  10.087  21.155  0.00  0.00    +0.000 C 
ENDROOT
BRANCH   1   2
ATOM      2  C   UNL     1      -0.172  10.708  19.916  0.00  0.00    +0.000 C 
ATOM      3  O   UNL     1      -1.178  10.180  19.428  0.00  0.00    +0.000 OA
ATOM      4  N   UNL     1       0.296  11.900  19.402  0.00  0.00    +0.000 N 
ATOM      5  C   UNL     1      -0.538  12.627  18.423  0.00  0.00    +0.000 C 
ATOM      6  C   UNL     1      -0.864  14.060  18.897  0.00  0.00    +0.000 C 
ATOM      7  N   UNL     1       0.335  14.781  19.364  0.00  0.00    +0.000 N 
ATOM      8  C   UNL     1       1.203  14.040  20.301  0.00  0.00    +0.000 C 
ATOM      9  C   UNL     1       1.521  12.629  19.757  0.00  0.00    +0.000 C 
BRANCH   7  10
ATOM     10  C   UNL     1       0.877  15.835  18.642  0.00  0.00    +0.000 A 
ATOM     11  C   UNL     1       0.073  16.925  18.267  0.00  0.00    +0.000 A 
ATOM     12  C   UNL     1       0.577  17.994  17.519  0.00  0.00    +0.000 A 
ATOM     13  C   UNL     1       1.912  17.999  17.128  0.00  0.00    +0.000 A 
ATOM     14  C   UNL     1       2.731  16.932  17.483  0.00  0.00    +0.000 A 
ATOM     15  C   UNL     1       2.215  15.862  18.225  0.00  0.00    +0.000 A 
ENDBRANCH   7  10
ENDBRANCH   1   2
BRANCH   1  17
ATOM     16  O   UNL     1       0.208   9.890  23.543  0.00  0.00    +0.000 OA
ATOM     17  C   UNL     1      -0.220  10.358  22.482  0.00  0.00    +0.000 C 
ATOM     18  N   UNL     1      -1.326  11.158  22.474  0.00  0.00    +0.000 N 
ATOM     19  H   UNL     1      -1.783  11.485  21.619  0.00  0.00    +0.000 HD
BRANCH  18  20
ATOM     20  O   UNL     1      -2.028  11.304  23.689  0.00  0.00    +0.000 OA
ATOM     21  H   UNL     1      -2.959  11.170  23.411  0.00  0.00    +0.000 HD
ENDBRANCH  18  20
ENDBRANCH   1  17
BRANCH   1  22
ATOM     22  C   UNL     1       0.758   8.584  21.034  0.00  0.00    +0.000 C 
BRANCH  22  23
ATOM     23  C   UNL     1       1.688   8.137  19.920  0.00  0.00    +0.000 A 
ATOM     24  C   UNL     1       1.830   8.883  18.743  0.00  0.00    +0.000 A 
ATOM     25  C   UNL     1       2.599   8.396  17.681  0.00  0.00    +0.000 A 
ATOM     26  C   UNL     1       3.206   7.143  17.769  0.00  0.00    +0.000 A 
ATOM     27  C   UNL     1       3.053   6.382  18.934  0.00  0.00    +0.000 A 
ATOM     28  C   UNL     1       2.353   6.912  20.024  0.00  0.00    +0.000 A 
BRANCH  27  29
ATOM     29  O   UNL     1       3.627   5.133  18.931  0.00  0.00    +0.000 OA
BRANCH  29  30
ATOM     30  C   UNL     1       4.866   4.976  18.338  0.00  0.00    +0.000 A 
ATOM     31  C   UNL     1       5.053   4.432  17.061  0.00  0.00    +0.000 A 
ATOM     32  C   UNL     1       6.341   4.232  16.565  0.00  0.00    +0.000 A 
ATOM     33  C   UNL     1       7.443   4.639  17.313  0.00  0.00    +0.000 A 
ATOM     34  C   UNL     1       7.259   5.250  18.553  0.00  0.00    +0.000 A 
ATOM     35  C   UNL     1       5.969   5.414  19.067  0.00  0.00    +0.000 A 
ENDBRANCH  29  30
ENDBRANCH  27  29
ENDBRANCH  22  23
ENDBRANCH   1  22
TORSDOF 8
ENDMDL
MODEL 8
REMARK VINA RESULT:      -7.6      3.350      4.961
REMARK  Name = 
REMARK  8 active torsions:
REMARK  status: ('A' for Active; 'I' for Inactive)
REMARK    1  A    between atoms: C_2  and  C_5
REMARK    2  A    between atoms: N_3  and  O_4
REMARK    3  A    between atoms: C_5  and  C_6
REMARK    4  A    between atoms: C_5  and  C_20
REMARK    5  A    between atoms: C_6  and  C_7
REMARK    6  A    between atoms: C_11  and  O_12
REMARK    7  A    between atoms: O_12  and  C_13
REMARK    8  A    between atoms: N_25  and  C_26
REMARK                            x       y       z     vdW  Elec       q    Type
REMARK                         _______ _______ _______ _____ _____    ______ ____
ROOT
ATOM      1  C   UNL     1      -0.548  11.403  18.594  0.00  0.00    +0.000 C 
ENDROOT
BRANCH   1   2
ATOM      2  C   UNL     1      -0.427  12.917  18.810  0.00  0.00    +0.000 C 
ATOM      3  O   UNL     1      -0.386  13.673  17.833  0.00  0.00    +0.000 OA
ATOM      4  N   UNL     1      -0.460  13.443  20.086  0.00  0.00    +0.000 N 
ATOM      5  C   UNL     1      -0.662  14.899  20.248  0.00  0.00    +0.000 C 
ATOM      6  C   UNL     1      -1.900  15.214  21.114  0.00  0.00    +0.000 C 
ATOM      7  N   UNL     1      -1.923  14.431  22.364  0.00  0.00    +0.000 N 
ATOM      8  C   UNL     1      -1.668  12.984  22.216  0.00  0.00    +0.000 C 
ATOM      9  C   UNL     1      -0.400  12.733  21.370  0.00  0.00    +0.000 C 
BRANCH   7  10
ATOM     10  C   UNL     1      -1.708  15.025  23.599  0.00  0.00    +0.000 A 
ATOM     11  C   UNL     1      -2.549  14.727  24.685  0.00  0.00    +0.000 A 
ATOM     12  C   UNL     1      -2.378  15.325  25.938  0.00  0.00    +0.000 A 
ATOM     13  C   UNL     1      -1.351  16.241  26.136  0.00  0.00    +0.000 A 
ATOM     14  C   UNL     1      -0.505  16.558  25.078  0.00  0.00    +0.000 A 
ATOM     15  C   UNL     1      -0.688  15.959  23.825  0.00  0.00    +0.000 A 
ENDBRANCH   7  10
ENDBRANCH   1   2
BRANCH   1  17
ATOM     16  O   UNL     1      -2.090   9.804  17.658  0.00  0.00    +0.000 OA
ATOM     17  C   UNL     1      -1.648  10.958  17.635  0.00  0.00    +0.000 C 
ATOM     18  N   UNL     1      -2.158  11.878  16.766  0.00  0.00    +0.000 N 
ATOM     19  H   UNL     1      -1.762  12.812  16.632  0.00  0.00    +0.000 HD
BRANCH  18  20
ATOM     20  O   UNL     1      -3.092  11.420  15.813  0.00  0.00    +0.000 OA
ATOM     21  H   UNL     1      -3.846  12.033  15.947  0.00  0.00    +0.000 HD
ENDBRANCH  18  20
ENDBRANCH   1  17
BRANCH   1  22
ATOM     22  C   UNL     1       0.766  10.720  18.198  0.00  0.00    +0.000 C 
BRANCH  22  23
ATOM     23  C   UNL     1       1.135   9.447  18.939  0.00  0.00    +0.000 A 
ATOM     24  C   UNL     1       0.781   9.253  20.280  0.00  0.00    +0.000 A 
ATOM     25  C   UNL     1       1.231   8.128  20.979  0.00  0.00    +0.000 A 
ATOM     26  C   UNL     1       2.069   7.203  20.357  0.00  0.00    +0.000 A 
ATOM     27  C   UNL     1       2.444   7.399  19.022  0.00  0.00    +0.000 A 
ATOM     28  C   UNL     1       1.920   8.480  18.304  0.00  0.00    +0.000 A 
BRANCH  27  29
ATOM     29  O   UNL     1       3.317   6.482  18.489  0.00  0.00    +0.000 OA
BRANCH  29  30
ATOM     30  C   UNL     1       3.012   5.136  18.594  0.00  0.00    +0.000 A 
ATOM     31  C   UNL     1       3.846   4.197  19.213  0.00  0.00    +0.000 A 
ATOM     32  C   UNL     1       3.503   2.845  19.208  0.00  0.00    +0.000 A 
ATOM     33  C   UNL     1       2.294   2.437  18.649  0.00  0.00    +0.000 A 
ATOM     34  C   UNL     1       1.426   3.380  18.100  0.00  0.00    +0.000 A 
ATOM     35  C   UNL     1       1.787   4.730  18.070  0.00  0.00    +0.000 A 
ENDBRANCH  29  30
ENDBRANCH  27  29
ENDBRANCH  22  23
ENDBRANCH   1  22
TORSDOF 8
ENDMDL
MODEL 9
REMARK VINA RESULT:      -7.5      3.791     10.242
REMARK  Name = 
REMARK  8 active torsions:
REMARK  status: ('A' for Active; 'I' for Inactive)
REMARK    1  A    between atoms: C_2  and  C_5
REMARK    2  A    between atoms: N_3  and  O_4
REMARK    3  A    between atoms: C_5  and  C_6
REMARK    4  A    between atoms: C_5  and  C_20
REMARK    5  A    between atoms: C_6  and  C_7
REMARK    6  A    between atoms: C_11  and  O_12
REMARK    7  A    between atoms: O_12  and  C_13
REMARK    8  A    between atoms: N_25  and  C_26
REMARK                            x       y       z     vdW  Elec       q    Type
REMARK                         _______ _______ _______ _____ _____    ______ ____
ROOT
ATOM      1  C   UNL     1       3.654   3.530  19.088  0.00  0.00    +0.000 C 
ENDROOT
BRANCH   1   2
ATOM      2  C   UNL     1       4.746   4.554  18.755  0.00  0.00    +0.000 C 
ATOM      3  O   UNL     1       5.328   5.147  19.670  0.00  0.00    +0.000 OA
ATOM      4  N   UNL     1       5.145   4.747  17.448  0.00  0.00    +0.000 N 
ATOM      5  C   UNL     1       6.397   5.490  17.190  0.00  0.00    +0.000 C 
ATOM      6  C   UNL     1       7.403   4.654  16.370  0.00  0.00    +0.000 C 
ATOM      7  N   UNL     1       6.781   4.034  15.185  0.00  0.00    +0.000 N 
ATOM      8  C   UNL     1       5.502   3.336  15.425  0.00  0.00    +0.000 C 
ATOM      9  C   UNL     1       4.526   4.235  16.218  0.00  0.00    +0.000 C 
BRANCH   7  10
ATOM     10  C   UNL     1       7.077   4.465  13.899  0.00  0.00    +0.000 A 
ATOM     11  C   UNL     1       6.567   3.775  12.786  0.00  0.00    +0.000 A 
ATOM     12  C   UNL     1       6.863   4.165  11.475  0.00  0.00    +0.000 A 
ATOM     13  C   UNL     1       7.682   5.265  11.247  0.00  0.00    +0.000 A 
ATOM     14  C   UNL     1       8.203   5.965  12.330  0.00  0.00    +0.000 A 
ATOM     15  C   UNL     1       7.907   5.563  13.639  0.00  0.00    +0.000 A 
ENDBRANCH   7  10
ENDBRANCH   1   2
BRANCH   1  17
ATOM     16  O   UNL     1       3.041   2.607  21.230  0.00  0.00    +0.000 OA
ATOM     17  C   UNL     1       3.895   2.691  20.340  0.00  0.00    +0.000 C 
ATOM     18  N   UNL     1       5.072   2.008  20.443  0.00  0.00    +0.000 N 
ATOM     19  H   UNL     1       5.852   2.122  19.791  0.00  0.00    +0.000 HD
BRANCH  18  20
ATOM     20  O   UNL     1       5.323   1.331  21.654  0.00  0.00    +0.000 OA
ATOM     21  H   UNL     1       6.254   1.039  21.543  0.00  0.00    +0.000 HD
ENDBRANCH  18  20
ENDBRANCH   1  17
BRANCH   1  22
ATOM     22  C   UNL     1       2.239   4.118  19.146  0.00  0.00    +0.000 C 
BRANCH  22  23
ATOM     23  C   UNL     1       2.109   5.565  19.587  0.00  0.00    +0.000 A 
ATOM     24  C   UNL     1       1.750   5.901  20.898  0.00  0.00    +0.000 A 
ATOM     25  C   UNL     1       1.520   7.235  21.253  0.00  0.00    +0.000 A 
ATOM     26  C   UNL     1       1.609   8.243  20.294  0.00  0.00    +0.000 A 
ATOM     27  C   UNL     1       1.948   7.914  18.976  0.00  0.00    +0.000 A 
ATOM     28  C   UNL     1       2.261   6.590  18.648  0.00  0.00    +0.000 A 
BRANCH  27  29
ATOM     29  O   UNL     1       1.962   8.947  18.069  0.00  0.00    +0.000 OA
BRANCH  29  30
ATOM     30  C   UNL     1       1.045   9.972  18.220  0.00  0.00    +0.000 A 
ATOM     31  C   UNL     1      -0.330   9.823  18.004  0.00  0.00    +0.000 A 
ATOM     32  C   UNL     1      -1.179  10.926  18.100  0.00  0.00    +0.000 A 
ATOM     33  C   UNL     1      -0.667  12.164  18.480  0.00  0.00    +0.000 A 
ATOM     34  C   UNL     1       0.691  12.300  18.769  0.00  0.00    +0.000 A 
ATOM     35  C   UNL     1       1.547  11.204  18.635  0.00  0.00    +0.000 A 
ENDBRANCH  29  30
ENDBRANCH  27  29
ENDBRANCH  22  23
ENDBRANCH   1  22
TORSDOF 8
ENDMDL
