MODEL 1
REMARK VINA RESULT:      -8.9      0.000      0.000
REMARK  Name = 
REMARK  6 active torsions:
REMARK  status: ('A' for Active; 'I' for Inactive)
REMARK    1  A    between atoms: C_1  and  O_2
REMARK    2  A    between atoms: O_2  and  C_3
REMARK    3  A    between atoms: C_5  and  N_6
REMARK    4  A    between atoms: C_7  and  C_9
REMARK    5  A    between atoms: C_9  and  N_10
REMARK    6  A    between atoms: C_19  and  C_20
REMARK                            x       y       z     vdW  Elec       q    Type
REMARK                         _______ _______ _______ _____ _____    ______ ____
ROOT
ATOM      1  N   UNL     1       2.514   7.903  18.751  0.00  0.00    +0.000 N 
ATOM      2  N   UNL     1       1.755   8.020  19.870  0.00  0.00    +0.000 NA
ATOM      3  C   UNL     1       1.772   6.798  20.409  0.00  0.00    +0.000 A 
ATOM      4  C   UNL     1       2.512   5.901  19.634  0.00  0.00    +0.000 A 
ATOM      5  C   UNL     1       2.691   4.470  19.738  0.00  0.00    +0.000 A 
ATOM      6  O   UNL     1       2.249   3.807  20.664  0.00  0.00    +0.000 OA
ATOM      7  O   UNL     1       3.369   3.881  18.653  0.00  0.00    +0.000 OA
ATOM      8  C   UNL     1       3.989   4.648  17.621  0.00  0.00    +0.000 A 
ATOM      9  C   UNL     1       4.661   3.930  16.633  0.00  0.00    +0.000 A 
ATOM     10  C   UNL     1       5.361   4.623  15.642  0.00  0.00    +0.000 A 
ATOM     11  C   UNL     1       5.992   3.895  14.492  0.00  0.00    +0.000 C 
ATOM     12  C   UNL     1       5.416   6.024  15.703  0.00  0.00    +0.000 A 
ATOM     13  C   UNL     1       4.722   6.735  16.691  0.00  0.00    +0.000 A 
ATOM     14  C   UNL     1       3.944   6.055  17.622  0.00  0.00    +0.000 A 
ATOM     15  C   UNL     1       3.083   6.658  18.627  0.00  0.00    +0.000 A 
ENDROOT
BRANCH   1  16
ATOM     16  C   UNL     1       2.555   9.049  17.864  0.00  0.00    +0.000 C 
BRANCH  16  18
ATOM     17  N   UNL     1       0.135   9.445  17.876  0.00  0.00    +0.000 N 
ATOM     18  C   UNL     1       1.399   9.998  18.059  0.00  0.00    +0.000 C 
ATOM     19  O   UNL     1       1.626  11.152  18.418  0.00  0.00    +0.000 OA
ATOM     20  H   UNL     1       0.080   8.440  17.738  0.00  0.00    +0.000 HD
BRANCH  17  23
ATOM     21  C   UNL     1      -3.248  10.721  16.858  0.00  0.00    +0.000 A 
ATOM     22  C   UNL     1      -2.002  10.081  16.809  0.00  0.00    +0.000 A 
ATOM     23  C   UNL     1      -1.094  10.153  17.870  0.00  0.00    +0.000 A 
ATOM     24  C   UNL     1      -1.433  10.918  18.991  0.00  0.00    +0.000 A 
ATOM     25  C   UNL     1      -2.662  11.588  19.043  0.00  0.00    +0.000 A 
ATOM     26  C   UNL     1      -3.570  11.483  17.986  0.00  0.00    +0.000 A 
ATOM     27 CL   UNL     1      -5.096  12.278  18.133  0.00  0.00    +0.000 Cl
BRANCH  21  29
ATOM     28  C   UNL     1      -3.671  10.248  14.569  0.00  0.00    +0.000 C 
ATOM     29  O   UNL     1      -4.170  10.650  15.844  0.00  0.00    +0.000 OA
ENDBRANCH  21  29
ENDBRANCH  17  23
ENDBRANCH  16  18
ENDBRANCH   1  16
TORSDOF 4
ENDMDL
MODEL 2
REMARK VINA RESULT:      -8.8      1.016      1.796
REMARK  Name = 
REMARK  6 active torsions:
REMARK  status: ('A' for Active; 'I' for Inactive)
REMARK    1  A    between atoms: C_1  and  O_2
REMARK    2  A    between atoms: O_2  and  C_3
REMARK    3  A    between atoms: C_5  and  N_6
REMARK    4  A    between atoms: C_7  and  C_9
REMARK    5  A    between atoms: C_9  and  N_10
REMARK    6  A    between atoms: C_19  and  C_20
REMARK                            x       y       z     vdW  Elec       q    Type
REMARK                         _______ _______ _______ _____ _____    ______ ____
ROOT
ATOM      1  N   UNL     1       2.192   8.184  18.937  0.00  0.00    +0.000 N 
ATOM      2  N   UNL     1       1.444   8.338  20.058  0.00  0.00    +0.000 NA
ATOM      3  C   UNL     1       1.536   7.160  20.681  0.00  0.00    +0.000 A 
ATOM      4  C   UNL     1       2.313   6.252  19.956  0.00  0.00    +0.000 A 
ATOM      5  C   UNL     1       2.571   4.844  20.155  0.00  0.00    +0.000 A 
ATOM      6  O   UNL     1       2.180   4.224  21.134  0.00  0.00    +0.000 OA
ATOM      7  O   UNL     1       3.266   4.218  19.102  0.00  0.00    +0.000 OA
ATOM      8  C   UNL     1       3.827   4.943  18.008  0.00  0.00    +0.000 A 
ATOM      9  C   UNL     1       4.523   4.194  17.059  0.00  0.00    +0.000 A 
ATOM     10  C   UNL     1       5.169   4.852  16.011  0.00  0.00    +0.000 A 
ATOM     11  C   UNL     1       5.822   4.080  14.902  0.00  0.00    +0.000 C 
ATOM     12  C   UNL     1       5.148   6.255  15.973  0.00  0.00    +0.000 A 
ATOM     13  C   UNL     1       4.430   6.995  16.922  0.00  0.00    +0.000 A 
ATOM     14  C   UNL     1       3.704   6.341  17.913  0.00  0.00    +0.000 A 
ATOM     15  C   UNL     1       2.826   6.966  18.889  0.00  0.00    +0.000 A 
ENDROOT
BRANCH   1  16
ATOM     16  C   UNL     1       2.157   9.266  17.971  0.00  0.00    +0.000 C 
BRANCH  16  18
ATOM     17  N   UNL     1      -0.271   9.512  17.735  0.00  0.00    +0.000 N 
ATOM     18  C   UNL     1       0.926  10.129  18.085  0.00  0.00    +0.000 C 
ATOM     19  O   UNL     1       1.034  11.272  18.526  0.00  0.00    +0.000 OA
ATOM     20  H   UNL     1      -0.243   8.515  17.539  0.00  0.00    +0.000 HD
BRANCH  17  23
ATOM     21  C   UNL     1      -3.307  11.584  18.507  0.00  0.00    +0.000 A 
ATOM     22  C   UNL     1      -2.094  10.900  18.663  0.00  0.00    +0.000 A 
ATOM     23  C   UNL     1      -1.537  10.142  17.628  0.00  0.00    +0.000 A 
ATOM     24  C   UNL     1      -2.237  10.040  16.421  0.00  0.00    +0.000 A 
ATOM     25  C   UNL     1      -3.466  10.694  16.259  0.00  0.00    +0.000 A 
ATOM     26  C   UNL     1      -3.995  11.470  17.294  0.00  0.00    +0.000 A 
ATOM     27 CL   UNL     1      -5.482  12.304  17.017  0.00  0.00    +0.000 Cl
BRANCH  21  29
ATOM     28  C   UNL     1      -2.957  12.977  20.398  0.00  0.00    +0.000 C 
ATOM     29  O   UNL     1      -3.868  12.355  19.495  0.00  0.00    +0.000 OA
ENDBRANCH  21  29
ENDBRANCH  17  23
ENDBRANCH  16  18
ENDBRANCH   1  16
TORSDOF 4
ENDMDL
MODEL 3
REMARK VINA RESULT:      -8.5      0.914      1.070
REMARK  Name = 
REMARK  6 active torsions:
REMARK  status: ('A' for Active; 'I' for Inactive)
REMARK    1  A    between atoms: C_1  and  O_2
REMARK    2  A    between atoms: O_2  and  C_3
REMARK    3  A    between atoms: C_5  and  N_6
REMARK    4  A    between atoms: C_7  and  C_9
REMARK    5  A    between atoms: C_9  and  N_10
REMARK    6  A    between atoms: C_19  and  C_20
REMARK                            x       y       z     vdW  Elec       q    Type
REMARK                         _______ _______ _______ _____ _____    ______ ____
ROOT
ATOM      1  N   UNL     1       2.438   7.783  18.731  0.00  0.00    +0.000 N 
ATOM      2  N   UNL     1       1.747   7.873  19.896  0.00  0.00    +0.000 NA
ATOM      3  C   UNL     1       1.937   6.689  20.484  0.00  0.00    +0.000 A 
ATOM      4  C   UNL     1       2.719   5.840  19.697  0.00  0.00    +0.000 A 
ATOM      5  C   UNL     1       3.063   4.444  19.848  0.00  0.00    +0.000 A 
ATOM      6  O   UNL     1       2.761   3.784  20.832  0.00  0.00    +0.000 OA
ATOM      7  O   UNL     1       3.728   3.878  18.744  0.00  0.00    +0.000 OA
ATOM      8  C   UNL     1       4.187   4.654  17.638  0.00  0.00    +0.000 A 
ATOM      9  C   UNL     1       4.867   3.964  16.634  0.00  0.00    +0.000 A 
ATOM     10  C   UNL     1       5.417   4.678  15.567  0.00  0.00    +0.000 A 
ATOM     11  C   UNL     1       6.046   3.965  14.406  0.00  0.00    +0.000 C 
ATOM     12  C   UNL     1       5.319   6.078  15.563  0.00  0.00    +0.000 A 
ATOM     13  C   UNL     1       4.618   6.759  16.568  0.00  0.00    +0.000 A 
ATOM     14  C   UNL     1       3.985   6.046  17.582  0.00  0.00    +0.000 A 
ATOM     15  C   UNL     1       3.132   6.602  18.620  0.00  0.00    +0.000 A 
ENDROOT
BRANCH   1  16
ATOM     16  C   UNL     1       2.290   8.880  17.795  0.00  0.00    +0.000 C 
BRANCH  16  18
ATOM     17  N   UNL     1       0.080   9.669  18.506  0.00  0.00    +0.000 N 
ATOM     18  C   UNL     1       1.419   9.996  18.314  0.00  0.00    +0.000 C 
ATOM     19  O   UNL     1       1.934  11.078  18.590  0.00  0.00    +0.000 OA
ATOM     20  H   UNL     1      -0.184   8.695  18.390  0.00  0.00    +0.000 HD
BRANCH  17  23
ATOM     21  C   UNL     1      -3.152  11.584  18.466  0.00  0.00    +0.000 A 
ATOM     22  C   UNL     1      -2.097  10.752  18.062  0.00  0.00    +0.000 A 
ATOM     23  C   UNL     1      -0.959  10.570  18.853  0.00  0.00    +0.000 A 
ATOM     24  C   UNL     1      -0.863  11.270  20.060  0.00  0.00    +0.000 A 
ATOM     25  C   UNL     1      -1.895  12.128  20.464  0.00  0.00    +0.000 A 
ATOM     26  C   UNL     1      -3.038  12.278  19.674  0.00  0.00    +0.000 A 
ATOM     27 CL   UNL     1      -4.306  13.300  20.252  0.00  0.00    +0.000 Cl
BRANCH  21  29
ATOM     28  C   UNL     1      -4.249  11.289  16.380  0.00  0.00    +0.000 C 
ATOM     29  O   UNL     1      -4.292  11.765  17.723  0.00  0.00    +0.000 OA
ENDBRANCH  21  29
ENDBRANCH  17  23
ENDBRANCH  16  18
ENDBRANCH   1  16
TORSDOF 4
ENDMDL
MODEL 4
REMARK VINA RESULT:      -8.5      2.493      2.999
REMARK  Name = 
REMARK  6 active torsions:
REMARK  status: ('A' for Active; 'I' for Inactive)
REMARK    1  A    between atoms: C_1  and  O_2
REMARK    2  A    between atoms: O_2  and  C_3
REMARK    3  A    between atoms: C_5  and  N_6
REMARK    4  A    between atoms: C_7  and  C_9
REMARK    5  A    between atoms: C_9  and  N_10
REMARK    6  A    between atoms: C_19  and  C_20
REMARK                            x       y       z     vdW  Elec       q    Type
REMARK                         _______ _______ _______ _____ _____    ______ ____
ROOT
ATOM      1  N   UNL     1       2.558   7.042  19.065  0.00  0.00    +0.000 N 
ATOM      2  N   UNL     1       1.892   6.897  20.238  0.00  0.00    +0.000 NA
ATOM      3  C   UNL     1       2.106   5.624  20.583  0.00  0.00    +0.000 A 
ATOM      4  C   UNL     1       2.877   4.953  19.631  0.00  0.00    +0.000 A 
ATOM      5  C   UNL     1       3.237   3.559  19.503  0.00  0.00    +0.000 A 
ATOM      6  O   UNL     1       2.963   2.718  20.346  0.00  0.00    +0.000 OA
ATOM      7  O   UNL     1       3.884   3.226  18.297  0.00  0.00    +0.000 OA
ATOM      8  C   UNL     1       4.311   4.207  17.353  0.00  0.00    +0.000 A 
ATOM      9  C   UNL     1       4.976   3.733  16.222  0.00  0.00    +0.000 A 
ATOM     10  C   UNL     1       5.495   4.646  15.302  0.00  0.00    +0.000 A 
ATOM     11  C   UNL     1       6.106   4.180  14.014  0.00  0.00    +0.000 C 
ATOM     12  C   UNL     1       5.385   6.019  15.571  0.00  0.00    +0.000 A 
ATOM     13  C   UNL     1       4.699   6.484  16.702  0.00  0.00    +0.000 A 
ATOM     14  C   UNL     1       4.095   5.581  17.571  0.00  0.00    +0.000 A 
ATOM     15  C   UNL     1       3.260   5.914  18.714  0.00  0.00    +0.000 A 
ENDROOT
BRANCH   1  16
ATOM     16  C   UNL     1       2.381   8.298  18.362  0.00  0.00    +0.000 C 
BRANCH  16  18
ATOM     17  N   UNL     1       1.424   9.544  20.245  0.00  0.00    +0.000 N 
ATOM     18  C   UNL     1       1.265   9.144  18.921  0.00  0.00    +0.000 C 
ATOM     19  O   UNL     1       0.338   9.476  18.185  0.00  0.00    +0.000 OA
ATOM     20  H   UNL     1       2.312   9.335  20.693  0.00  0.00    +0.000 HD
BRANCH  17  23
ATOM     21  C   UNL     1      -1.251  11.945  21.336  0.00  0.00    +0.000 A 
ATOM     22  C   UNL     1      -0.244  11.338  20.572  0.00  0.00    +0.000 A 
ATOM     23  C   UNL     1       0.463  10.224  21.035  0.00  0.00    +0.000 A 
ATOM     24  C   UNL     1       0.175   9.733  22.312  0.00  0.00    +0.000 A 
ATOM     25  C   UNL     1      -0.807  10.346  23.101  0.00  0.00    +0.000 A 
ATOM     26  C   UNL     1      -1.523  11.442  22.612  0.00  0.00    +0.000 A 
ATOM     27 CL   UNL     1      -2.767  12.117  23.603  0.00  0.00    +0.000 Cl
BRANCH  21  29
ATOM     28  C   UNL     1      -3.101  12.731  20.070  0.00  0.00    +0.000 C 
ATOM     29  O   UNL     1      -1.978  13.024  20.900  0.00  0.00    +0.000 OA
ENDBRANCH  21  29
ENDBRANCH  17  23
ENDBRANCH  16  18
ENDBRANCH   1  16
TORSDOF 4
ENDMDL
MODEL 5
REMARK VINA RESULT:      -8.4      2.852      3.577
REMARK  Name = 
REMARK  6 active torsions:
REMARK  status: ('A' for Active; 'I' for Inactive)
REMARK    1  A    between atoms: C_1  and  O_2
REMARK    2  A    between atoms: O_2  and  C_3
REMARK    3  A    between atoms: C_5  and  N_6
REMARK    4  A    between atoms: C_7  and  C_9
REMARK    5  A    between atoms: C_9  and  N_10
REMARK    6  A    between atoms: C_19  and  C_20
REMARK                            x       y       z     vdW  Elec       q    Type
REMARK                         _______ _______ _______ _____ _____    ______ ____
ROOT
ATOM      1  N   UNL     1       2.253   7.294  19.328  0.00  0.00    +0.000 N 
ATOM      2  N   UNL     1       1.531   7.139  20.467  0.00  0.00    +0.000 NA
ATOM      3  C   UNL     1       1.710   5.859  20.799  0.00  0.00    +0.000 A 
ATOM      4  C   UNL     1       2.516   5.192  19.873  0.00  0.00    +0.000 A 
ATOM      5  C   UNL     1       2.862   3.794  19.738  0.00  0.00    +0.000 A 
ATOM      6  O   UNL     1       2.536   2.944  20.553  0.00  0.00    +0.000 OA
ATOM      7  O   UNL     1       3.559   3.471  18.558  0.00  0.00    +0.000 OA
ATOM      8  C   UNL     1       4.045   4.462  17.652  0.00  0.00    +0.000 A 
ATOM      9  C   UNL     1       4.755   3.996  16.546  0.00  0.00    +0.000 A 
ATOM     10  C   UNL     1       5.330   4.916  15.667  0.00  0.00    +0.000 A 
ATOM     11  C   UNL     1       5.993   4.462  14.401  0.00  0.00    +0.000 C 
ATOM     12  C   UNL     1       5.227   6.286  15.954  0.00  0.00    +0.000 A 
ATOM     13  C   UNL     1       4.495   6.743  17.059  0.00  0.00    +0.000 A 
ATOM     14  C   UNL     1       3.838   5.835  17.884  0.00  0.00    +0.000 A 
ATOM     15  C   UNL     1       2.955   6.162  18.991  0.00  0.00    +0.000 A 
ENDROOT
BRANCH   1  16
ATOM     16  C   UNL     1       2.126   8.564  18.639  0.00  0.00    +0.000 C 
BRANCH  16  18
ATOM     17  N   UNL     1       1.364  10.008  20.468  0.00  0.00    +0.000 N 
ATOM     18  C   UNL     1       1.064   9.459  19.225  0.00  0.00    +0.000 C 
ATOM     19  O   UNL     1       0.052   9.697  18.567  0.00  0.00    +0.000 OA
ATOM     20  H   UNL     1       2.301   9.859  20.831  0.00  0.00    +0.000 HD
BRANCH  17  23
ATOM     21  C   UNL     1      -0.628  12.861  21.884  0.00  0.00    +0.000 A 
ATOM     22  C   UNL     1       0.309  12.145  21.126  0.00  0.00    +0.000 A 
ATOM     23  C   UNL     1       0.484  10.766  21.282  0.00  0.00    +0.000 A 
ATOM     24  C   UNL     1      -0.275  10.100  22.250  0.00  0.00    +0.000 A 
ATOM     25  C   UNL     1      -1.195  10.806  23.036  0.00  0.00    +0.000 A 
ATOM     26  C   UNL     1      -1.377  12.179  22.849  0.00  0.00    +0.000 A 
ATOM     27 CL   UNL     1      -2.569  12.986  23.803  0.00  0.00    +0.000 Cl
BRANCH  21  29
ATOM     28  C   UNL     1       0.096  15.065  22.390  0.00  0.00    +0.000 C 
ATOM     29  O   UNL     1      -0.840  14.209  21.739  0.00  0.00    +0.000 OA
ENDBRANCH  21  29
ENDBRANCH  17  23
ENDBRANCH  16  18
ENDBRANCH   1  16
TORSDOF 4
ENDMDL
MODEL 6
REMARK VINA RESULT:      -8.3      2.366      2.902
REMARK  Name = 
REMARK  6 active torsions:
REMARK  status: ('A' for Active; 'I' for Inactive)
REMARK    1  A    between atoms: C_1  and  O_2
REMARK    2  A    between atoms: O_2  and  C_3
REMARK    3  A    between atoms: C_5  and  N_6
REMARK    4  A    between atoms: C_7  and  C_9
REMARK    5  A    between atoms: C_9  and  N_10
REMARK    6  A    between atoms: C_19  and  C_20
REMARK                            x       y       z     vdW  Elec       q    Type
REMARK                         _______ _______ _______ _____ _____    ______ ____
ROOT
ATOM      1  N   UNL     1       2.586   7.619  18.695  0.00  0.00    +0.000 N 
ATOM      2  N   UNL     1       1.894   7.680  19.861  0.00  0.00    +0.000 NA
ATOM      3  C   UNL     1       2.057   6.471  20.405  0.00  0.00    +0.000 A 
ATOM      4  C   UNL     1       2.822   5.636  19.588  0.00  0.00    +0.000 A 
ATOM      5  C   UNL     1       3.136   4.228  19.688  0.00  0.00    +0.000 A 
ATOM      6  O   UNL     1       2.818   3.538  20.646  0.00  0.00    +0.000 OA
ATOM      7  O   UNL     1       3.793   3.690  18.564  0.00  0.00    +0.000 OA
ATOM      8  C   UNL     1       4.272   4.497  17.490  0.00  0.00    +0.000 A 
ATOM      9  C   UNL     1       4.941   3.831  16.463  0.00  0.00    +0.000 A 
ATOM     10  C   UNL     1       5.509   4.572  15.424  0.00  0.00    +0.000 A 
ATOM     11  C   UNL     1       6.127   3.890  14.239  0.00  0.00    +0.000 C 
ATOM     12  C   UNL     1       5.441   5.973  15.473  0.00  0.00    +0.000 A 
ATOM     13  C   UNL     1       4.751   6.631  16.501  0.00  0.00    +0.000 A 
ATOM     14  C   UNL     1       4.100   5.894  17.485  0.00  0.00    +0.000 A 
ATOM     15  C   UNL     1       3.255   6.429  18.541  0.00  0.00    +0.000 A 
ENDROOT
BRANCH   1  16
ATOM     16  C   UNL     1       2.465   8.754  17.800  0.00  0.00    +0.000 C 
BRANCH  16  18
ATOM     17  N   UNL     1       1.465  10.733  18.846  0.00  0.00    +0.000 N 
ATOM     18  C   UNL     1       1.246   9.599  18.069  0.00  0.00    +0.000 C 
ATOM     19  O   UNL     1       0.174   9.287  17.553  0.00  0.00    +0.000 OA
ATOM     20  H   UNL     1       2.427  10.963  19.077  0.00  0.00    +0.000 HD
BRANCH  17  23
ATOM     21  C   UNL     1      -1.233  12.219  20.996  0.00  0.00    +0.000 A 
ATOM     22  C   UNL     1      -0.312  11.305  20.467  0.00  0.00    +0.000 A 
ATOM     23  C   UNL     1       0.468  11.609  19.347  0.00  0.00    +0.000 A 
ATOM     24  C   UNL     1       0.288  12.848  18.722  0.00  0.00    +0.000 A 
ATOM     25  C   UNL     1      -0.650  13.761  19.221  0.00  0.00    +0.000 A 
ATOM     26  C   UNL     1      -1.401  13.452  20.358  0.00  0.00    +0.000 A 
ATOM     27 CL   UNL     1      -2.497  14.642  20.965  0.00  0.00    +0.000 Cl
BRANCH  21  29
ATOM     28  C   UNL     1      -1.389  11.147  23.110  0.00  0.00    +0.000 C 
ATOM     29  O   UNL     1      -1.996  11.960  22.108  0.00  0.00    +0.000 OA
ENDBRANCH  21  29
ENDBRANCH  17  23
ENDBRANCH  16  18
ENDBRANCH   1  16
TORSDOF 4
ENDMDL
MODEL 7
REMARK VINA RESULT:      -8.3      1.685      2.503
REMARK  Name = 
REMARK  6 active torsions:
REMARK  status: ('A' for Active; 'I' for Inactive)
REMARK    1  A    between atoms: C_1  and  O_2
REMARK    2  A    between atoms: O_2  and  C_3
REMARK    3  A    between atoms: C_5  and  N_6
REMARK    4  A    between atoms: C_7  and  C_9
REMARK    5  A    between atoms: C_9  and  N_10
REMARK    6  A    between atoms: C_19  and  C_20
REMARK                            x       y       z     vdW  Elec       q    Type
REMARK                         _______ _______ _______ _____ _____    ______ ____
ROOT
ATOM      1  N   UNL     1       2.470   7.744  18.714  0.00  0.00    +0.000 N 
ATOM      2  N   UNL     1       1.792   7.811  19.888  0.00  0.00    +0.000 NA
ATOM      3  C   UNL     1       1.992   6.617  20.453  0.00  0.00    +0.000 A 
ATOM      4  C   UNL     1       2.768   5.785  19.642  0.00  0.00    +0.000 A 
ATOM      5  C   UNL     1       3.119   4.388  19.765  0.00  0.00    +0.000 A 
ATOM      6  O   UNL     1       2.831   3.710  20.740  0.00  0.00    +0.000 OA
ATOM      7  O   UNL     1       3.775   3.844  18.643  0.00  0.00    +0.000 OA
ATOM      8  C   UNL     1       4.219   4.643  17.547  0.00  0.00    +0.000 A 
ATOM      9  C   UNL     1       4.892   3.973  16.524  0.00  0.00    +0.000 A 
ATOM     10  C   UNL     1       5.427   4.708  15.464  0.00  0.00    +0.000 A 
ATOM     11  C   UNL     1       6.046   4.019  14.284  0.00  0.00    +0.000 C 
ATOM     12  C   UNL     1       5.324   6.107  15.486  0.00  0.00    +0.000 A 
ATOM     13  C   UNL     1       4.630   6.768  16.510  0.00  0.00    +0.000 A 
ATOM     14  C   UNL     1       4.011   6.034  17.518  0.00  0.00    +0.000 A 
ATOM     15  C   UNL     1       3.167   6.568  18.574  0.00  0.00    +0.000 A 
ENDROOT
BRANCH   1  16
ATOM     16  C   UNL     1       2.308   8.857  17.799  0.00  0.00    +0.000 C 
BRANCH  16  18
ATOM     17  N   UNL     1       0.155   9.615  18.694  0.00  0.00    +0.000 N 
ATOM     18  C   UNL     1       1.457   9.971  18.357  0.00  0.00    +0.000 C 
ATOM     19  O   UNL     1       1.961  11.078  18.535  0.00  0.00    +0.000 OA
ATOM     20  H   UNL     1      -0.088   8.629  18.647  0.00  0.00    +0.000 HD
BRANCH  17  23
ATOM     21  C   UNL     1      -1.850  12.072  20.708  0.00  0.00    +0.000 A 
ATOM     22  C   UNL     1      -0.869  11.136  20.353  0.00  0.00    +0.000 A 
ATOM     23  C   UNL     1      -0.874  10.500  19.107  0.00  0.00    +0.000 A 
ATOM     24  C   UNL     1      -1.911  10.785  18.213  0.00  0.00    +0.000 A 
ATOM     25  C   UNL     1      -2.916  11.697  18.565  0.00  0.00    +0.000 A 
ATOM     26  C   UNL     1      -2.881  12.344  19.803  0.00  0.00    +0.000 A 
ATOM     27 CL   UNL     1      -4.111  13.504  20.157  0.00  0.00    +0.000 Cl
BRANCH  21  29
ATOM     28  C   UNL     1      -1.661  11.922  23.071  0.00  0.00    +0.000 C 
ATOM     29  O   UNL     1      -1.860  12.730  21.913  0.00  0.00    +0.000 OA
ENDBRANCH  21  29
ENDBRANCH  17  23
ENDBRANCH  16  18
ENDBRANCH   1  16
TORSDOF 4
ENDMDL
MODEL 8
REMARK VINA RESULT:      -8.1      2.471      2.855
REMARK  Name = 
REMARK  6 active torsions:
REMARK  status: ('A' for Active; 'I' for Inactive)
REMARK    1  A    between atoms: C_1  and  O_2
REMARK    2  A    between atoms: O_2  and  C_3
REMARK    3  A    between atoms: C_5  and  N_6
REMARK    4  A    between atoms: C_7  and  C_9
REMARK    5  A    between atoms: C_9  and  N_10
REMARK    6  A    between atoms: C_19  and  C_20
REMARK                            x       y       z     vdW  Elec       q    Type
REMARK                         _______ _______ _______ _____ _____    ______ ____
ROOT
ATOM      1  N   UNL     1       2.398   7.549  18.908  0.00  0.00    +0.000 N 
ATOM      2  N   UNL     1       1.709   7.561  20.076  0.00  0.00    +0.000 NA
ATOM      3  C   UNL     1       1.919   6.349  20.595  0.00  0.00    +0.000 A 
ATOM      4  C   UNL     1       2.713   5.559  19.759  0.00  0.00    +0.000 A 
ATOM      5  C   UNL     1       3.080   4.163  19.830  0.00  0.00    +0.000 A 
ATOM      6  O   UNL     1       2.791   3.442  20.774  0.00  0.00    +0.000 OA
ATOM      7  O   UNL     1       3.753   3.672  18.694  0.00  0.00    +0.000 OA
ATOM      8  C   UNL     1       4.198   4.519  17.634  0.00  0.00    +0.000 A 
ATOM      9  C   UNL     1       4.888   3.900  16.592  0.00  0.00    +0.000 A 
ATOM     10  C   UNL     1       5.424   4.682  15.568  0.00  0.00    +0.000 A 
ATOM     11  C   UNL     1       6.063   4.049  14.368  0.00  0.00    +0.000 C 
ATOM     12  C   UNL     1       5.303   6.078  15.645  0.00  0.00    +0.000 A 
ATOM     13  C   UNL     1       4.592   6.688  16.687  0.00  0.00    +0.000 A 
ATOM     14  C   UNL     1       3.972   5.908  17.659  0.00  0.00    +0.000 A 
ATOM     15  C   UNL     1       3.112   6.389  18.728  0.00  0.00    +0.000 A 
ENDROOT
BRANCH   1  16
ATOM     16  C   UNL     1       2.232   8.697  18.036  0.00  0.00    +0.000 C 
BRANCH  16  18
ATOM     17  N   UNL     1       1.387  10.429  19.553  0.00  0.00    +0.000 N 
ATOM     18  C   UNL     1       1.110   9.612  18.460  0.00  0.00    +0.000 C 
ATOM     19  O   UNL     1       0.072   9.631  17.802  0.00  0.00    +0.000 OA
ATOM     20  H   UNL     1       2.339  10.429  19.907  0.00  0.00    +0.000 HD
BRANCH  17  23
ATOM     21  C   UNL     1      -0.840  13.335  20.392  0.00  0.00    +0.000 A 
ATOM     22  C   UNL     1       0.138  12.552  19.764  0.00  0.00    +0.000 A 
ATOM     23  C   UNL     1       0.463  11.271  20.222  0.00  0.00    +0.000 A 
ATOM     24  C   UNL     1      -0.185  10.783  21.362  0.00  0.00    +0.000 A 
ATOM     25  C   UNL     1      -1.144  11.566  22.019  0.00  0.00    +0.000 A 
ATOM     26  C   UNL     1      -1.477  12.832  21.531  0.00  0.00    +0.000 A 
ATOM     27 CL   UNL     1      -2.711  13.726  22.344  0.00  0.00    +0.000 Cl
BRANCH  21  29
ATOM     28  C   UNL     1      -0.251  15.253  19.122  0.00  0.00    +0.000 C 
ATOM     29  O   UNL     1      -1.198  14.585  19.952  0.00  0.00    +0.000 OA
ENDBRANCH  21  29
ENDBRANCH  17  23
ENDBRANCH  16  18
ENDBRANCH   1  16
TORSDOF 4
ENDMDL
MODEL 9
REMARK VINA RESULT:      -8.0      0.979      1.011
REMARK  Name = 
REMARK  6 active torsions:
REMARK  status: ('A' for Active; 'I' for Inactive)
REMARK    1  A    between atoms: C_1  and  O_2
REMARK    2  A    between atoms: O_2  and  C_3
REMARK    3  A    between atoms: C_5  and  N_6
REMARK    4  A    between atoms: C_7  and  C_9
REMARK    5  A    between atoms: C_9  and  N_10
REMARK    6  A    between atoms: C_19  and  C_20
REMARK                            x       y       z     vdW  Elec       q    Type
REMARK                         _______ _______ _______ _____ _____    ______ ____
ROOT
ATOM      1  N   UNL     1       2.268   7.305  19.702  0.00  0.00    +0.000 N 
ATOM      2  N   UNL     1       1.362   7.147  20.698  0.00  0.00    +0.000 NA
ATOM      3  C   UNL     1       1.159   5.828  20.754  0.00  0.00    +0.000 A 
ATOM      4  C   UNL     1       1.907   5.149  19.788  0.00  0.00    +0.000 A 
ATOM      5  C   UNL     1       1.908   3.762  19.381  0.00  0.00    +0.000 A 
ATOM      6  O   UNL     1       1.257   2.898  19.949  0.00  0.00    +0.000 OA
ATOM      7  O   UNL     1       2.679   3.485  18.234  0.00  0.00    +0.000 OA
ATOM      8  C   UNL     1       3.532   4.453  17.625  0.00  0.00    +0.000 A 
ATOM      9  C   UNL     1       4.267   4.025  16.520  0.00  0.00    +0.000 A 
ATOM     10  C   UNL     1       5.185   4.897  15.930  0.00  0.00    +0.000 A 
ATOM     11  C   UNL     1       5.903   4.522  14.667  0.00  0.00    +0.000 C 
ATOM     12  C   UNL     1       5.384   6.163  16.503  0.00  0.00    +0.000 A 
ATOM     13  C   UNL     1       4.627   6.589  17.603  0.00  0.00    +0.000 A 
ATOM     14  C   UNL     1       3.643   5.761  18.134  0.00  0.00    +0.000 A 
ATOM     15  C   UNL     1       2.708   6.107  19.193  0.00  0.00    +0.000 A 
ENDROOT
BRANCH   1  16
ATOM     16  C   UNL     1       2.573   8.666  19.303  0.00  0.00    +0.000 C 
BRANCH  16  18
ATOM     17  N   UNL     1       0.374   9.749  19.249  0.00  0.00    +0.000 N 
ATOM     18  C   UNL     1       1.470   9.318  18.508  0.00  0.00    +0.000 C 
ATOM     19  O   UNL     1       1.621   9.484  17.299  0.00  0.00    +0.000 OA
ATOM     20  H   UNL     1       0.444   9.695  20.262  0.00  0.00    +0.000 HD
BRANCH  17  23
ATOM     21  C   UNL     1      -2.705  10.196  17.145  0.00  0.00    +0.000 A 
ATOM     22  C   UNL     1      -1.464   9.726  17.597  0.00  0.00    +0.000 A 
ATOM     23  C   UNL     1      -0.839  10.264  18.726  0.00  0.00    +0.000 A 
ATOM     24  C   UNL     1      -1.460  11.326  19.392  0.00  0.00    +0.000 A 
ATOM     25  C   UNL     1      -2.686  11.827  18.936  0.00  0.00    +0.000 A 
ATOM     26  C   UNL     1      -3.311  11.259  17.822  0.00  0.00    +0.000 A 
ATOM     27 CL   UNL     1      -4.851  11.875  17.343  0.00  0.00    +0.000 Cl
BRANCH  21  29
ATOM     28  C   UNL     1      -2.901  10.119  14.779  0.00  0.00    +0.000 C 
ATOM     29  O   UNL     1      -3.356   9.672  16.054  0.00  0.00    +0.000 OA
ENDBRANCH  21  29
ENDBRANCH  17  23
ENDBRANCH  16  18
ENDBRANCH   1  16
TORSDOF 4
ENDMDL
