MODEL 1
REMARK VINA RESULT:      -7.4      0.000      0.000
REMARK  Name = 
REMARK  6 active torsions:
REMARK  status: ('A' for Active; 'I' for Inactive)
REMARK    1  A    between atoms: C_1  and  C_2
REMARK    2  A    between atoms: C_5  and  C_6
REMARK    3  A    between atoms: C_7  and  C_8
REMARK    4  A    between atoms: C_8  and  S_9
REMARK    5  A    between atoms: S_9  and  C_10
REMARK    6  A    between atoms: C_10  and  C_11
REMARK                            x       y       z     vdW  Elec       q    Type
REMARK                         _______ _______ _______ _____ _____    ______ ____
ROOT
ATOM      1  C   UNL     1       2.973   4.906  20.170  0.00  0.00    +0.000 C 
ATOM      2  O   UNL     1       3.020   3.751  20.601  0.00  0.00    +0.000 OA
ATOM      3  N   UNL     1       2.084   5.773  20.754  0.00  0.00    +0.000 N 
ATOM      4  C   UNL     1       1.815   7.026  20.289  0.00  0.00    +0.000 A 
ATOM      5  N   UNL     1       2.201   7.536  19.154  0.00  0.00    +0.000 NA
ATOM      6  C   UNL     1       1.798   8.848  19.071  0.00  0.00    +0.000 A 
ATOM      7  C   UNL     1       2.065   9.714  17.994  0.00  0.00    +0.000 A 
ATOM      8  C   UNL     1       1.639  11.040  18.059  0.00  0.00    +0.000 A 
ATOM      9  C   UNL     1       0.954  11.492  19.178  0.00  0.00    +0.000 A 
ATOM     10  F   UNL     1       0.571  12.774  19.228  0.00  0.00    +0.000 F 
ATOM     11  C   UNL     1       0.654  10.655  20.255  0.00  0.00    +0.000 A 
ATOM     12  C   UNL     1       1.084   9.323  20.178  0.00  0.00    +0.000 A 
ATOM     13  S   UNL     1       0.881   8.022  21.301  0.00  0.00    +0.000 S 
ATOM     14  H   UNL     1       1.595   5.440  21.575  0.00  0.00    +0.000 HD
ENDROOT
BRANCH   1  15
ATOM     15  C   UNL     1       3.870   5.423  19.041  0.00  0.00    +0.000 C 
BRANCH  15  16
ATOM     16  S   UNL     1       3.620   4.593  17.446  0.00  0.00    +0.000 S 
BRANCH  16  17
ATOM     17  C   UNL     1       5.227   3.751  17.299  0.00  0.00    +0.000 C 
BRANCH  17  24
ATOM     18  C   UNL     1       5.661   3.895  14.089  0.00  0.00    +0.000 C 
ATOM     19  C   UNL     1       6.354   4.678  15.139  0.00  0.00    +0.000 A 
ATOM     20  N   UNL     1       7.289   5.572  14.807  0.00  0.00    +0.000 NA
ATOM     21  O   UNL     1       7.748   6.099  15.998  0.00  0.00    +0.000 OA
ATOM     22  C   UNL     1       7.080   5.532  17.035  0.00  0.00    +0.000 A 
ATOM     23  C   UNL     1       7.465   5.987  18.385  0.00  0.00    +0.000 C 
ATOM     24  C   UNL     1       6.168   4.615  16.550  0.00  0.00    +0.000 A 
ENDBRANCH  17  24
ENDBRANCH  16  17
ENDBRANCH  15  16
ENDBRANCH   1  15
TORSDOF 4
ENDMDL
MODEL 2
REMARK VINA RESULT:      -7.2      1.220      1.359
REMARK  Name = 
REMARK  6 active torsions:
REMARK  status: ('A' for Active; 'I' for Inactive)
REMARK    1  A    between atoms: C_1  and  C_2
REMARK    2  A    between atoms: C_5  and  C_6
REMARK    3  A    between atoms: C_7  and  C_8
REMARK    4  A    between atoms: C_8  and  S_9
REMARK    5  A    between atoms: S_9  and  C_10
REMARK    6  A    between atoms: C_10  and  C_11
REMARK                            x       y       z     vdW  Elec       q    Type
REMARK                         _______ _______ _______ _____ _____    ______ ____
ROOT
ATOM      1  C   UNL     1       3.671   3.581  20.002  0.00  0.00    +0.000 C 
ATOM      2  O   UNL     1       3.761   2.430  20.438  0.00  0.00    +0.000 OA
ATOM      3  N   UNL     1       2.712   4.399  20.545  0.00  0.00    +0.000 N 
ATOM      4  C   UNL     1       2.398   5.636  20.065  0.00  0.00    +0.000 A 
ATOM      5  N   UNL     1       2.804   6.166  18.947  0.00  0.00    +0.000 NA
ATOM      6  C   UNL     1       2.336   7.454  18.843  0.00  0.00    +0.000 A 
ATOM      7  C   UNL     1       2.604   8.333  17.776  0.00  0.00    +0.000 A 
ATOM      8  C   UNL     1       2.105   9.634  17.820  0.00  0.00    +0.000 A 
ATOM      9  C   UNL     1       1.349  10.049  18.907  0.00  0.00    +0.000 A 
ATOM     10  F   UNL     1       0.896  11.310  18.937  0.00  0.00    +0.000 F 
ATOM     11  C   UNL     1       1.048   9.198  19.972  0.00  0.00    +0.000 A 
ATOM     12  C   UNL     1       1.550   7.891  19.917  0.00  0.00    +0.000 A 
ATOM     13  S   UNL     1       1.368   6.581  21.034  0.00  0.00    +0.000 S 
ATOM     14  H   UNL     1       2.207   4.041  21.344  0.00  0.00    +0.000 HD
ENDROOT
BRANCH   1  15
ATOM     15  C   UNL     1       4.587   4.145  18.912  0.00  0.00    +0.000 C 
BRANCH  15  16
ATOM     16  S   UNL     1       4.497   3.264  17.328  0.00  0.00    +0.000 S 
BRANCH  16  17
ATOM     17  C   UNL     1       4.354   4.690  16.206  0.00  0.00    +0.000 C 
BRANCH  17  24
ATOM     18  C   UNL     1       5.956   3.765  13.543  0.00  0.00    +0.000 C 
ATOM     19  C   UNL     1       6.405   4.704  14.598  0.00  0.00    +0.000 A 
ATOM     20  N   UNL     1       7.608   5.281  14.520  0.00  0.00    +0.000 NA
ATOM     21  O   UNL     1       7.726   6.062  15.652  0.00  0.00    +0.000 OA
ATOM     22  C   UNL     1       6.594   5.962  16.396  0.00  0.00    +0.000 A 
ATOM     23  C   UNL     1       6.569   6.737  17.652  0.00  0.00    +0.000 C 
ATOM     24  C   UNL     1       5.706   5.110  15.771  0.00  0.00    +0.000 A 
ENDBRANCH  17  24
ENDBRANCH  16  17
ENDBRANCH  15  16
ENDBRANCH   1  15
TORSDOF 4
ENDMDL
MODEL 3
REMARK VINA RESULT:      -7.2      4.205      6.976
REMARK  Name = 
REMARK  6 active torsions:
REMARK  status: ('A' for Active; 'I' for Inactive)
REMARK    1  A    between atoms: C_1  and  C_2
REMARK    2  A    between atoms: C_5  and  C_6
REMARK    3  A    between atoms: C_7  and  C_8
REMARK    4  A    between atoms: C_8  and  S_9
REMARK    5  A    between atoms: S_9  and  C_10
REMARK    6  A    between atoms: C_10  and  C_11
REMARK                            x       y       z     vdW  Elec       q    Type
REMARK                         _______ _______ _______ _____ _____    ______ ____
ROOT
ATOM      1  C   UNL     1       4.470   2.757  19.442  0.00  0.00    +0.000 C 
ATOM      2  O   UNL     1       4.204   2.660  20.643  0.00  0.00    +0.000 OA
ATOM      3  N   UNL     1       5.477   3.614  19.074  0.00  0.00    +0.000 N 
ATOM      4  C   UNL     1       5.779   3.935  17.785  0.00  0.00    +0.000 A 
ATOM      5  N   UNL     1       5.082   3.642  16.723  0.00  0.00    +0.000 NA
ATOM      6  C   UNL     1       5.744   4.070  15.597  0.00  0.00    +0.000 A 
ATOM      7  C   UNL     1       5.294   3.896  14.275  0.00  0.00    +0.000 A 
ATOM      8  C   UNL     1       6.089   4.337  13.217  0.00  0.00    +0.000 A 
ATOM      9  C   UNL     1       7.309   4.944  13.477  0.00  0.00    +0.000 A 
ATOM     10  F   UNL     1       8.066   5.342  12.445  0.00  0.00    +0.000 F 
ATOM     11  C   UNL     1       7.776   5.151  14.775  0.00  0.00    +0.000 A 
ATOM     12  C   UNL     1       6.968   4.708  15.831  0.00  0.00    +0.000 A 
ATOM     13  S   UNL     1       7.218   4.807  17.541  0.00  0.00    +0.000 S 
ATOM     14  H   UNL     1       6.012   4.035  19.822  0.00  0.00    +0.000 HD
ENDROOT
BRANCH   1  15
ATOM     15  C   UNL     1       3.754   1.953  18.351  0.00  0.00    +0.000 C 
BRANCH  15  16
ATOM     16  S   UNL     1       1.960   2.219  18.282  0.00  0.00    +0.000 S 
BRANCH  16  17
ATOM     17  C   UNL     1       1.939   3.888  17.558  0.00  0.00    +0.000 C 
BRANCH  17  24
ATOM     18  C   UNL     1       0.750   3.762  20.573  0.00  0.00    +0.000 C 
ATOM     19  C   UNL     1       1.572   4.833  19.960  0.00  0.00    +0.000 A 
ATOM     20  N   UNL     1       1.906   5.915  20.668  0.00  0.00    +0.000 NA
ATOM     21  O   UNL     1       2.636   6.716  19.813  0.00  0.00    +0.000 OA
ATOM     22  C   UNL     1       2.750   6.107  18.604  0.00  0.00    +0.000 A 
ATOM     23  C   UNL     1       3.501   6.845  17.570  0.00  0.00    +0.000 C 
ATOM     24  C   UNL     1       2.093   4.893  18.636  0.00  0.00    +0.000 A 
ENDBRANCH  17  24
ENDBRANCH  16  17
ENDBRANCH  15  16
ENDBRANCH   1  15
TORSDOF 4
ENDMDL
MODEL 4
REMARK VINA RESULT:      -7.1      0.556      1.731
REMARK  Name = 
REMARK  6 active torsions:
REMARK  status: ('A' for Active; 'I' for Inactive)
REMARK    1  A    between atoms: C_1  and  C_2
REMARK    2  A    between atoms: C_5  and  C_6
REMARK    3  A    between atoms: C_7  and  C_8
REMARK    4  A    between atoms: C_8  and  S_9
REMARK    5  A    between atoms: S_9  and  C_10
REMARK    6  A    between atoms: C_10  and  C_11
REMARK                            x       y       z     vdW  Elec       q    Type
REMARK                         _______ _______ _______ _____ _____    ______ ____
ROOT
ATOM      1  C   UNL     1       2.788   5.178  20.070  0.00  0.00    +0.000 C 
ATOM      2  O   UNL     1       2.857   4.013  20.471  0.00  0.00    +0.000 OA
ATOM      3  N   UNL     1       2.019   6.059  20.789  0.00  0.00    +0.000 N 
ATOM      4  C   UNL     1       1.729   7.329  20.387  0.00  0.00    +0.000 A 
ATOM      5  N   UNL     1       1.967   7.851  19.217  0.00  0.00    +0.000 NA
ATOM      6  C   UNL     1       1.600   9.176  19.215  0.00  0.00    +0.000 A 
ATOM      7  C   UNL     1       1.741  10.056  18.124  0.00  0.00    +0.000 A 
ATOM      8  C   UNL     1       1.372  11.392  18.271  0.00  0.00    +0.000 A 
ATOM      9  C   UNL     1       0.868  11.841  19.483  0.00  0.00    +0.000 A 
ATOM     10  F   UNL     1       0.539  13.134  19.608  0.00  0.00    +0.000 F 
ATOM     11  C   UNL     1       0.696  10.992  20.578  0.00  0.00    +0.000 A 
ATOM     12  C   UNL     1       1.066   9.649  20.419  0.00  0.00    +0.000 A 
ATOM     13  S   UNL     1       0.981   8.332  21.538  0.00  0.00    +0.000 S 
ATOM     14  H   UNL     1       1.641   5.724  21.665  0.00  0.00    +0.000 HD
ENDROOT
BRANCH   1  15
ATOM     15  C   UNL     1       3.533   5.691  18.834  0.00  0.00    +0.000 C 
BRANCH  15  16
ATOM     16  S   UNL     1       3.578   4.521  17.448  0.00  0.00    +0.000 S 
BRANCH  16  17
ATOM     17  C   UNL     1       5.294   3.938  17.612  0.00  0.00    +0.000 C 
BRANCH  17  24
ATOM     18  C   UNL     1       7.400   6.191  18.615  0.00  0.00    +0.000 C 
ATOM     19  C   UNL     1       7.108   5.770  17.225  0.00  0.00    +0.000 A 
ATOM     20  N   UNL     1       7.745   6.342  16.199  0.00  0.00    +0.000 NA
ATOM     21  O   UNL     1       7.232   5.754  15.060  0.00  0.00    +0.000 OA
ATOM     22  C   UNL     1       6.303   4.825  15.405  0.00  0.00    +0.000 A 
ATOM     23  C   UNL     1       5.653   4.109  14.291  0.00  0.00    +0.000 C 
ATOM     24  C   UNL     1       6.182   4.783  16.780  0.00  0.00    +0.000 A 
ENDBRANCH  17  24
ENDBRANCH  16  17
ENDBRANCH  15  16
ENDBRANCH   1  15
TORSDOF 4
ENDMDL
MODEL 5
REMARK VINA RESULT:      -7.1      1.391      1.588
REMARK  Name = 
REMARK  6 active torsions:
REMARK  status: ('A' for Active; 'I' for Inactive)
REMARK    1  A    between atoms: C_1  and  C_2
REMARK    2  A    between atoms: C_5  and  C_6
REMARK    3  A    between atoms: C_7  and  C_8
REMARK    4  A    between atoms: C_8  and  S_9
REMARK    5  A    between atoms: S_9  and  C_10
REMARK    6  A    between atoms: C_10  and  C_11
REMARK                            x       y       z     vdW  Elec       q    Type
REMARK                         _______ _______ _______ _____ _____    ______ ____
ROOT
ATOM      1  C   UNL     1       2.381   6.102  20.119  0.00  0.00    +0.000 C 
ATOM      2  O   UNL     1       2.602   4.940  20.470  0.00  0.00    +0.000 OA
ATOM      3  N   UNL     1       1.825   6.955  21.040  0.00  0.00    +0.000 N 
ATOM      4  C   UNL     1       1.389   8.214  20.754  0.00  0.00    +0.000 A 
ATOM      5  N   UNL     1       1.260   8.746  19.571  0.00  0.00    +0.000 NA
ATOM      6  C   UNL     1       0.864  10.057  19.690  0.00  0.00    +0.000 A 
ATOM      7  C   UNL     1       0.653  10.942  18.616  0.00  0.00    +0.000 A 
ATOM      8  C   UNL     1       0.299  12.265  18.878  0.00  0.00    +0.000 A 
ATOM      9  C   UNL     1       0.153  12.694  20.189  0.00  0.00    +0.000 A 
ATOM     10  F   UNL     1      -0.168  13.975  20.419  0.00  0.00    +0.000 F 
ATOM     11  C   UNL     1       0.335  11.839  21.277  0.00  0.00    +0.000 A 
ATOM     12  C   UNL     1       0.687  10.510  21.002  0.00  0.00    +0.000 A 
ATOM     13  S   UNL     1       0.974   9.189  22.083  0.00  0.00    +0.000 S 
ATOM     14  H   UNL     1       1.729   6.606  21.984  0.00  0.00    +0.000 HD
ENDROOT
BRANCH   1  15
ATOM     15  C   UNL     1       2.717   6.642  18.726  0.00  0.00    +0.000 C 
BRANCH  15  16
ATOM     16  S   UNL     1       3.604   5.469  17.662  0.00  0.00    +0.000 S 
BRANCH  16  17
ATOM     17  C   UNL     1       5.066   6.478  17.268  0.00  0.00    +0.000 C 
BRANCH  17  24
ATOM     18  C   UNL     1       5.804   4.677  14.674  0.00  0.00    +0.000 C 
ATOM     19  C   UNL     1       6.562   4.805  15.942  0.00  0.00    +0.000 A 
ATOM     20  N   UNL     1       7.698   4.125  16.120  0.00  0.00    +0.000 NA
ATOM     21  O   UNL     1       8.131   4.440  17.393  0.00  0.00    +0.000 OA
ATOM     22  C   UNL     1       7.264   5.314  17.966  0.00  0.00    +0.000 A 
ATOM     23  C   UNL     1       7.586   5.744  19.341  0.00  0.00    +0.000 C 
ATOM     24  C   UNL     1       6.239   5.592  17.084  0.00  0.00    +0.000 A 
ENDBRANCH  17  24
ENDBRANCH  16  17
ENDBRANCH  15  16
ENDBRANCH   1  15
TORSDOF 4
ENDMDL
MODEL 6
REMARK VINA RESULT:      -7.1      1.429      2.287
REMARK  Name = 
REMARK  6 active torsions:
REMARK  status: ('A' for Active; 'I' for Inactive)
REMARK    1  A    between atoms: C_1  and  C_2
REMARK    2  A    between atoms: C_5  and  C_6
REMARK    3  A    between atoms: C_7  and  C_8
REMARK    4  A    between atoms: C_8  and  S_9
REMARK    5  A    between atoms: S_9  and  C_10
REMARK    6  A    between atoms: C_10  and  C_11
REMARK                            x       y       z     vdW  Elec       q    Type
REMARK                         _______ _______ _______ _____ _____    ______ ____
ROOT
ATOM      1  C   UNL     1       2.265   6.050  20.194  0.00  0.00    +0.000 C 
ATOM      2  O   UNL     1       2.410   4.871  20.528  0.00  0.00    +0.000 OA
ATOM      3  N   UNL     1       1.687   6.906  21.098  0.00  0.00    +0.000 N 
ATOM      4  C   UNL     1       1.328   8.191  20.818  0.00  0.00    +0.000 A 
ATOM      5  N   UNL     1       1.303   8.756  19.644  0.00  0.00    +0.000 NA
ATOM      6  C   UNL     1       0.959  10.081  19.771  0.00  0.00    +0.000 A 
ATOM      7  C   UNL     1       0.862  11.000  18.709  0.00  0.00    +0.000 A 
ATOM      8  C   UNL     1       0.550  12.331  18.983  0.00  0.00    +0.000 A 
ATOM      9  C   UNL     1       0.335  12.736  20.293  0.00  0.00    +0.000 A 
ATOM     10  F   UNL     1       0.057  14.024  20.535  0.00  0.00    +0.000 F 
ATOM     11  C   UNL     1       0.404  11.847  21.367  0.00  0.00    +0.000 A 
ATOM     12  C   UNL     1       0.714  10.510  21.080  0.00  0.00    +0.000 A 
ATOM     13  S   UNL     1       0.868   9.152  22.143  0.00  0.00    +0.000 S 
ATOM     14  H   UNL     1       1.511   6.540  22.024  0.00  0.00    +0.000 HD
ENDROOT
BRANCH   1  15
ATOM     15  C   UNL     1       2.719   6.607  18.842  0.00  0.00    +0.000 C 
BRANCH  15  16
ATOM     16  S   UNL     1       3.597   5.412  17.796  0.00  0.00    +0.000 S 
BRANCH  16  17
ATOM     17  C   UNL     1       5.048   6.418  17.355  0.00  0.00    +0.000 C 
BRANCH  17  24
ATOM     18  C   UNL     1       7.624   5.723  19.198  0.00  0.00    +0.000 C 
ATOM     19  C   UNL     1       7.311   5.220  17.839  0.00  0.00    +0.000 A 
ATOM     20  N   UNL     1       8.144   4.375  17.225  0.00  0.00    +0.000 NA
ATOM     21  O   UNL     1       7.586   4.126  15.988  0.00  0.00    +0.000 OA
ATOM     22  C   UNL     1       6.418   4.809  15.869  0.00  0.00    +0.000 A 
ATOM     23  C   UNL     1       5.699   4.653  14.590  0.00  0.00    +0.000 C 
ATOM     24  C   UNL     1       6.183   5.526  17.026  0.00  0.00    +0.000 A 
ENDBRANCH  17  24
ENDBRANCH  16  17
ENDBRANCH  15  16
ENDBRANCH   1  15
TORSDOF 4
ENDMDL
MODEL 7
REMARK VINA RESULT:      -7.0      3.153      4.770
REMARK  Name = 
REMARK  6 active torsions:
REMARK  status: ('A' for Active; 'I' for Inactive)
REMARK    1  A    between atoms: C_1  and  C_2
REMARK    2  A    between atoms: C_5  and  C_6
REMARK    3  A    between atoms: C_7  and  C_8
REMARK    4  A    between atoms: C_8  and  S_9
REMARK    5  A    between atoms: S_9  and  C_10
REMARK    6  A    between atoms: C_10  and  C_11
REMARK                            x       y       z     vdW  Elec       q    Type
REMARK                         _______ _______ _______ _____ _____    ______ ____
ROOT
ATOM      1  C   UNL     1       2.096   8.798  18.023  0.00  0.00    +0.000 C 
ATOM      2  O   UNL     1       2.788   8.567  17.028  0.00  0.00    +0.000 OA
ATOM      3  N   UNL     1       1.335   9.941  18.025  0.00  0.00    +0.000 N 
ATOM      4  C   UNL     1       0.644  10.401  19.105  0.00  0.00    +0.000 A 
ATOM      5  N   UNL     1       0.722   9.959  20.328  0.00  0.00    +0.000 NA
ATOM      6  C   UNL     1      -0.181  10.624  21.124  0.00  0.00    +0.000 A 
ATOM      7  C   UNL     1      -0.387  10.383  22.495  0.00  0.00    +0.000 A 
ATOM      8  C   UNL     1      -1.372  11.098  23.176  0.00  0.00    +0.000 A 
ATOM      9  C   UNL     1      -2.135  12.039  22.499  0.00  0.00    +0.000 A 
ATOM     10  F   UNL     1      -3.090  12.699  23.167  0.00  0.00    +0.000 F 
ATOM     11  C   UNL     1      -1.944  12.317  21.144  0.00  0.00    +0.000 A 
ATOM     12  C   UNL     1      -0.948  11.596  20.471  0.00  0.00    +0.000 A 
ATOM     13  S   UNL     1      -0.434  11.685  18.820  0.00  0.00    +0.000 S 
ATOM     14  H   UNL     1       1.307  10.470  17.163  0.00  0.00    +0.000 HD
ENDROOT
BRANCH   1  15
ATOM     15  C   UNL     1       2.025   7.867  19.237  0.00  0.00    +0.000 C 
BRANCH  15  16
ATOM     16  S   UNL     1       3.106   6.413  19.129  0.00  0.00    +0.000 S 
BRANCH  16  17
ATOM     17  C   UNL     1       2.086   5.370  18.040  0.00  0.00    +0.000 C 
BRANCH  17  24
ATOM     18  C   UNL     1       0.851   2.912  19.757  0.00  0.00    +0.000 C 
ATOM     19  C   UNL     1       2.026   2.895  18.853  0.00  0.00    +0.000 A 
ATOM     20  N   UNL     1       2.720   1.768  18.671  0.00  0.00    +0.000 NA
ATOM     21  O   UNL     1       3.748   2.092  17.809  0.00  0.00    +0.000 OA
ATOM     22  C   UNL     1       3.660   3.404  17.468  0.00  0.00    +0.000 A 
ATOM     23  C   UNL     1       4.701   3.910  16.552  0.00  0.00    +0.000 C 
ATOM     24  C   UNL     1       2.573   3.973  18.101  0.00  0.00    +0.000 A 
ENDBRANCH  17  24
ENDBRANCH  16  17
ENDBRANCH  15  16
ENDBRANCH   1  15
TORSDOF 4
ENDMDL
MODEL 8
REMARK VINA RESULT:      -7.0      3.077      4.744
REMARK  Name = 
REMARK  6 active torsions:
REMARK  status: ('A' for Active; 'I' for Inactive)
REMARK    1  A    between atoms: C_1  and  C_2
REMARK    2  A    between atoms: C_5  and  C_6
REMARK    3  A    between atoms: C_7  and  C_8
REMARK    4  A    between atoms: C_8  and  S_9
REMARK    5  A    between atoms: S_9  and  C_10
REMARK    6  A    between atoms: C_10  and  C_11
REMARK                            x       y       z     vdW  Elec       q    Type
REMARK                         _______ _______ _______ _____ _____    ______ ____
ROOT
ATOM      1  C   UNL     1       2.088   8.755  18.039  0.00  0.00    +0.000 C 
ATOM      2  O   UNL     1       2.777   8.514  17.044  0.00  0.00    +0.000 OA
ATOM      3  N   UNL     1       1.322   9.894  18.029  0.00  0.00    +0.000 N 
ATOM      4  C   UNL     1       0.632  10.364  19.107  0.00  0.00    +0.000 A 
ATOM      5  N   UNL     1       0.717   9.937  20.335  0.00  0.00    +0.000 NA
ATOM      6  C   UNL     1      -0.186  10.608  21.125  0.00  0.00    +0.000 A 
ATOM      7  C   UNL     1      -0.386  10.383  22.501  0.00  0.00    +0.000 A 
ATOM      8  C   UNL     1      -1.372  11.102  23.176  0.00  0.00    +0.000 A 
ATOM      9  C   UNL     1      -2.141  12.031  22.490  0.00  0.00    +0.000 A 
ATOM     10  F   UNL     1      -3.097  12.695  23.154  0.00  0.00    +0.000 F 
ATOM     11  C   UNL     1      -1.957  12.293  21.132  0.00  0.00    +0.000 A 
ATOM     12  C   UNL     1      -0.960  11.568  20.463  0.00  0.00    +0.000 A 
ATOM     13  S   UNL     1      -0.452  11.640  18.810  0.00  0.00    +0.000 S 
ATOM     14  H   UNL     1       1.288  10.412  17.162  0.00  0.00    +0.000 HD
ENDROOT
BRANCH   1  15
ATOM     15  C   UNL     1       2.026   7.838  19.265  0.00  0.00    +0.000 C 
BRANCH  15  16
ATOM     16  S   UNL     1       3.106   6.383  19.167  0.00  0.00    +0.000 S 
BRANCH  16  17
ATOM     17  C   UNL     1       2.106   5.351  18.051  0.00  0.00    +0.000 C 
BRANCH  17  24
ATOM     18  C   UNL     1       4.566   3.826  16.589  0.00  0.00    +0.000 C 
ATOM     19  C   UNL     1       3.593   3.268  17.557  0.00  0.00    +0.000 A 
ATOM     20  N   UNL     1       3.666   1.985  17.923  0.00  0.00    +0.000 NA
ATOM     21  O   UNL     1       2.618   1.781  18.798  0.00  0.00    +0.000 OA
ATOM     22  C   UNL     1       1.930   2.941  18.964  0.00  0.00    +0.000 A 
ATOM     23  C   UNL     1       0.767   2.884  19.870  0.00  0.00    +0.000 C 
ATOM     24  C   UNL     1       2.509   3.933  18.198  0.00  0.00    +0.000 A 
ENDBRANCH  17  24
ENDBRANCH  16  17
ENDBRANCH  15  16
ENDBRANCH   1  15
TORSDOF 4
ENDMDL
MODEL 9
REMARK VINA RESULT:      -6.8      2.187      2.988
REMARK  Name = 
REMARK  6 active torsions:
REMARK  status: ('A' for Active; 'I' for Inactive)
REMARK    1  A    between atoms: C_1  and  C_2
REMARK    2  A    between atoms: C_5  and  C_6
REMARK    3  A    between atoms: C_7  and  C_8
REMARK    4  A    between atoms: C_8  and  S_9
REMARK    5  A    between atoms: S_9  and  C_10
REMARK    6  A    between atoms: C_10  and  C_11
REMARK                            x       y       z     vdW  Elec       q    Type
REMARK                         _______ _______ _______ _____ _____    ______ ____
ROOT
ATOM      1  C   UNL     1       3.095   7.524  17.752  0.00  0.00    +0.000 C 
ATOM      2  O   UNL     1       3.719   7.344  16.703  0.00  0.00    +0.000 OA
ATOM      3  N   UNL     1       2.323   8.655  17.853  0.00  0.00    +0.000 N 
ATOM      4  C   UNL     1       1.702   9.060  18.996  0.00  0.00    +0.000 A 
ATOM      5  N   UNL     1       1.868   8.568  20.191  0.00  0.00    +0.000 NA
ATOM      6  C   UNL     1       1.014   9.187  21.073  0.00  0.00    +0.000 A 
ATOM      7  C   UNL     1       0.904   8.887  22.444  0.00  0.00    +0.000 A 
ATOM      8  C   UNL     1      -0.041   9.559  23.219  0.00  0.00    +0.000 A 
ATOM      9  C   UNL     1      -0.858  10.517  22.636  0.00  0.00    +0.000 A 
ATOM     10  F   UNL     1      -1.772  11.136  23.394  0.00  0.00    +0.000 F 
ATOM     11  C   UNL     1      -0.762  10.854  21.285  0.00  0.00    +0.000 A 
ATOM     12  C   UNL     1       0.194  10.175  20.515  0.00  0.00    +0.000 A 
ATOM     13  S   UNL     1       0.594  10.340  18.840  0.00  0.00    +0.000 S 
ATOM     14  H   UNL     1       2.231   9.219  17.019  0.00  0.00    +0.000 HD
ENDROOT
BRANCH   1  15
ATOM     15  C   UNL     1       3.116   6.542  18.927  0.00  0.00    +0.000 C 
BRANCH  15  16
ATOM     16  S   UNL     1       3.918   4.955  18.562  0.00  0.00    +0.000 S 
BRANCH  16  17
ATOM     17  C   UNL     1       5.639   5.400  18.951  0.00  0.00    +0.000 C 
BRANCH  17  24
ATOM     18  C   UNL     1       5.435   3.746  16.169  0.00  0.00    +0.000 C 
ATOM     19  C   UNL     1       6.284   4.923  16.471  0.00  0.00    +0.000 A 
ATOM     20  N   UNL     1       7.098   5.424  15.538  0.00  0.00    +0.000 NA
ATOM     21  O   UNL     1       7.757   6.479  16.138  0.00  0.00    +0.000 OA
ATOM     22  C   UNL     1       7.328   6.615  17.419  0.00  0.00    +0.000 A 
ATOM     23  C   UNL     1       7.948   7.701  18.202  0.00  0.00    +0.000 C 
ATOM     24  C   UNL     1       6.379   5.649  17.693  0.00  0.00    +0.000 A 
ENDBRANCH  17  24
ENDBRANCH  16  17
ENDBRANCH  15  16
ENDBRANCH   1  15
TORSDOF 4
ENDMDL
