MODEL 1
REMARK VINA RESULT:      -8.3      0.000      0.000
REMARK  Name = 
REMARK  7 active torsions:
REMARK  status: ('A' for Active; 'I' for Inactive)
REMARK    1  A    between atoms: C_1  and  O_2
REMARK    2  A    between atoms: O_2  and  C_3
REMARK    3  A    between atoms: C_3  and  C_5
REMARK    4  A    between atoms: C_7  and  S_8
REMARK    5  A    between atoms: S_8  and  C_9
REMARK    6  A    between atoms: C_9  and  C_10
REMARK    7  A    between atoms: N_19  and  C_20
REMARK                            x       y       z     vdW  Elec       q    Type
REMARK                         _______ _______ _______ _____ _____    ______ ____
ROOT
ATOM      1  C   UNL     1       2.903   3.434  18.466  0.00  0.00    +0.000 C 
ATOM      2  N   UNL     1       3.589   3.279  17.151  0.00  0.00    +0.000 NA
ATOM      3  C   UNL     1       4.287   4.356  16.970  0.00  0.00    +0.000 C 
ATOM      4  C   UNL     1       4.285   5.358  18.061  0.00  0.00    +0.000 C 
ATOM      5  C   UNL     1       3.421   6.564  17.882  0.00  0.00    +0.000 C 
ATOM      6  O   UNL     1       3.513   7.278  16.894  0.00  0.00    +0.000 OA
ATOM      7  N   UNL     1       2.680   6.735  19.038  0.00  0.00    +0.000 N 
ATOM      8  C   UNL     1       2.724   5.600  19.820  0.00  0.00    +0.000 C 
ATOM      9  O   UNL     1       2.144   5.341  20.866  0.00  0.00    +0.000 OA
ATOM     10  C   UNL     1       3.612   4.583  19.168  0.00  0.00    +0.000 C 
ENDROOT
BRANCH   7  11
ATOM     11  C   UNL     1       1.994   7.942  19.392  0.00  0.00    +0.000 A 
ATOM     12  C   UNL     1       1.538   8.179  20.699  0.00  0.00    +0.000 A 
ATOM     13  C   UNL     1       0.781   9.315  21.019  0.00  0.00    +0.000 A 
ATOM     14  C   UNL     1       0.461  10.243  20.038  0.00  0.00    +0.000 A 
ATOM     15  C   UNL     1       0.917  10.046  18.741  0.00  0.00    +0.000 A 
ATOM     16  C   UNL     1       1.680   8.914  18.424  0.00  0.00    +0.000 A 
ENDBRANCH   7  11
BRANCH   1  17
ATOM     17  C   UNL     1       1.408   3.645  18.222  0.00  0.00    +0.000 C 
ATOM     18  O   UNL     1       0.956   4.301  17.293  0.00  0.00    +0.000 OA
BRANCH  17  20
ATOM     19  C   UNL     1       1.390   2.037  19.936  0.00  0.00    +0.000 C 
ATOM     20  O   UNL     1       0.671   3.012  19.176  0.00  0.00    +0.000 OA
ENDBRANCH  17  20
ENDBRANCH   1  17
BRANCH   3  21
ATOM     21  S   UNL     1       5.211   4.532  15.510  0.00  0.00    +0.000 S 
BRANCH  21  22
ATOM     22  C   UNL     1       6.926   4.294  16.046  0.00  0.00    +0.000 C 
BRANCH  22  23
ATOM     23  C   UNL     1       7.338   5.337  17.059  0.00  0.00    +0.000 A 
ATOM     24  C   UNL     1       7.328   6.699  16.718  0.00  0.00    +0.000 A 
ATOM     25  C   UNL     1       7.752   7.665  17.633  0.00  0.00    +0.000 A 
ATOM     26  C   UNL     1       8.196   7.283  18.897  0.00  0.00    +0.000 A 
ATOM     27  C   UNL     1       8.205   5.935  19.252  0.00  0.00    +0.000 A 
ATOM     28  C   UNL     1       7.780   4.966  18.339  0.00  0.00    +0.000 A 
ENDBRANCH  22  23
ENDBRANCH  21  22
ENDBRANCH   3  21
TORSDOF 6
ENDMDL
MODEL 2
REMARK VINA RESULT:      -8.2      1.766      2.802
REMARK  Name = 
REMARK  7 active torsions:
REMARK  status: ('A' for Active; 'I' for Inactive)
REMARK    1  A    between atoms: C_1  and  O_2
REMARK    2  A    between atoms: O_2  and  C_3
REMARK    3  A    between atoms: C_3  and  C_5
REMARK    4  A    between atoms: C_7  and  S_8
REMARK    5  A    between atoms: S_8  and  C_9
REMARK    6  A    between atoms: C_9  and  C_10
REMARK    7  A    between atoms: N_19  and  C_20
REMARK                            x       y       z     vdW  Elec       q    Type
REMARK                         _______ _______ _______ _____ _____    ______ ____
ROOT
ATOM      1  C   UNL     1       3.114   3.567  19.003  0.00  0.00    +0.000 C 
ATOM      2  N   UNL     1       4.189   3.361  17.991  0.00  0.00    +0.000 NA
ATOM      3  C   UNL     1       4.875   4.460  17.953  0.00  0.00    +0.000 C 
ATOM      4  C   UNL     1       4.492   5.533  18.901  0.00  0.00    +0.000 C 
ATOM      5  C   UNL     1       3.694   6.674  18.358  0.00  0.00    +0.000 C 
ATOM      6  O   UNL     1       4.075   7.322  17.395  0.00  0.00    +0.000 OA
ATOM      7  N   UNL     1       2.616   6.881  19.202  0.00  0.00    +0.000 N 
ATOM      8  C   UNL     1       2.443   5.806  20.048  0.00  0.00    +0.000 C 
ATOM      9  O   UNL     1       1.567   5.587  20.873  0.00  0.00    +0.000 OA
ATOM     10  C   UNL     1       3.524   4.799  19.797  0.00  0.00    +0.000 C 
ENDROOT
BRANCH   7  11
ATOM     11  C   UNL     1       1.816   8.069  19.219  0.00  0.00    +0.000 A 
ATOM     12  C   UNL     1       1.314   8.607  20.415  0.00  0.00    +0.000 A 
ATOM     13  C   UNL     1       0.450   9.711  20.420  0.00  0.00    +0.000 A 
ATOM     14  C   UNL     1       0.066  10.305  19.226  0.00  0.00    +0.000 A 
ATOM     15  C   UNL     1       0.564   9.809  18.029  0.00  0.00    +0.000 A 
ATOM     16  C   UNL     1       1.434   8.710  18.027  0.00  0.00    +0.000 A 
ENDBRANCH   7  11
BRANCH   1  17
ATOM     17  C   UNL     1       1.770   3.676  18.282  0.00  0.00    +0.000 C 
ATOM     18  O   UNL     1       1.615   4.258  17.216  0.00  0.00    +0.000 OA
BRANCH  17  20
ATOM     19  C   UNL     1       1.265   2.155  20.001  0.00  0.00    +0.000 C 
ATOM     20  O   UNL     1       0.791   3.048  18.990  0.00  0.00    +0.000 OA
ENDBRANCH  17  20
ENDBRANCH   1  17
BRANCH   3  21
ATOM     21  S   UNL     1       6.212   4.588  16.852  0.00  0.00    +0.000 S 
BRANCH  21  22
ATOM     22  C   UNL     1       5.764   3.484  15.487  0.00  0.00    +0.000 C 
BRANCH  22  23
ATOM     23  C   UNL     1       6.347   3.961  14.177  0.00  0.00    +0.000 A 
ATOM     24  C   UNL     1       5.978   3.343  12.971  0.00  0.00    +0.000 A 
ATOM     25  C   UNL     1       6.548   3.747  11.761  0.00  0.00    +0.000 A 
ATOM     26  C   UNL     1       7.496   4.767  11.742  0.00  0.00    +0.000 A 
ATOM     27  C   UNL     1       7.867   5.393  12.931  0.00  0.00    +0.000 A 
ATOM     28  C   UNL     1       7.298   4.993  14.142  0.00  0.00    +0.000 A 
ENDBRANCH  22  23
ENDBRANCH  21  22
ENDBRANCH   3  21
TORSDOF 6
ENDMDL
MODEL 3
REMARK VINA RESULT:      -8.2      1.724      2.849
REMARK  Name = 
REMARK  7 active torsions:
REMARK  status: ('A' for Active; 'I' for Inactive)
REMARK    1  A    between atoms: C_1  and  O_2
REMARK    2  A    between atoms: O_2  and  C_3
REMARK    3  A    between atoms: C_3  and  C_5
REMARK    4  A    between atoms: C_7  and  S_8
REMARK    5  A    between atoms: S_8  and  C_9
REMARK    6  A    between atoms: C_9  and  C_10
REMARK    7  A    between atoms: N_19  and  C_20
REMARK                            x       y       z     vdW  Elec       q    Type
REMARK                         _______ _______ _______ _____ _____    ______ ____
ROOT
ATOM      1  C   UNL     1       3.074   3.327  18.801  0.00  0.00    +0.000 C 
ATOM      2  N   UNL     1       4.212   3.151  17.854  0.00  0.00    +0.000 NA
ATOM      3  C   UNL     1       4.951   4.209  17.966  0.00  0.00    +0.000 C 
ATOM      4  C   UNL     1       4.549   5.215  18.978  0.00  0.00    +0.000 C 
ATOM      5  C   UNL     1       3.851   6.441  18.485  0.00  0.00    +0.000 C 
ATOM      6  O   UNL     1       4.337   7.149  17.615  0.00  0.00    +0.000 OA
ATOM      7  N   UNL     1       2.723   6.633  19.264  0.00  0.00    +0.000 N 
ATOM      8  C   UNL     1       2.434   5.500  19.993  0.00  0.00    +0.000 C 
ATOM      9  O   UNL     1       1.487   5.258  20.730  0.00  0.00    +0.000 OA
ATOM     10  C   UNL     1       3.481   4.460  19.731  0.00  0.00    +0.000 C 
ENDROOT
BRANCH   7  11
ATOM     11  C   UNL     1       1.983   7.858  19.331  0.00  0.00    +0.000 A 
ATOM     12  C   UNL     1       1.501   8.366  20.549  0.00  0.00    +0.000 A 
ATOM     13  C   UNL     1       0.693   9.510  20.600  0.00  0.00    +0.000 A 
ATOM     14  C   UNL     1       0.346  10.176  19.432  0.00  0.00    +0.000 A 
ATOM     15  C   UNL     1       0.825   9.709  18.215  0.00  0.00    +0.000 A 
ATOM     16  C   UNL     1       1.640   8.569  18.167  0.00  0.00    +0.000 A 
ENDBRANCH   7  11
BRANCH   1  17
ATOM     17  C   UNL     1       1.796   3.573  17.996  0.00  0.00    +0.000 C 
ATOM     18  O   UNL     1       1.709   4.393  17.092  0.00  0.00    +0.000 OA
BRANCH  17  20
ATOM     19  C   UNL     1       1.132   1.933  19.543  0.00  0.00    +0.000 C 
ATOM     20  O   UNL     1       0.790   2.765  18.432  0.00  0.00    +0.000 OA
ENDBRANCH  17  20
ENDBRANCH   1  17
BRANCH   3  21
ATOM     21  S   UNL     1       6.374   4.359  16.981  0.00  0.00    +0.000 S 
BRANCH  21  22
ATOM     22  C   UNL     1       5.839   5.392  15.592  0.00  0.00    +0.000 C 
BRANCH  22  23
ATOM     23  C   UNL     1       6.232   4.781  14.266  0.00  0.00    +0.000 A 
ATOM     24  C   UNL     1       7.392   5.213  13.604  0.00  0.00    +0.000 A 
ATOM     25  C   UNL     1       7.737   4.687  12.356  0.00  0.00    +0.000 A 
ATOM     26  C   UNL     1       6.925   3.728  11.753  0.00  0.00    +0.000 A 
ATOM     27  C   UNL     1       5.774   3.286  12.403  0.00  0.00    +0.000 A 
ATOM     28  C   UNL     1       5.427   3.808  13.652  0.00  0.00    +0.000 A 
ENDBRANCH  22  23
ENDBRANCH  21  22
ENDBRANCH   3  21
TORSDOF 6
ENDMDL
MODEL 4
REMARK VINA RESULT:      -8.1      1.781      2.907
REMARK  Name = 
REMARK  7 active torsions:
REMARK  status: ('A' for Active; 'I' for Inactive)
REMARK    1  A    between atoms: C_1  and  O_2
REMARK    2  A    between atoms: O_2  and  C_3
REMARK    3  A    between atoms: C_3  and  C_5
REMARK    4  A    between atoms: C_7  and  S_8
REMARK    5  A    between atoms: S_8  and  C_9
REMARK    6  A    between atoms: C_9  and  C_10
REMARK    7  A    between atoms: N_19  and  C_20
REMARK                            x       y       z     vdW  Elec       q    Type
REMARK                         _______ _______ _______ _____ _____    ______ ____
ROOT
ATOM      1  C   UNL     1       3.077   3.592  19.090  0.00  0.00    +0.000 C 
ATOM      2  N   UNL     1       4.147   3.353  18.080  0.00  0.00    +0.000 NA
ATOM      3  C   UNL     1       4.835   4.449  18.007  0.00  0.00    +0.000 C 
ATOM      4  C   UNL     1       4.458   5.550  18.925  0.00  0.00    +0.000 C 
ATOM      5  C   UNL     1       3.661   6.677  18.353  0.00  0.00    +0.000 C 
ATOM      6  O   UNL     1       4.040   7.296  17.370  0.00  0.00    +0.000 OA
ATOM      7  N   UNL     1       2.587   6.911  19.194  0.00  0.00    +0.000 N 
ATOM      8  C   UNL     1       2.415   5.862  20.072  0.00  0.00    +0.000 C 
ATOM      9  O   UNL     1       1.541   5.669  20.907  0.00  0.00    +0.000 OA
ATOM     10  C   UNL     1       3.493   4.845  19.846  0.00  0.00    +0.000 C 
ENDROOT
BRANCH   7  11
ATOM     11  C   UNL     1       1.790   8.101  19.180  0.00  0.00    +0.000 A 
ATOM     12  C   UNL     1       1.485   8.775  17.987  0.00  0.00    +0.000 A 
ATOM     13  C   UNL     1       0.789   9.992  17.986  0.00  0.00    +0.000 A 
ATOM     14  C   UNL     1       0.381  10.567  19.182  0.00  0.00    +0.000 A 
ATOM     15  C   UNL     1       0.650   9.912  20.377  0.00  0.00    +0.000 A 
ATOM     16  C   UNL     1       1.338   8.691  20.375  0.00  0.00    +0.000 A 
ENDBRANCH   7  11
BRANCH   1  17
ATOM     17  C   UNL     1       1.730   3.684  18.371  0.00  0.00    +0.000 C 
ATOM     18  O   UNL     1       1.572   4.235  17.290  0.00  0.00    +0.000 OA
BRANCH  17  20
ATOM     19  C   UNL     1       1.228   2.243  20.159  0.00  0.00    +0.000 C 
ATOM     20  O   UNL     1       0.752   3.078  19.101  0.00  0.00    +0.000 OA
ENDBRANCH  17  20
ENDBRANCH   1  17
BRANCH   3  21
ATOM     21  S   UNL     1       6.168   4.542  16.898  0.00  0.00    +0.000 S 
BRANCH  21  22
ATOM     22  C   UNL     1       5.637   3.534  15.489  0.00  0.00    +0.000 C 
BRANCH  22  23
ATOM     23  C   UNL     1       6.328   3.960  14.214  0.00  0.00    +0.000 A 
ATOM     24  C   UNL     1       7.315   4.958  14.243  0.00  0.00    +0.000 A 
ATOM     25  C   UNL     1       7.925   5.391  13.062  0.00  0.00    +0.000 A 
ATOM     26  C   UNL     1       7.552   4.837  11.840  0.00  0.00    +0.000 A 
ATOM     27  C   UNL     1       6.577   3.841  11.797  0.00  0.00    +0.000 A 
ATOM     28  C   UNL     1       5.967   3.405  12.976  0.00  0.00    +0.000 A 
ENDBRANCH  22  23
ENDBRANCH  21  22
ENDBRANCH   3  21
TORSDOF 6
ENDMDL
MODEL 5
REMARK VINA RESULT:      -8.1      0.364      1.328
REMARK  Name = 
REMARK  7 active torsions:
REMARK  status: ('A' for Active; 'I' for Inactive)
REMARK    1  A    between atoms: C_1  and  O_2
REMARK    2  A    between atoms: O_2  and  C_3
REMARK    3  A    between atoms: C_3  and  C_5
REMARK    4  A    between atoms: C_7  and  S_8
REMARK    5  A    between atoms: S_8  and  C_9
REMARK    6  A    between atoms: C_9  and  C_10
REMARK    7  A    between atoms: N_19  and  C_20
REMARK                            x       y       z     vdW  Elec       q    Type
REMARK                         _______ _______ _______ _____ _____    ______ ____
ROOT
ATOM      1  C   UNL     1       3.075   3.764  18.375  0.00  0.00    +0.000 C 
ATOM      2  N   UNL     1       3.723   3.683  17.035  0.00  0.00    +0.000 NA
ATOM      3  C   UNL     1       4.306   4.823  16.838  0.00  0.00    +0.000 C 
ATOM      4  C   UNL     1       4.247   5.815  17.937  0.00  0.00    +0.000 C 
ATOM      5  C   UNL     1       3.264   6.933  17.799  0.00  0.00    +0.000 C 
ATOM      6  O   UNL     1       3.250   7.656  16.815  0.00  0.00    +0.000 OA
ATOM      7  N   UNL     1       2.553   7.025  18.983  0.00  0.00    +0.000 N 
ATOM      8  C   UNL     1       2.737   5.896  19.753  0.00  0.00    +0.000 C 
ATOM      9  O   UNL     1       2.223   5.576  20.817  0.00  0.00    +0.000 OA
ATOM     10  C   UNL     1       3.694   4.973  19.061  0.00  0.00    +0.000 C 
ENDROOT
BRANCH   7  11
ATOM     11  C   UNL     1       1.767   8.158  19.372  0.00  0.00    +0.000 A 
ATOM     12  C   UNL     1       1.376   9.140  18.447  0.00  0.00    +0.000 A 
ATOM     13  C   UNL     1       0.692  10.296  18.848  0.00  0.00    +0.000 A 
ATOM     14  C   UNL     1       0.383  10.499  20.186  0.00  0.00    +0.000 A 
ATOM     15  C   UNL     1       0.739   9.535  21.120  0.00  0.00    +0.000 A 
ATOM     16  C   UNL     1       1.415   8.375  20.716  0.00  0.00    +0.000 A 
ENDBRANCH   7  11
BRANCH   1  17
ATOM     17  C   UNL     1       1.558   3.830  18.188  0.00  0.00    +0.000 C 
ATOM     18  O   UNL     1       1.013   4.392  17.248  0.00  0.00    +0.000 OA
BRANCH  17  20
ATOM     19  C   UNL     1       1.658   2.109  19.786  0.00  0.00    +0.000 C 
ATOM     20  O   UNL     1       0.919   3.187  19.204  0.00  0.00    +0.000 OA
ENDBRANCH  17  20
ENDBRANCH   1  17
BRANCH   3  21
ATOM     21  S   UNL     1       5.155   5.095  15.347  0.00  0.00    +0.000 S 
BRANCH  21  22
ATOM     22  C   UNL     1       6.874   4.678  15.738  0.00  0.00    +0.000 C 
BRANCH  22  23
ATOM     23  C   UNL     1       7.380   5.472  16.920  0.00  0.00    +0.000 A 
ATOM     24  C   UNL     1       7.709   4.823  18.121  0.00  0.00    +0.000 A 
ATOM     25  C   UNL     1       8.132   5.556  19.233  0.00  0.00    +0.000 A 
ATOM     26  C   UNL     1       8.227   6.944  19.161  0.00  0.00    +0.000 A 
ATOM     27  C   UNL     1       7.910   7.600  17.973  0.00  0.00    +0.000 A 
ATOM     28  C   UNL     1       7.487   6.871  16.858  0.00  0.00    +0.000 A 
ENDBRANCH  22  23
ENDBRANCH  21  22
ENDBRANCH   3  21
TORSDOF 6
ENDMDL
MODEL 6
REMARK VINA RESULT:      -8.0      4.657      7.776
REMARK  Name = 
REMARK  7 active torsions:
REMARK  status: ('A' for Active; 'I' for Inactive)
REMARK    1  A    between atoms: C_1  and  O_2
REMARK    2  A    between atoms: O_2  and  C_3
REMARK    3  A    between atoms: C_3  and  C_5
REMARK    4  A    between atoms: C_7  and  S_8
REMARK    5  A    between atoms: S_8  and  C_9
REMARK    6  A    between atoms: C_9  and  C_10
REMARK    7  A    between atoms: N_19  and  C_20
REMARK                            x       y       z     vdW  Elec       q    Type
REMARK                         _______ _______ _______ _____ _____    ______ ____
ROOT
ATOM      1  C   UNL     1       0.501  11.152  19.217  0.00  0.00    +0.000 C 
ATOM      2  N   UNL     1       1.347   9.967  19.535  0.00  0.00    +0.000 NA
ATOM      3  C   UNL     1       0.737   9.320  20.477  0.00  0.00    +0.000 C 
ATOM      4  C   UNL     1      -0.580   9.841  20.916  0.00  0.00    +0.000 C 
ATOM      5  C   UNL     1      -0.618  10.614  22.195  0.00  0.00    +0.000 C 
ATOM      6  O   UNL     1      -0.177  10.153  23.237  0.00  0.00    +0.000 OA
ATOM      7  N   UNL     1      -1.322  11.784  21.965  0.00  0.00    +0.000 N 
ATOM      8  C   UNL     1      -1.467  12.011  20.613  0.00  0.00    +0.000 C 
ATOM      9  O   UNL     1      -1.957  12.964  20.022  0.00  0.00    +0.000 OA
ATOM     10  C   UNL     1      -0.854  10.874  19.851  0.00  0.00    +0.000 C 
ENDROOT
BRANCH   7  11
ATOM     11  C   UNL     1      -1.860  12.622  22.994  0.00  0.00    +0.000 A 
ATOM     12  C   UNL     1      -3.128  12.390  23.551  0.00  0.00    +0.000 A 
ATOM     13  C   UNL     1      -3.693  13.268  24.487  0.00  0.00    +0.000 A 
ATOM     14  C   UNL     1      -3.003  14.403  24.888  0.00  0.00    +0.000 A 
ATOM     15  C   UNL     1      -1.738  14.648  24.370  0.00  0.00    +0.000 A 
ATOM     16  C   UNL     1      -1.171  13.764  23.442  0.00  0.00    +0.000 A 
ENDBRANCH   7  11
BRANCH   1  17
ATOM     17  C   UNL     1       1.207  12.413  19.720  0.00  0.00    +0.000 C 
ATOM     18  O   UNL     1       1.723  12.508  20.825  0.00  0.00    +0.000 OA
BRANCH  17  20
ATOM     19  C   UNL     1       2.442  13.719  18.205  0.00  0.00    +0.000 C 
ATOM     20  O   UNL     1       1.171  13.393  18.775  0.00  0.00    +0.000 OA
ENDBRANCH  17  20
ENDBRANCH   1  17
BRANCH   3  21
ATOM     21  S   UNL     1       1.456   7.876  21.119  0.00  0.00    +0.000 S 
BRANCH  21  22
ATOM     22  C   UNL     1       2.327   7.153  19.704  0.00  0.00    +0.000 C 
BRANCH  22  23
ATOM     23  C   UNL     1       1.962   5.698  19.516  0.00  0.00    +0.000 A 
ATOM     24  C   UNL     1       2.076   5.098  18.252  0.00  0.00    +0.000 A 
ATOM     25  C   UNL     1       1.696   3.767  18.060  0.00  0.00    +0.000 A 
ATOM     26  C   UNL     1       1.194   3.022  19.125  0.00  0.00    +0.000 A 
ATOM     27  C   UNL     1       1.081   3.605  20.386  0.00  0.00    +0.000 A 
ATOM     28  C   UNL     1       1.461   4.935  20.583  0.00  0.00    +0.000 A 
ENDBRANCH  22  23
ENDBRANCH  21  22
ENDBRANCH   3  21
TORSDOF 6
ENDMDL
MODEL 7
REMARK VINA RESULT:      -8.0      4.606      7.755
REMARK  Name = 
REMARK  7 active torsions:
REMARK  status: ('A' for Active; 'I' for Inactive)
REMARK    1  A    between atoms: C_1  and  O_2
REMARK    2  A    between atoms: O_2  and  C_3
REMARK    3  A    between atoms: C_3  and  C_5
REMARK    4  A    between atoms: C_7  and  S_8
REMARK    5  A    between atoms: S_8  and  C_9
REMARK    6  A    between atoms: C_9  and  C_10
REMARK    7  A    between atoms: N_19  and  C_20
REMARK                            x       y       z     vdW  Elec       q    Type
REMARK                         _______ _______ _______ _____ _____    ______ ____
ROOT
ATOM      1  C   UNL     1       0.435  11.030  18.975  0.00  0.00    +0.000 C 
ATOM      2  N   UNL     1       1.342   9.893  19.305  0.00  0.00    +0.000 NA
ATOM      3  C   UNL     1       0.810   9.280  20.316  0.00  0.00    +0.000 C 
ATOM      4  C   UNL     1      -0.497   9.781  20.804  0.00  0.00    +0.000 C 
ATOM      5  C   UNL     1      -0.491  10.623  22.038  0.00  0.00    +0.000 C 
ATOM      6  O   UNL     1       0.026  10.236  23.076  0.00  0.00    +0.000 OA
ATOM      7  N   UNL     1      -1.249  11.753  21.788  0.00  0.00    +0.000 N 
ATOM      8  C   UNL     1      -1.479  11.898  20.436  0.00  0.00    +0.000 C 
ATOM      9  O   UNL     1      -2.038  12.800  19.825  0.00  0.00    +0.000 OA
ATOM     10  C   UNL     1      -0.870  10.742  19.702  0.00  0.00    +0.000 C 
ENDROOT
BRANCH   7  11
ATOM     11  C   UNL     1      -1.758  12.630  22.800  0.00  0.00    +0.000 A 
ATOM     12  C   UNL     1      -3.041  12.463  23.347  0.00  0.00    +0.000 A 
ATOM     13  C   UNL     1      -3.574  13.379  24.265  0.00  0.00    +0.000 A 
ATOM     14  C   UNL     1      -2.836  14.487  24.658  0.00  0.00    +0.000 A 
ATOM     15  C   UNL     1      -1.556  14.667  24.150  0.00  0.00    +0.000 A 
ATOM     16  C   UNL     1      -1.021  13.745  23.239  0.00  0.00    +0.000 A 
ENDBRANCH   7  11
BRANCH   1  17
ATOM     17  C   UNL     1       1.122  12.340  19.365  0.00  0.00    +0.000 C 
ATOM     18  O   UNL     1       1.789  12.481  20.381  0.00  0.00    +0.000 OA
BRANCH  17  20
ATOM     19  C   UNL     1       0.915  14.643  18.942  0.00  0.00    +0.000 C 
ATOM     20  O   UNL     1       0.880  13.306  18.436  0.00  0.00    +0.000 OA
ENDBRANCH  17  20
ENDBRANCH   1  17
BRANCH   3  21
ATOM     21  S   UNL     1       1.619   7.900  20.992  0.00  0.00    +0.000 S 
BRANCH  21  22
ATOM     22  C   UNL     1       2.403   7.108  19.563  0.00  0.00    +0.000 C 
BRANCH  22  23
ATOM     23  C   UNL     1       1.943   5.678  19.402  0.00  0.00    +0.000 A 
ATOM     24  C   UNL     1       1.486   4.952  20.513  0.00  0.00    +0.000 A 
ATOM     25  C   UNL     1       1.103   3.615  20.381  0.00  0.00    +0.000 A 
ATOM     26  C   UNL     1       1.176   2.986  19.140  0.00  0.00    +0.000 A 
ATOM     27  C   UNL     1       1.622   3.697  18.027  0.00  0.00    +0.000 A 
ATOM     28  C   UNL     1       2.004   5.035  18.155  0.00  0.00    +0.000 A 
ENDBRANCH  22  23
ENDBRANCH  21  22
ENDBRANCH   3  21
TORSDOF 6
ENDMDL
MODEL 8
REMARK VINA RESULT:      -8.0      3.443      5.425
REMARK  Name = 
REMARK  7 active torsions:
REMARK  status: ('A' for Active; 'I' for Inactive)
REMARK    1  A    between atoms: C_1  and  O_2
REMARK    2  A    between atoms: O_2  and  C_3
REMARK    3  A    between atoms: C_3  and  C_5
REMARK    4  A    between atoms: C_7  and  S_8
REMARK    5  A    between atoms: S_8  and  C_9
REMARK    6  A    between atoms: C_9  and  C_10
REMARK    7  A    between atoms: N_19  and  C_20
REMARK                            x       y       z     vdW  Elec       q    Type
REMARK                         _______ _______ _______ _____ _____    ______ ____
ROOT
ATOM      1  C   UNL     1       6.969   5.288  15.859  0.00  0.00    +0.000 C 
ATOM      2  N   UNL     1       7.639   6.490  16.431  0.00  0.00    +0.000 NA
ATOM      3  C   UNL     1       7.574   6.371  17.720  0.00  0.00    +0.000 C 
ATOM      4  C   UNL     1       6.961   5.132  18.257  0.00  0.00    +0.000 C 
ATOM      5  C   UNL     1       5.557   5.225  18.759  0.00  0.00    +0.000 C 
ATOM      6  O   UNL     1       5.230   6.045  19.603  0.00  0.00    +0.000 OA
ATOM      7  N   UNL     1       4.836   4.182  18.204  0.00  0.00    +0.000 N 
ATOM      8  C   UNL     1       5.525   3.615  17.153  0.00  0.00    +0.000 C 
ATOM      9  O   UNL     1       5.189   2.731  16.376  0.00  0.00    +0.000 OA
ATOM     10  C   UNL     1       6.853   4.295  17.007  0.00  0.00    +0.000 C 
ENDROOT
BRANCH   7  11
ATOM     11  C   UNL     1       3.565   3.728  18.684  0.00  0.00    +0.000 A 
ATOM     12  C   UNL     1       2.370   4.014  18.003  0.00  0.00    +0.000 A 
ATOM     13  C   UNL     1       1.121   3.654  18.527  0.00  0.00    +0.000 A 
ATOM     14  C   UNL     1       1.035   2.999  19.748  0.00  0.00    +0.000 A 
ATOM     15  C   UNL     1       2.200   2.683  20.433  0.00  0.00    +0.000 A 
ATOM     16  C   UNL     1       3.449   3.037  19.904  0.00  0.00    +0.000 A 
ENDBRANCH   7  11
BRANCH   1  17
ATOM     17  C   UNL     1       5.641   5.713  15.231  0.00  0.00    +0.000 C 
ATOM     18  O   UNL     1       4.996   6.686  15.598  0.00  0.00    +0.000 OA
BRANCH  17  20
ATOM     19  C   UNL     1       6.390   4.253  13.548  0.00  0.00    +0.000 C 
ATOM     20  O   UNL     1       5.289   4.863  14.228  0.00  0.00    +0.000 OA
ENDBRANCH  17  20
ENDBRANCH   1  17
BRANCH   3  21
ATOM     21  S   UNL     1       8.244   7.620  18.723  0.00  0.00    +0.000 S 
BRANCH  21  22
ATOM     22  C   UNL     1       8.007   9.134  17.756  0.00  0.00    +0.000 C 
BRANCH  22  23
ATOM     23  C   UNL     1       8.727  10.306  18.381  0.00  0.00    +0.000 A 
ATOM     24  C   UNL     1       8.787  11.539  17.711  0.00  0.00    +0.000 A 
ATOM     25  C   UNL     1       9.491  12.614  18.260  0.00  0.00    +0.000 A 
ATOM     26  C   UNL     1      10.148  12.469  19.480  0.00  0.00    +0.000 A 
ATOM     27  C   UNL     1      10.092  11.252  20.158  0.00  0.00    +0.000 A 
ATOM     28  C   UNL     1       9.387  10.176  19.614  0.00  0.00    +0.000 A 
ENDBRANCH  22  23
ENDBRANCH  21  22
ENDBRANCH   3  21
TORSDOF 6
ENDMDL
MODEL 9
REMARK VINA RESULT:      -8.0      1.744      3.050
REMARK  Name = 
REMARK  7 active torsions:
REMARK  status: ('A' for Active; 'I' for Inactive)
REMARK    1  A    between atoms: C_1  and  O_2
REMARK    2  A    between atoms: O_2  and  C_3
REMARK    3  A    between atoms: C_3  and  C_5
REMARK    4  A    between atoms: C_7  and  S_8
REMARK    5  A    between atoms: S_8  and  C_9
REMARK    6  A    between atoms: C_9  and  C_10
REMARK    7  A    between atoms: N_19  and  C_20
REMARK                            x       y       z     vdW  Elec       q    Type
REMARK                         _______ _______ _______ _____ _____    ______ ____
ROOT
ATOM      1  C   UNL     1       3.371   3.332  18.756  0.00  0.00    +0.000 C 
ATOM      2  N   UNL     1       4.536   3.204  17.834  0.00  0.00    +0.000 NA
ATOM      3  C   UNL     1       5.212   4.305  17.940  0.00  0.00    +0.000 C 
ATOM      4  C   UNL     1       4.733   5.304  18.926  0.00  0.00    +0.000 C 
ATOM      5  C   UNL     1       3.977   6.480  18.398  0.00  0.00    +0.000 C 
ATOM      6  O   UNL     1       4.439   7.199  17.524  0.00  0.00    +0.000 OA
ATOM      7  N   UNL     1       2.825   6.620  19.152  0.00  0.00    +0.000 N 
ATOM      8  C   UNL     1       2.586   5.485  19.897  0.00  0.00    +0.000 C 
ATOM      9  O   UNL     1       1.640   5.203  20.620  0.00  0.00    +0.000 OA
ATOM     10  C   UNL     1       3.695   4.502  19.673  0.00  0.00    +0.000 C 
ENDROOT
BRANCH   7  11
ATOM     11  C   UNL     1       2.015   7.802  19.183  0.00  0.00    +0.000 A 
ATOM     12  C   UNL     1       1.702   8.517  18.016  0.00  0.00    +0.000 A 
ATOM     13  C   UNL     1       0.993   9.725  18.061  0.00  0.00    +0.000 A 
ATOM     14  C   UNL     1       0.581  10.250  19.278  0.00  0.00    +0.000 A 
ATOM     15  C   UNL     1       0.858   9.555  20.448  0.00  0.00    +0.000 A 
ATOM     16  C   UNL     1       1.559   8.342  20.399  0.00  0.00    +0.000 A 
ENDBRANCH   7  11
BRANCH   1  17
ATOM     17  C   UNL     1       2.097   3.491  17.924  0.00  0.00    +0.000 C 
ATOM     18  O   UNL     1       2.067   4.022  16.822  0.00  0.00    +0.000 OA
BRANCH  17  20
ATOM     19  C   UNL     1       1.327   1.857  19.429  0.00  0.00    +0.000 C 
ATOM     20  O   UNL     1       1.025   2.970  18.582  0.00  0.00    +0.000 OA
ENDBRANCH  17  20
ENDBRANCH   1  17
BRANCH   3  21
ATOM     21  S   UNL     1       6.642   4.518  16.980  0.00  0.00    +0.000 S 
BRANCH  21  22
ATOM     22  C   UNL     1       6.100   5.578  15.614  0.00  0.00    +0.000 C 
BRANCH  22  23
ATOM     23  C   UNL     1       6.284   4.895  14.278  0.00  0.00    +0.000 A 
ATOM     24  C   UNL     1       5.372   3.916  13.853  0.00  0.00    +0.000 A 
ATOM     25  C   UNL     1       5.561   3.246  12.641  0.00  0.00    +0.000 A 
ATOM     26  C   UNL     1       6.664   3.543  11.843  0.00  0.00    +0.000 A 
ATOM     27  C   UNL     1       7.574   4.517  12.251  0.00  0.00    +0.000 A 
ATOM     28  C   UNL     1       7.387   5.190  13.461  0.00  0.00    +0.000 A 
ENDBRANCH  22  23
ENDBRANCH  21  22
ENDBRANCH   3  21
TORSDOF 6
ENDMDL
