MODEL 1
REMARK VINA RESULT:      -6.9      0.000      0.000
REMARK  Name = 
REMARK  12 active torsions:
REMARK  status: ('A' for Active; 'I' for Inactive)
REMARK    1  A    between atoms: C_1  and  C_2
REMARK    2  A    between atoms: C_2  and  C_4
REMARK    3  A    between atoms: C_5  and  O_6
REMARK    4  A    between atoms: C_7  and  C_8
REMARK    5  A    between atoms: C_9  and  O_10
REMARK    6  A    between atoms: C_19  and  C_20
REMARK    7  A    between atoms: C_19  and  N_21
REMARK    8  A    between atoms: N_21  and  C_22
REMARK    9  A    between atoms: C_22  and  C_23
REMARK   10  A    between atoms: C_23  and  C_24
REMARK   11  A    between atoms: C_24  and  O_26
REMARK   12  A    between atoms: C_29  and  C_30
REMARK                            x       y       z     vdW  Elec       q    Type
REMARK                         _______ _______ _______ _____ _____    ______ ____
ROOT
ATOM      1  C   UNL     1      -5.811  13.398  22.055  0.00  0.00    +0.000 A 
ATOM      2  C   UNL     1      -6.144  14.520  21.264  0.00  0.00    +0.000 A 
ATOM      3  C   UNL     1      -5.158  15.315  20.632  0.00  0.00    +0.000 A 
ATOM      4  C   UNL     1      -5.524  16.538  19.836  0.00  0.00    +0.000 C 
ATOM      5  C   UNL     1      -3.812  14.973  20.809  0.00  0.00    +0.000 A 
ATOM      6  C   UNL     1      -3.477  13.892  21.603  0.00  0.00    +0.000 A 
ATOM      7  C   UNL     1      -4.465  13.141  22.247  0.00  0.00    +0.000 A 
ATOM      8  O   UNL     1      -3.913  12.207  23.099  0.00  0.00    +0.000 OA
ATOM      9  C   UNL     1      -2.535  12.217  22.881  0.00  0.00    +0.000 C 
ATOM     10  C   UNL     1      -1.761  11.177  23.211  0.00  0.00    +0.000 C 
ATOM     11  C   UNL     1      -0.495  11.017  22.446  0.00  0.00    +0.000 C 
ATOM     12  O   UNL     1       0.453  10.404  22.906  0.00  0.00    +0.000 OA
ATOM     13  C   UNL     1      -0.610  11.526  21.042  0.00  0.00    +0.000 C 
ATOM     14  C   UNL     1      -0.301  10.779  19.961  0.00  0.00    +0.000 C 
ATOM     15  C   UNL     1       0.558   9.533  20.004  0.00  0.00    +0.000 C 
ATOM     16  C   UNL     1      -1.280  12.859  20.846  0.00  0.00    +0.000 C 
ATOM     17  O   UNL     1      -1.054  13.544  19.846  0.00  0.00    +0.000 OA
ATOM     18  C   UNL     1      -2.122  13.383  22.000  0.00  0.00    +0.000 C 
ATOM     19  C   UNL     1      -1.329  14.456  22.759  0.00  0.00    +0.000 C 
ENDROOT
BRANCH   1  21
ATOM     20  C   UNL     1      -7.449  12.876  23.992  0.00  0.00    +0.000 C 
ATOM     21  C   UNL     1      -6.886  12.554  22.630  0.00  0.00    +0.000 C 
ATOM     22  O   UNL     1      -7.222  11.541  22.014  0.00  0.00    +0.000 OA
ENDBRANCH   1  21
BRANCH   2  23
ATOM     23  O   UNL     1      -7.453  14.904  21.097  0.00  0.00    +0.000 OA
ATOM     24  H   UNL     1      -7.607  15.072  20.139  0.00  0.00    +0.000 HD
ENDBRANCH   2  23
BRANCH   5  25
ATOM     25  O   UNL     1      -2.795  15.711  20.288  0.00  0.00    +0.000 OA
ATOM     26  H   UNL     1      -2.993  16.658  20.331  0.00  0.00    +0.000 HD
ENDBRANCH   5  25
BRANCH  14  27
ATOM     27  N   UNL     1      -0.839  11.041  18.687  0.00  0.00    +0.000 N 
ATOM     28  H   UNL     1      -0.125  10.953  17.965  0.00  0.00    +0.000 HD
BRANCH  27  29
ATOM     29  C   UNL     1      -2.071  10.328  18.291  0.00  0.00    +0.000 C 
BRANCH  29  30
ATOM     30  C   UNL     1      -1.964   9.801  16.869  0.00  0.00    +0.000 C 
BRANCH  30  31
ATOM     31  C   UNL     1      -2.649  10.750  15.922  0.00  0.00    +0.000 C 
ATOM     32  O   UNL     1      -2.753  10.593  14.714  0.00  0.00    +0.000 OA
BRANCH  31  33
ATOM     33  O   UNL     1      -3.152  11.839  16.552  0.00  0.00    +0.000 OA
ATOM     34  H   UNL     1      -2.948  12.684  16.107  0.00  0.00    +0.000 HD
ENDBRANCH  31  33
ENDBRANCH  30  31
ENDBRANCH  29  30
ENDBRANCH  27  29
ENDBRANCH  14  27
TORSDOF 8
ENDMDL
MODEL 2
REMARK VINA RESULT:      -6.3      0.980      1.214
REMARK  Name = 
REMARK  12 active torsions:
REMARK  status: ('A' for Active; 'I' for Inactive)
REMARK    1  A    between atoms: C_1  and  C_2
REMARK    2  A    between atoms: C_2  and  C_4
REMARK    3  A    between atoms: C_5  and  O_6
REMARK    4  A    between atoms: C_7  and  C_8
REMARK    5  A    between atoms: C_9  and  O_10
REMARK    6  A    between atoms: C_19  and  C_20
REMARK    7  A    between atoms: C_19  and  N_21
REMARK    8  A    between atoms: N_21  and  C_22
REMARK    9  A    between atoms: C_22  and  C_23
REMARK   10  A    between atoms: C_23  and  C_24
REMARK   11  A    between atoms: C_24  and  O_26
REMARK   12  A    between atoms: C_29  and  C_30
REMARK                            x       y       z     vdW  Elec       q    Type
REMARK                         _______ _______ _______ _____ _____    ______ ____
ROOT
ATOM      1  C   UNL     1      -5.162  13.483  22.088  0.00  0.00    +0.000 A 
ATOM      2  C   UNL     1      -5.461  14.670  21.383  0.00  0.00    +0.000 A 
ATOM      3  C   UNL     1      -4.459  15.438  20.742  0.00  0.00    +0.000 A 
ATOM      4  C   UNL     1      -4.785  16.727  20.039  0.00  0.00    +0.000 C 
ATOM      5  C   UNL     1      -3.132  15.001  20.822  0.00  0.00    +0.000 A 
ATOM      6  C   UNL     1      -2.828  13.854  21.533  0.00  0.00    +0.000 A 
ATOM      7  C   UNL     1      -3.828  13.130  22.189  0.00  0.00    +0.000 A 
ATOM      8  O   UNL     1      -3.295  12.113  22.952  0.00  0.00    +0.000 OA
ATOM      9  C   UNL     1      -1.932  12.049  22.658  0.00  0.00    +0.000 C 
ATOM     10  C   UNL     1      -1.213  10.943  22.882  0.00  0.00    +0.000 C 
ATOM     11  C   UNL     1      -0.003  10.750  22.039  0.00  0.00    +0.000 C 
ATOM     12  O   UNL     1       0.925  10.052  22.408  0.00  0.00    +0.000 OA
ATOM     13  C   UNL     1      -0.159  11.350  20.675  0.00  0.00    +0.000 C 
ATOM     14  C   UNL     1       0.041  10.651  19.537  0.00  0.00    +0.000 C 
ATOM     15  C   UNL     1       0.817   9.353  19.460  0.00  0.00    +0.000 C 
ATOM     16  C   UNL     1      -0.748  12.732  20.593  0.00  0.00    +0.000 C 
ATOM     17  O   UNL     1      -0.531  13.460  19.622  0.00  0.00    +0.000 OA
ATOM     18  C   UNL     1      -1.490  13.237  21.822  0.00  0.00    +0.000 C 
ATOM     19  C   UNL     1      -0.588  14.210  22.594  0.00  0.00    +0.000 C 
ENDROOT
BRANCH   1  21
ATOM     20  C   UNL     1      -6.483  12.682  24.167  0.00  0.00    +0.000 C 
ATOM     21  C   UNL     1      -6.259  12.675  22.676  0.00  0.00    +0.000 C 
ATOM     22  O   UNL     1      -6.899  11.935  21.928  0.00  0.00    +0.000 OA
ENDBRANCH   1  21
BRANCH   2  23
ATOM     23  O   UNL     1      -6.749  15.145  21.314  0.00  0.00    +0.000 OA
ATOM     24  H   UNL     1      -6.731  16.025  20.871  0.00  0.00    +0.000 HD
ENDBRANCH   2  23
BRANCH   5  25
ATOM     25  O   UNL     1      -2.097  15.702  20.287  0.00  0.00    +0.000 OA
ATOM     26  H   UNL     1      -1.678  15.210  19.565  0.00  0.00    +0.000 HD
ENDBRANCH   5  25
BRANCH  14  27
ATOM     27  N   UNL     1      -0.545  11.023  18.313  0.00  0.00    +0.000 N 
ATOM     28  H   UNL     1       0.138  10.993  17.558  0.00  0.00    +0.000 HD
BRANCH  27  29
ATOM     29  C   UNL     1      -1.799  10.353  17.909  0.00  0.00    +0.000 C 
BRANCH  29  30
ATOM     30  C   UNL     1      -2.643  11.259  17.027  0.00  0.00    +0.000 C 
BRANCH  30  31
ATOM     31  C   UNL     1      -3.978  11.502  17.679  0.00  0.00    +0.000 C 
ATOM     32  O   UNL     1      -4.148  11.830  18.845  0.00  0.00    +0.000 OA
BRANCH  31  33
ATOM     33  O   UNL     1      -5.014  11.311  16.827  0.00  0.00    +0.000 OA
ATOM     34  H   UNL     1      -5.385  10.408  16.849  0.00  0.00    +0.000 HD
ENDBRANCH  31  33
ENDBRANCH  30  31
ENDBRANCH  29  30
ENDBRANCH  27  29
ENDBRANCH  14  27
TORSDOF 8
ENDMDL
MODEL 3
REMARK VINA RESULT:      -6.2      2.925      5.769
REMARK  Name = 
REMARK  12 active torsions:
REMARK  status: ('A' for Active; 'I' for Inactive)
REMARK    1  A    between atoms: C_1  and  C_2
REMARK    2  A    between atoms: C_2  and  C_4
REMARK    3  A    between atoms: C_5  and  O_6
REMARK    4  A    between atoms: C_7  and  C_8
REMARK    5  A    between atoms: C_9  and  O_10
REMARK    6  A    between atoms: C_19  and  C_20
REMARK    7  A    between atoms: C_19  and  N_21
REMARK    8  A    between atoms: N_21  and  C_22
REMARK    9  A    between atoms: C_22  and  C_23
REMARK   10  A    between atoms: C_23  and  C_24
REMARK   11  A    between atoms: C_24  and  O_26
REMARK   12  A    between atoms: C_29  and  C_30
REMARK                            x       y       z     vdW  Elec       q    Type
REMARK                         _______ _______ _______ _____ _____    ______ ____
ROOT
ATOM      1  C   UNL     1       0.153  16.067  19.662  0.00  0.00    +0.000 A 
ATOM      2  C   UNL     1       1.437  15.674  19.224  0.00  0.00    +0.000 A 
ATOM      3  C   UNL     1       1.796  14.314  19.070  0.00  0.00    +0.000 A 
ATOM      4  C   UNL     1       3.184  13.908  18.653  0.00  0.00    +0.000 C 
ATOM      5  C   UNL     1       0.842  13.335  19.370  0.00  0.00    +0.000 A 
ATOM      6  C   UNL     1      -0.408  13.711  19.825  0.00  0.00    +0.000 A 
ATOM      7  C   UNL     1      -0.731  15.059  20.004  0.00  0.00    +0.000 A 
ATOM      8  O   UNL     1      -1.966  15.207  20.598  0.00  0.00    +0.000 OA
ATOM      9  C   UNL     1      -2.551  13.941  20.650  0.00  0.00    +0.000 C 
ATOM     10  C   UNL     1      -3.874  13.779  20.765  0.00  0.00    +0.000 C 
ATOM     11  C   UNL     1      -4.441  12.510  20.234  0.00  0.00    +0.000 C 
ATOM     12  O   UNL     1      -5.502  12.069  20.638  0.00  0.00    +0.000 OA
ATOM     13  C   UNL     1      -3.660  11.982  19.070  0.00  0.00    +0.000 C 
ATOM     14  C   UNL     1      -4.225  11.679  17.881  0.00  0.00    +0.000 C 
ATOM     15  C   UNL     1      -5.706  11.436  17.680  0.00  0.00    +0.000 C 
ATOM     16  C   UNL     1      -2.160  11.980  19.190  0.00  0.00    +0.000 C 
ATOM     17  O   UNL     1      -1.469  11.210  18.519  0.00  0.00    +0.000 OA
ATOM     18  C   UNL     1      -1.556  12.856  20.278  0.00  0.00    +0.000 C 
ATOM     19  C   UNL     1      -1.153  11.977  21.470  0.00  0.00    +0.000 C 
ENDROOT
BRANCH   1  21
ATOM     20  C   UNL     1      -1.205  18.085  18.773  0.00  0.00    +0.000 C 
ATOM     21  C   UNL     1      -0.195  17.507  19.733  0.00  0.00    +0.000 C 
ATOM     22  O   UNL     1       0.433  18.219  20.518  0.00  0.00    +0.000 OA
ENDBRANCH   1  21
BRANCH   2  23
ATOM     23  O   UNL     1       2.409  16.608  18.953  0.00  0.00    +0.000 OA
ATOM     24  H   UNL     1       2.630  17.077  19.791  0.00  0.00    +0.000 HD
ENDBRANCH   2  23
BRANCH   5  25
ATOM     25  O   UNL     1       1.114  12.003  19.306  0.00  0.00    +0.000 OA
ATOM     26  H   UNL     1       0.464  11.540  18.757  0.00  0.00    +0.000 HD
ENDBRANCH   5  25
BRANCH  14  27
ATOM     27  N   UNL     1      -3.489  11.654  16.683  0.00  0.00    +0.000 N 
ATOM     28  H   UNL     1      -2.511  11.432  16.860  0.00  0.00    +0.000 HD
BRANCH  27  29
ATOM     29  C   UNL     1      -4.012  10.847  15.560  0.00  0.00    +0.000 C 
BRANCH  29  30
ATOM     30  C   UNL     1      -2.895  10.076  14.874  0.00  0.00    +0.000 C 
BRANCH  30  31
ATOM     31  C   UNL     1      -3.240   9.864  13.425  0.00  0.00    +0.000 C 
ATOM     32  O   UNL     1      -4.357   9.975  12.938  0.00  0.00    +0.000 OA
BRANCH  31  33
ATOM     33  O   UNL     1      -2.163   9.519  12.680  0.00  0.00    +0.000 OA
ATOM     34  H   UNL     1      -1.794  10.254  12.151  0.00  0.00    +0.000 HD
ENDBRANCH  31  33
ENDBRANCH  30  31
ENDBRANCH  29  30
ENDBRANCH  27  29
ENDBRANCH  14  27
TORSDOF 8
ENDMDL
MODEL 4
REMARK VINA RESULT:      -6.2      2.369      6.394
REMARK  Name = 
REMARK  12 active torsions:
REMARK  status: ('A' for Active; 'I' for Inactive)
REMARK    1  A    between atoms: C_1  and  C_2
REMARK    2  A    between atoms: C_2  and  C_4
REMARK    3  A    between atoms: C_5  and  O_6
REMARK    4  A    between atoms: C_7  and  C_8
REMARK    5  A    between atoms: C_9  and  O_10
REMARK    6  A    between atoms: C_19  and  C_20
REMARK    7  A    between atoms: C_19  and  N_21
REMARK    8  A    between atoms: N_21  and  C_22
REMARK    9  A    between atoms: C_22  and  C_23
REMARK   10  A    between atoms: C_23  and  C_24
REMARK   11  A    between atoms: C_24  and  O_26
REMARK   12  A    between atoms: C_29  and  C_30
REMARK                            x       y       z     vdW  Elec       q    Type
REMARK                         _______ _______ _______ _____ _____    ______ ____
ROOT
ATOM      1  C   UNL     1      -0.961  12.249  19.703  0.00  0.00    +0.000 A 
ATOM      2  C   UNL     1      -0.429  10.999  20.090  0.00  0.00    +0.000 A 
ATOM      3  C   UNL     1      -0.610  10.473  21.392  0.00  0.00    +0.000 A 
ATOM      4  C   UNL     1       0.006   9.165  21.806  0.00  0.00    +0.000 C 
ATOM      5  C   UNL     1      -1.336  11.229  22.320  0.00  0.00    +0.000 A 
ATOM      6  C   UNL     1      -1.837  12.466  21.957  0.00  0.00    +0.000 A 
ATOM      7  C   UNL     1      -1.616  12.982  20.676  0.00  0.00    +0.000 A 
ATOM      8  O   UNL     1      -2.072  14.279  20.570  0.00  0.00    +0.000 OA
ATOM      9  C   UNL     1      -2.768  14.567  21.745  0.00  0.00    +0.000 C 
ATOM     10  C   UNL     1      -3.677  15.547  21.805  0.00  0.00    +0.000 C 
ATOM     11  C   UNL     1      -4.743  15.408  22.833  0.00  0.00    +0.000 C 
ATOM     12  O   UNL     1      -5.344  16.378  23.260  0.00  0.00    +0.000 OA
ATOM     13  C   UNL     1      -5.080  13.976  23.114  0.00  0.00    +0.000 C 
ATOM     14  C   UNL     1      -6.337  13.488  23.044  0.00  0.00    +0.000 C 
ATOM     15  C   UNL     1      -7.585  14.344  23.085  0.00  0.00    +0.000 C 
ATOM     16  C   UNL     1      -3.931  13.020  23.290  0.00  0.00    +0.000 C 
ATOM     17  O   UNL     1      -4.068  11.970  23.922  0.00  0.00    +0.000 OA
ATOM     18  C   UNL     1      -2.570  13.479  22.787  0.00  0.00    +0.000 C 
ATOM     19  C   UNL     1      -1.718  13.938  23.978  0.00  0.00    +0.000 C 
ENDROOT
BRANCH   1  21
ATOM     20  C   UNL     1       0.072  13.902  17.998  0.00  0.00    +0.000 C 
ATOM     21  C   UNL     1      -0.808  12.717  18.304  0.00  0.00    +0.000 C 
ATOM     22  O   UNL     1      -1.493  12.177  17.433  0.00  0.00    +0.000 OA
ENDBRANCH   1  21
BRANCH   2  23
ATOM     23  O   UNL     1       0.317  10.246  19.214  0.00  0.00    +0.000 OA
ATOM     24  H   UNL     1       1.208  10.105  19.609  0.00  0.00    +0.000 HD
ENDBRANCH   2  23
BRANCH   5  25
ATOM     25  O   UNL     1      -1.513  10.832  23.609  0.00  0.00    +0.000 OA
ATOM     26  H   UNL     1      -2.360  11.148  23.958  0.00  0.00    +0.000 HD
ENDBRANCH   5  25
BRANCH  14  27
ATOM     27  N   UNL     1      -6.604  12.124  22.828  0.00  0.00    +0.000 N 
ATOM     28  H   UNL     1      -6.653  11.618  23.710  0.00  0.00    +0.000 HD
BRANCH  27  29
ATOM     29  C   UNL     1      -7.743  11.766  21.957  0.00  0.00    +0.000 C 
BRANCH  29  30
ATOM     30  C   UNL     1      -7.282  11.500  20.533  0.00  0.00    +0.000 C 
BRANCH  30  31
ATOM     31  C   UNL     1      -7.279  10.019  20.268  0.00  0.00    +0.000 C 
ATOM     32  O   UNL     1      -7.051   9.493  19.187  0.00  0.00    +0.000 OA
BRANCH  31  33
ATOM     33  O   UNL     1      -7.571   9.293  21.373  0.00  0.00    +0.000 OA
ATOM     34  H   UNL     1      -7.675   8.336  21.204  0.00  0.00    +0.000 HD
ENDBRANCH  31  33
ENDBRANCH  30  31
ENDBRANCH  29  30
ENDBRANCH  27  29
ENDBRANCH  14  27
TORSDOF 8
ENDMDL
MODEL 5
REMARK VINA RESULT:      -6.2      3.998      7.333
REMARK  Name = 
REMARK  12 active torsions:
REMARK  status: ('A' for Active; 'I' for Inactive)
REMARK    1  A    between atoms: C_1  and  C_2
REMARK    2  A    between atoms: C_2  and  C_4
REMARK    3  A    between atoms: C_5  and  O_6
REMARK    4  A    between atoms: C_7  and  C_8
REMARK    5  A    between atoms: C_9  and  O_10
REMARK    6  A    between atoms: C_19  and  C_20
REMARK    7  A    between atoms: C_19  and  N_21
REMARK    8  A    between atoms: N_21  and  C_22
REMARK    9  A    between atoms: C_22  and  C_23
REMARK   10  A    between atoms: C_23  and  C_24
REMARK   11  A    between atoms: C_24  and  O_26
REMARK   12  A    between atoms: C_29  and  C_30
REMARK                            x       y       z     vdW  Elec       q    Type
REMARK                         _______ _______ _______ _____ _____    ______ ____
ROOT
ATOM      1  C   UNL     1       0.433  10.058  21.449  0.00  0.00    +0.000 A 
ATOM      2  C   UNL     1       1.130   9.013  20.804  0.00  0.00    +0.000 A 
ATOM      3  C   UNL     1       1.575   9.119  19.464  0.00  0.00    +0.000 A 
ATOM      4  C   UNL     1       2.271   7.978  18.773  0.00  0.00    +0.000 C 
ATOM      5  C   UNL     1       1.304  10.300  18.764  0.00  0.00    +0.000 A 
ATOM      6  C   UNL     1       0.597  11.317  19.379  0.00  0.00    +0.000 A 
ATOM      7  C   UNL     1       0.136  11.177  20.692  0.00  0.00    +0.000 A 
ATOM      8  O   UNL     1      -0.663  12.239  21.060  0.00  0.00    +0.000 OA
ATOM      9  C   UNL     1      -0.585  13.186  20.038  0.00  0.00    +0.000 C 
ATOM     10  C   UNL     1      -0.878  14.475  20.246  0.00  0.00    +0.000 C 
ATOM     11  C   UNL     1      -0.230  15.463  19.342  0.00  0.00    +0.000 C 
ATOM     12  O   UNL     1      -0.714  16.564  19.151  0.00  0.00    +0.000 OA
ATOM     13  C   UNL     1       1.118  15.005  18.873  0.00  0.00    +0.000 C 
ATOM     14  C   UNL     1       2.236  15.750  19.009  0.00  0.00    +0.000 C 
ATOM     15  C   UNL     1       2.239  17.244  19.256  0.00  0.00    +0.000 C 
ATOM     16  C   UNL     1       1.239  13.579  18.410  0.00  0.00    +0.000 C 
ATOM     17  O   UNL     1       2.135  13.235  17.636  0.00  0.00    +0.000 OA
ATOM     18  C   UNL     1       0.124  12.626  18.817  0.00  0.00    +0.000 C 
ATOM     19  C   UNL     1      -0.817  12.408  17.625  0.00  0.00    +0.000 C 
ENDROOT
BRANCH   1  21
ATOM     20  C   UNL     1      -1.288  10.414  23.351  0.00  0.00    +0.000 C 
ATOM     21  C   UNL     1       0.057   9.925  22.878  0.00  0.00    +0.000 C 
ATOM     22  O   UNL     1       0.907   9.505  23.665  0.00  0.00    +0.000 OA
ENDBRANCH   1  21
BRANCH   2  23
ATOM     23  O   UNL     1       1.384   7.827  21.452  0.00  0.00    +0.000 OA
ATOM     24  H   UNL     1       0.932   7.849  22.326  0.00  0.00    +0.000 HD
ENDBRANCH   2  23
BRANCH   5  25
ATOM     25  O   UNL     1       1.641  10.470  17.457  0.00  0.00    +0.000 OA
ATOM     26  H   UNL     1       2.534  10.835  17.372  0.00  0.00    +0.000 HD
ENDBRANCH   5  25
BRANCH  14  27
ATOM     27  N   UNL     1       3.521  15.180  19.031  0.00  0.00    +0.000 N 
ATOM     28  H   UNL     1       3.909  15.119  18.091  0.00  0.00    +0.000 HD
BRANCH  27  29
ATOM     29  C   UNL     1       4.516  15.739  19.970  0.00  0.00    +0.000 C 
BRANCH  29  30
ATOM     30  C   UNL     1       4.994  14.683  20.954  0.00  0.00    +0.000 C 
BRANCH  30  31
ATOM     31  C   UNL     1       3.840  14.217  21.800  0.00  0.00    +0.000 C 
ATOM     32  O   UNL     1       2.989  13.409  21.455  0.00  0.00    +0.000 OA
BRANCH  31  33
ATOM     33  O   UNL     1       3.823  14.801  23.022  0.00  0.00    +0.000 OA
ATOM     34  H   UNL     1       4.537  14.499  23.616  0.00  0.00    +0.000 HD
ENDBRANCH  31  33
ENDBRANCH  30  31
ENDBRANCH  29  30
ENDBRANCH  27  29
ENDBRANCH  14  27
TORSDOF 8
ENDMDL
MODEL 6
REMARK VINA RESULT:      -6.1      3.746      7.273
REMARK  Name = 
REMARK  12 active torsions:
REMARK  status: ('A' for Active; 'I' for Inactive)
REMARK    1  A    between atoms: C_1  and  C_2
REMARK    2  A    between atoms: C_2  and  C_4
REMARK    3  A    between atoms: C_5  and  O_6
REMARK    4  A    between atoms: C_7  and  C_8
REMARK    5  A    between atoms: C_9  and  O_10
REMARK    6  A    between atoms: C_19  and  C_20
REMARK    7  A    between atoms: C_19  and  N_21
REMARK    8  A    between atoms: N_21  and  C_22
REMARK    9  A    between atoms: C_22  and  C_23
REMARK   10  A    between atoms: C_23  and  C_24
REMARK   11  A    between atoms: C_24  and  O_26
REMARK   12  A    between atoms: C_29  and  C_30
REMARK                            x       y       z     vdW  Elec       q    Type
REMARK                         _______ _______ _______ _____ _____    ______ ____
ROOT
ATOM      1  C   UNL     1       0.657  10.930  19.454  0.00  0.00    +0.000 A 
ATOM      2  C   UNL     1      -0.092  10.617  20.610  0.00  0.00    +0.000 A 
ATOM      3  C   UNL     1      -0.273  11.545  21.663  0.00  0.00    +0.000 A 
ATOM      4  C   UNL     1      -1.030  11.181  22.911  0.00  0.00    +0.000 C 
ATOM      5  C   UNL     1       0.319  12.807  21.548  0.00  0.00    +0.000 A 
ATOM      6  C   UNL     1       1.077  13.111  20.432  0.00  0.00    +0.000 A 
ATOM      7  C   UNL     1       1.273  12.168  19.419  0.00  0.00    +0.000 A 
ATOM      8  O   UNL     1       2.171  12.621  18.476  0.00  0.00    +0.000 OA
ATOM      9  C   UNL     1       2.439  13.958  18.772  0.00  0.00    +0.000 C 
ATOM     10  C   UNL     1       2.915  14.804  17.851  0.00  0.00    +0.000 C 
ATOM     11  C   UNL     1       2.617  16.247  18.051  0.00  0.00    +0.000 C 
ATOM     12  O   UNL     1       3.314  17.115  17.556  0.00  0.00    +0.000 OA
ATOM     13  C   UNL     1       1.312  16.466  18.752  0.00  0.00    +0.000 C 
ATOM     14  C   UNL     1       0.336  17.260  18.260  0.00  0.00    +0.000 C 
ATOM     15  C   UNL     1       0.555  18.320  17.202  0.00  0.00    +0.000 C 
ATOM     16  C   UNL     1       1.022  15.609  19.955  0.00  0.00    +0.000 C 
ATOM     17  O   UNL     1       0.227  15.976  20.822  0.00  0.00    +0.000 OA
ATOM     18  C   UNL     1       1.864  14.352  20.122  0.00  0.00    +0.000 C 
ATOM     19  C   UNL     1       2.943  14.602  21.184  0.00  0.00    +0.000 C 
ENDROOT
BRANCH   1  21
ATOM     20  C   UNL     1       2.082   9.334  17.994  0.00  0.00    +0.000 C 
ATOM     21  C   UNL     1       0.751   9.948  18.345  0.00  0.00    +0.000 C 
ATOM     22  O   UNL     1      -0.258   9.737  17.670  0.00  0.00    +0.000 OA
ENDBRANCH   1  21
BRANCH   2  23
ATOM     23  O   UNL     1      -0.660   9.375  20.770  0.00  0.00    +0.000 OA
ATOM     24  H   UNL     1      -1.557   9.493  21.158  0.00  0.00    +0.000 HD
ENDBRANCH   2  23
BRANCH   5  25
ATOM     25  O   UNL     1       0.248  13.742  22.534  0.00  0.00    +0.000 OA
ATOM     26  H   UNL     1       0.086  14.624  22.167  0.00  0.00    +0.000 HD
ENDBRANCH   5  25
BRANCH  14  27
ATOM     27  N   UNL     1      -1.014  17.105  18.622  0.00  0.00    +0.000 N 
ATOM     28  H   UNL     1      -1.101  16.853  19.606  0.00  0.00    +0.000 HD
BRANCH  27  29
ATOM     29  C   UNL     1      -1.957  18.189  18.277  0.00  0.00    +0.000 C 
BRANCH  29  30
ATOM     30  C   UNL     1      -2.854  18.530  19.456  0.00  0.00    +0.000 C 
BRANCH  30  31
ATOM     31  C   UNL     1      -2.791  17.427  20.479  0.00  0.00    +0.000 C 
ATOM     32  O   UNL     1      -3.431  16.386  20.439  0.00  0.00    +0.000 OA
BRANCH  31  33
ATOM     33  O   UNL     1      -1.934  17.706  21.490  0.00  0.00    +0.000 OA
ATOM     34  H   UNL     1      -2.275  17.471  22.375  0.00  0.00    +0.000 HD
ENDBRANCH  31  33
ENDBRANCH  30  31
ENDBRANCH  29  30
ENDBRANCH  27  29
ENDBRANCH  14  27
TORSDOF 8
ENDMDL
MODEL 7
REMARK VINA RESULT:      -6.1      4.565      7.777
REMARK  Name = 
REMARK  12 active torsions:
REMARK  status: ('A' for Active; 'I' for Inactive)
REMARK    1  A    between atoms: C_1  and  C_2
REMARK    2  A    between atoms: C_2  and  C_4
REMARK    3  A    between atoms: C_5  and  O_6
REMARK    4  A    between atoms: C_7  and  C_8
REMARK    5  A    between atoms: C_9  and  O_10
REMARK    6  A    between atoms: C_19  and  C_20
REMARK    7  A    between atoms: C_19  and  N_21
REMARK    8  A    between atoms: N_21  and  C_22
REMARK    9  A    between atoms: C_22  and  C_23
REMARK   10  A    between atoms: C_23  and  C_24
REMARK   11  A    between atoms: C_24  and  O_26
REMARK   12  A    between atoms: C_29  and  C_30
REMARK                            x       y       z     vdW  Elec       q    Type
REMARK                         _______ _______ _______ _____ _____    ______ ____
ROOT
ATOM      1  C   UNL     1       0.873   9.688  21.378  0.00  0.00    +0.000 A 
ATOM      2  C   UNL     1       1.418   8.664  20.572  0.00  0.00    +0.000 A 
ATOM      3  C   UNL     1       1.729   8.865  19.206  0.00  0.00    +0.000 A 
ATOM      4  C   UNL     1       2.260   7.751  18.346  0.00  0.00    +0.000 C 
ATOM      5  C   UNL     1       1.478  10.122  18.644  0.00  0.00    +0.000 A 
ATOM      6  C   UNL     1       0.919  11.122  19.419  0.00  0.00    +0.000 A 
ATOM      7  C   UNL     1       0.587  10.891  20.758  0.00  0.00    +0.000 A 
ATOM      8  O   UNL     1      -0.085  11.965  21.302  0.00  0.00    +0.000 OA
ATOM      9  C   UNL     1      -0.041  12.996  20.363  0.00  0.00    +0.000 C 
ATOM     10  C   UNL     1      -0.212  14.277  20.713  0.00  0.00    +0.000 C 
ATOM     11  C   UNL     1       0.414  15.299  19.832  0.00  0.00    +0.000 C 
ATOM     12  O   UNL     1      -0.001  16.444  19.792  0.00  0.00    +0.000 OA
ATOM     13  C   UNL     1       1.666  14.799  19.180  0.00  0.00    +0.000 C 
ATOM     14  C   UNL     1       2.847  15.451  19.256  0.00  0.00    +0.000 C 
ATOM     15  C   UNL     1       2.990  16.911  19.629  0.00  0.00    +0.000 C 
ATOM     16  C   UNL     1       1.629  13.417  18.584  0.00  0.00    +0.000 C 
ATOM     17  O   UNL     1       2.411  13.088  17.690  0.00  0.00    +0.000 OA
ATOM     18  C   UNL     1       0.493  12.507  19.028  0.00  0.00    +0.000 C 
ATOM     19  C   UNL     1      -0.581  12.466  17.932  0.00  0.00    +0.000 C 
ENDROOT
BRANCH   1  21
ATOM     20  C   UNL     1      -0.770   9.390  23.358  0.00  0.00    +0.000 C 
ATOM     21  C   UNL     1       0.639   9.447  22.823  0.00  0.00    +0.000 C 
ATOM     22  O   UNL     1       1.618   9.398  23.570  0.00  0.00    +0.000 OA
ENDBRANCH   1  21
BRANCH   2  23
ATOM     23  O   UNL     1       1.646   7.408  21.083  0.00  0.00    +0.000 OA
ATOM     24  H   UNL     1       2.379   6.994  20.572  0.00  0.00    +0.000 HD
ENDBRANCH   2  23
BRANCH   5  25
ATOM     25  O   UNL     1       1.690  10.392  17.328  0.00  0.00    +0.000 OA
ATOM     26  H   UNL     1       2.372   9.812  16.959  0.00  0.00    +0.000 HD
ENDBRANCH   5  25
BRANCH  14  27
ATOM     27  N   UNL     1       4.080  14.796  19.087  0.00  0.00    +0.000 N 
ATOM     28  H   UNL     1       3.945  13.796  18.941  0.00  0.00    +0.000 HD
BRANCH  27  29
ATOM     29  C   UNL     1       5.029  15.343  18.095  0.00  0.00    +0.000 C 
BRANCH  29  30
ATOM     30  C   UNL     1       6.447  15.354  18.644  0.00  0.00    +0.000 C 
BRANCH  30  31
ATOM     31  C   UNL     1       7.360  14.607  17.709  0.00  0.00    +0.000 C 
ATOM     32  O   UNL     1       7.221  13.441  17.364  0.00  0.00    +0.000 OA
BRANCH  31  33
ATOM     33  O   UNL     1       8.392  15.368  17.272  0.00  0.00    +0.000 OA
ATOM     34  H   UNL     1       9.268  14.953  17.389  0.00  0.00    +0.000 HD
ENDBRANCH  31  33
ENDBRANCH  30  31
ENDBRANCH  29  30
ENDBRANCH  27  29
ENDBRANCH  14  27
TORSDOF 8
ENDMDL
MODEL 8
REMARK VINA RESULT:      -6.1      3.883      7.249
REMARK  Name = 
REMARK  12 active torsions:
REMARK  status: ('A' for Active; 'I' for Inactive)
REMARK    1  A    between atoms: C_1  and  C_2
REMARK    2  A    between atoms: C_2  and  C_4
REMARK    3  A    between atoms: C_5  and  O_6
REMARK    4  A    between atoms: C_7  and  C_8
REMARK    5  A    between atoms: C_9  and  O_10
REMARK    6  A    between atoms: C_19  and  C_20
REMARK    7  A    between atoms: C_19  and  N_21
REMARK    8  A    between atoms: N_21  and  C_22
REMARK    9  A    between atoms: C_22  and  C_23
REMARK   10  A    between atoms: C_23  and  C_24
REMARK   11  A    between atoms: C_24  and  O_26
REMARK   12  A    between atoms: C_29  and  C_30
REMARK                            x       y       z     vdW  Elec       q    Type
REMARK                         _______ _______ _______ _____ _____    ______ ____
ROOT
ATOM      1  C   UNL     1       0.334   9.403  20.994  0.00  0.00    +0.000 A 
ATOM      2  C   UNL     1       1.200   8.570  20.252  0.00  0.00    +0.000 A 
ATOM      3  C   UNL     1       1.743   8.966  19.007  0.00  0.00    +0.000 A 
ATOM      4  C   UNL     1       2.622   8.047  18.202  0.00  0.00    +0.000 C 
ATOM      5  C   UNL     1       1.399  10.225  18.500  0.00  0.00    +0.000 A 
ATOM      6  C   UNL     1       0.531  11.036  19.208  0.00  0.00    +0.000 A 
ATOM      7  C   UNL     1      -0.022  10.610  20.420  0.00  0.00    +0.000 A 
ATOM      8  O   UNL     1      -0.966  11.502  20.883  0.00  0.00    +0.000 OA
ATOM      9  C   UNL     1      -0.910  12.626  20.058  0.00  0.00    +0.000 C 
ATOM     10  C   UNL     1      -1.366  13.819  20.458  0.00  0.00    +0.000 C 
ATOM     11  C   UNL     1      -0.760  15.016  19.815  0.00  0.00    +0.000 C 
ATOM     12  O   UNL     1      -1.349  16.081  19.772  0.00  0.00    +0.000 OA
ATOM     13  C   UNL     1       0.666  14.787  19.418  0.00  0.00    +0.000 C 
ATOM     14  C   UNL     1       1.676  15.598  19.800  0.00  0.00    +0.000 C 
ATOM     15  C   UNL     1       1.487  17.013  20.305  0.00  0.00    +0.000 C 
ATOM     16  C   UNL     1       0.990  13.490  18.725  0.00  0.00    +0.000 C 
ATOM     17  O   UNL     1       1.982  13.385  18.001  0.00  0.00    +0.000 OA
ATOM     18  C   UNL     1      -0.040  12.375  18.839  0.00  0.00    +0.000 C 
ATOM     19  C   UNL     1      -0.844  12.292  17.535  0.00  0.00    +0.000 C 
ENDROOT
BRANCH   1  21
ATOM     20  C   UNL     1       0.432   9.595  23.575  0.00  0.00    +0.000 C 
ATOM     21  C   UNL     1      -0.144   8.970  22.330  0.00  0.00    +0.000 C 
ATOM     22  O   UNL     1      -0.938   8.029  22.386  0.00  0.00    +0.000 OA
ENDBRANCH   1  21
BRANCH   2  23
ATOM     23  O   UNL     1       1.532   7.314  20.704  0.00  0.00    +0.000 OA
ATOM     24  H   UNL     1       2.460   7.338  21.032  0.00  0.00    +0.000 HD
ENDBRANCH   2  23
BRANCH   5  25
ATOM     25  O   UNL     1       1.825  10.668  17.287  0.00  0.00    +0.000 OA
ATOM     26  H   UNL     1       2.782  10.550  17.189  0.00  0.00    +0.000 HD
ENDBRANCH   5  25
BRANCH  14  27
ATOM     27  N   UNL     1       3.012  15.161  19.855  0.00  0.00    +0.000 N 
ATOM     28  H   UNL     1       3.234  14.566  19.059  0.00  0.00    +0.000 HD
BRANCH  27  29
ATOM     29  C   UNL     1       4.069  16.174  20.060  0.00  0.00    +0.000 C 
BRANCH  29  30
ATOM     30  C   UNL     1       4.826  16.443  18.769  0.00  0.00    +0.000 C 
BRANCH  30  31
ATOM     31  C   UNL     1       4.712  15.252  17.855  0.00  0.00    +0.000 C 
ATOM     32  O   UNL     1       5.437  14.267  17.882  0.00  0.00    +0.000 OA
BRANCH  31  33
ATOM     33  O   UNL     1       3.702  15.378  16.962  0.00  0.00    +0.000 OA
ATOM     34  H   UNL     1       3.448  14.539  16.530  0.00  0.00    +0.000 HD
ENDBRANCH  31  33
ENDBRANCH  30  31
ENDBRANCH  29  30
ENDBRANCH  27  29
ENDBRANCH  14  27
TORSDOF 8
ENDMDL
MODEL 9
REMARK VINA RESULT:      -6.0      4.148      7.555
REMARK  Name = 
REMARK  12 active torsions:
REMARK  status: ('A' for Active; 'I' for Inactive)
REMARK    1  A    between atoms: C_1  and  C_2
REMARK    2  A    between atoms: C_2  and  C_4
REMARK    3  A    between atoms: C_5  and  O_6
REMARK    4  A    between atoms: C_7  and  C_8
REMARK    5  A    between atoms: C_9  and  O_10
REMARK    6  A    between atoms: C_19  and  C_20
REMARK    7  A    between atoms: C_19  and  N_21
REMARK    8  A    between atoms: N_21  and  C_22
REMARK    9  A    between atoms: C_22  and  C_23
REMARK   10  A    between atoms: C_23  and  C_24
REMARK   11  A    between atoms: C_24  and  O_26
REMARK   12  A    between atoms: C_29  and  C_30
REMARK                            x       y       z     vdW  Elec       q    Type
REMARK                         _______ _______ _______ _____ _____    ______ ____
ROOT
ATOM      1  C   UNL     1       0.516   9.960  21.429  0.00  0.00    +0.000 A 
ATOM      2  C   UNL     1       1.179   8.906  20.762  0.00  0.00    +0.000 A 
ATOM      3  C   UNL     1       1.603   9.015  19.416  0.00  0.00    +0.000 A 
ATOM      4  C   UNL     1       2.261   7.866  18.702  0.00  0.00    +0.000 C 
ATOM      5  C   UNL     1       1.346  10.209  18.732  0.00  0.00    +0.000 A 
ATOM      6  C   UNL     1       0.674  11.235  19.370  0.00  0.00    +0.000 A 
ATOM      7  C   UNL     1       0.232  11.093  20.689  0.00  0.00    +0.000 A 
ATOM      8  O   UNL     1      -0.536  12.169  21.081  0.00  0.00    +0.000 OA
ATOM      9  C   UNL     1      -0.454  13.124  20.067  0.00  0.00    +0.000 C 
ATOM     10  C   UNL     1      -0.714  14.417  20.293  0.00  0.00    +0.000 C 
ATOM     11  C   UNL     1      -0.059  15.399  19.387  0.00  0.00    +0.000 C 
ATOM     12  O   UNL     1      -0.521  16.513  19.216  0.00  0.00    +0.000 OA
ATOM     13  C   UNL     1       1.269  14.916  18.891  0.00  0.00    +0.000 C 
ATOM     14  C   UNL     1       2.406  15.634  19.015  0.00  0.00    +0.000 C 
ATOM     15  C   UNL     1       2.447  17.125  19.276  0.00  0.00    +0.000 C 
ATOM     16  C   UNL     1       1.350  13.492  18.411  0.00  0.00    +0.000 C 
ATOM     17  O   UNL     1       2.224  13.136  17.619  0.00  0.00    +0.000 OA
ATOM     18  C   UNL     1       0.221  12.560  18.829  0.00  0.00    +0.000 C 
ATOM     19  C   UNL     1      -0.745  12.376  17.651  0.00  0.00    +0.000 C 
ENDROOT
BRANCH   1  21
ATOM     20  C   UNL     1      -1.207  10.229  23.344  0.00  0.00    +0.000 C 
ATOM     21  C   UNL     1       0.163   9.821  22.864  0.00  0.00    +0.000 C 
ATOM     22  O   UNL     1       1.045   9.464  23.647  0.00  0.00    +0.000 OA
ENDBRANCH   1  21
BRANCH   2  23
ATOM     23  O   UNL     1       1.417   7.708  21.394  0.00  0.00    +0.000 OA
ATOM     24  H   UNL     1       1.634   7.893  22.336  0.00  0.00    +0.000 HD
ENDBRANCH   2  23
BRANCH   5  25
ATOM     25  O   UNL     1       1.665  10.385  17.421  0.00  0.00    +0.000 OA
ATOM     26  H   UNL     1       2.413  10.992  17.323  0.00  0.00    +0.000 HD
ENDBRANCH   5  25
BRANCH  14  27
ATOM     27  N   UNL     1       3.679  15.035  19.008  0.00  0.00    +0.000 N 
ATOM     28  H   UNL     1       4.295  15.494  18.340  0.00  0.00    +0.000 HD
BRANCH  27  29
ATOM     29  C   UNL     1       4.365  14.842  20.303  0.00  0.00    +0.000 C 
BRANCH  29  30
ATOM     30  C   UNL     1       5.839  15.202  20.199  0.00  0.00    +0.000 C 
BRANCH  30  31
ATOM     31  C   UNL     1       6.104  15.887  18.886  0.00  0.00    +0.000 C 
ATOM     32  O   UNL     1       5.982  17.086  18.675  0.00  0.00    +0.000 OA
BRANCH  31  33
ATOM     33  O   UNL     1       6.499  15.024  17.920  0.00  0.00    +0.000 OA
ATOM     34  H   UNL     1       5.931  14.234  17.838  0.00  0.00    +0.000 HD
ENDBRANCH  31  33
ENDBRANCH  30  31
ENDBRANCH  29  30
ENDBRANCH  27  29
ENDBRANCH  14  27
TORSDOF 8
ENDMDL
