MODEL 1
REMARK VINA RESULT:      -7.2      0.000      0.000
REMARK  Name = 
REMARK  6 active torsions:
REMARK  status: ('A' for Active; 'I' for Inactive)
REMARK    1  A    between atoms: C_1  and  N_2
REMARK    2  A    between atoms: N_2  and  C_3
REMARK    3  A    between atoms: N_2  and  S_26
REMARK    4  A    between atoms: C_3  and  C_4
REMARK    5  A    between atoms: C_15  and  C_16
REMARK    6  A    between atoms: S_26  and  C_27
REMARK                            x       y       z     vdW  Elec       q    Type
REMARK                         _______ _______ _______ _____ _____    ______ ____
ROOT
ATOM      1  C   UNL     1       1.374   8.924  19.525  0.00  0.00    +0.000 A 
ATOM      2  C   UNL     1       1.701   7.669  19.988  0.00  0.00    +0.000 A 
ATOM      3  C   UNL     1       2.585   6.947  19.124  0.00  0.00    +0.000 A 
ATOM      4  C   UNL     1       3.124   5.645  19.183  0.00  0.00    +0.000 A 
ATOM      5  N   UNL     1       2.765   4.738  20.153  0.00  0.00    +0.000 N 
ATOM      6  C   UNL     1       3.701   3.731  20.652  0.00  0.00    +0.000 C 
ATOM      7  C   UNL     1       3.082   2.327  20.570  0.00  0.00    +0.000 C 
ATOM      8  O   UNL     1       1.775   2.275  21.170  0.00  0.00    +0.000 OA
ATOM      9  C   UNL     1       0.892   3.184  20.500  0.00  0.00    +0.000 C 
ATOM     10  C   UNL     1       1.385   4.625  20.633  0.00  0.00    +0.000 C 
ATOM     11  N   UNL     1       4.014   5.293  18.229  0.00  0.00    +0.000 NA
ATOM     12  C   UNL     1       4.306   6.148  17.221  0.00  0.00    +0.000 A 
ATOM     13  N   UNL     1       3.809   7.388  17.078  0.00  0.00    +0.000 NA
ATOM     14  C   UNL     1       2.967   7.737  18.056  0.00  0.00    +0.000 A 
ATOM     15  S   UNL     1       2.211   9.272  18.075  0.00  0.00    +0.000 S 
ENDROOT
BRANCH  12  16
ATOM     16  C   UNL     1       5.214   5.669  16.180  0.00  0.00    +0.000 A 
ATOM     17  C   UNL     1       4.835   4.816  15.160  0.00  0.00    +0.000 A 
ATOM     18  N   UNL     1       5.652   4.373  14.173  0.00  0.00    +0.000 NA
ATOM     19  C   UNL     1       6.911   4.817  14.198  0.00  0.00    +0.000 A 
ATOM     20  N   UNL     1       7.769   4.379  13.212  0.00  0.00    +0.000 N 
ATOM     21  N   UNL     1       7.407   5.620  15.138  0.00  0.00    +0.000 NA
ATOM     22  C   UNL     1       6.547   6.033  16.099  0.00  0.00    +0.000 A 
ATOM     23  H   UNL     1       7.438   3.502  12.837  0.00  0.00    +0.000 HD
ATOM     24  H   UNL     1       8.719   4.411  13.552  0.00  0.00    +0.000 HD
ENDBRANCH  12  16
BRANCH   1  25
ATOM     25  C   UNL     1       0.392   9.870  20.143  0.00  0.00    +0.000 C 
BRANCH  25  27
ATOM     26  C   UNL     1       1.226  12.221  20.365  0.00  0.00    +0.000 C 
ATOM     27  N   UNL     1       0.491  11.227  19.546  0.00  0.00    +0.000 NA
BRANCH  27  28
ATOM     28  S   UNL     1      -1.015  11.799  18.965  0.00  0.00    +0.000 S 
ATOM     29  C   UNL     1      -1.500  10.433  17.937  0.00  0.00    +0.000 C 
ATOM     30  O   UNL     1      -1.920  11.890  20.091  0.00  0.00    +0.000 OA
ATOM     31  O   UNL     1      -0.778  12.930  18.096  0.00  0.00    +0.000 OA
ENDBRANCH  27  28
ENDBRANCH  25  27
ENDBRANCH   1  25
TORSDOF 4
ENDMDL
MODEL 2
REMARK VINA RESULT:      -7.2      1.277      1.400
REMARK  Name = 
REMARK  6 active torsions:
REMARK  status: ('A' for Active; 'I' for Inactive)
REMARK    1  A    between atoms: C_1  and  N_2
REMARK    2  A    between atoms: N_2  and  C_3
REMARK    3  A    between atoms: N_2  and  S_26
REMARK    4  A    between atoms: C_3  and  C_4
REMARK    5  A    between atoms: C_15  and  C_16
REMARK    6  A    between atoms: S_26  and  C_27
REMARK                            x       y       z     vdW  Elec       q    Type
REMARK                         _______ _______ _______ _____ _____    ______ ____
ROOT
ATOM      1  C   UNL     1       1.084   8.984  19.562  0.00  0.00    +0.000 A 
ATOM      2  C   UNL     1       1.432   7.738  20.035  0.00  0.00    +0.000 A 
ATOM      3  C   UNL     1       2.403   7.064  19.228  0.00  0.00    +0.000 A 
ATOM      4  C   UNL     1       2.991   5.786  19.312  0.00  0.00    +0.000 A 
ATOM      5  N   UNL     1       2.607   4.854  20.247  0.00  0.00    +0.000 N 
ATOM      6  C   UNL     1       3.549   3.881  20.801  0.00  0.00    +0.000 C 
ATOM      7  C   UNL     1       2.997   2.453  20.665  0.00  0.00    +0.000 C 
ATOM      8  O   UNL     1       1.656   2.340  21.174  0.00  0.00    +0.000 OA
ATOM      9  C   UNL     1       0.783   3.218  20.454  0.00  0.00    +0.000 C 
ATOM     10  C   UNL     1       1.203   4.677  20.632  0.00  0.00    +0.000 C 
ATOM     11  N   UNL     1       3.958   5.482  18.417  0.00  0.00    +0.000 NA
ATOM     12  C   UNL     1       4.280   6.360  17.440  0.00  0.00    +0.000 A 
ATOM     13  N   UNL     1       3.742   7.579  17.274  0.00  0.00    +0.000 NA
ATOM     14  C   UNL     1       2.821   7.881  18.195  0.00  0.00    +0.000 A 
ATOM     15  S   UNL     1       2.001   9.383  18.176  0.00  0.00    +0.000 S 
ENDROOT
BRANCH  12  16
ATOM     16  C   UNL     1       5.276   5.931  16.458  0.00  0.00    +0.000 A 
ATOM     17  C   UNL     1       4.984   5.153  15.353  0.00  0.00    +0.000 A 
ATOM     18  N   UNL     1       5.884   4.759  14.420  0.00  0.00    +0.000 NA
ATOM     19  C   UNL     1       7.141   5.175  14.591  0.00  0.00    +0.000 A 
ATOM     20  N   UNL     1       8.082   4.785  13.664  0.00  0.00    +0.000 N 
ATOM     21  N   UNL     1       7.557   5.907  15.625  0.00  0.00    +0.000 NA
ATOM     22  C   UNL     1       6.615   6.274  16.526  0.00  0.00    +0.000 A 
ATOM     23  H   UNL     1       7.777   3.941  13.202  0.00  0.00    +0.000 HD
ATOM     24  H   UNL     1       8.997   4.777  14.092  0.00  0.00    +0.000 HD
ENDBRANCH  12  16
BRANCH   1  25
ATOM     25  C   UNL     1       0.022   9.881  20.120  0.00  0.00    +0.000 C 
BRANCH  25  27
ATOM     26  C   UNL     1      -0.077  10.015  22.619  0.00  0.00    +0.000 C 
ATOM     27  N   UNL     1       0.480  10.563  21.359  0.00  0.00    +0.000 NA
BRANCH  27  28
ATOM     28  S   UNL     1       0.373  12.268  21.246  0.00  0.00    +0.000 S 
ATOM     29  C   UNL     1      -0.302  12.438  19.612  0.00  0.00    +0.000 C 
ATOM     30  O   UNL     1      -0.606  12.716  22.214  0.00  0.00    +0.000 OA
ATOM     31  O   UNL     1       1.711  12.816  21.220  0.00  0.00    +0.000 OA
ENDBRANCH  27  28
ENDBRANCH  25  27
ENDBRANCH   1  25
TORSDOF 4
ENDMDL
MODEL 3
REMARK VINA RESULT:      -7.1      0.774      1.255
REMARK  Name = 
REMARK  6 active torsions:
REMARK  status: ('A' for Active; 'I' for Inactive)
REMARK    1  A    between atoms: C_1  and  N_2
REMARK    2  A    between atoms: N_2  and  C_3
REMARK    3  A    between atoms: N_2  and  S_26
REMARK    4  A    between atoms: C_3  and  C_4
REMARK    5  A    between atoms: C_15  and  C_16
REMARK    6  A    between atoms: S_26  and  C_27
REMARK                            x       y       z     vdW  Elec       q    Type
REMARK                         _______ _______ _______ _____ _____    ______ ____
ROOT
ATOM      1  C   UNL     1       1.113   9.053  19.561  0.00  0.00    +0.000 A 
ATOM      2  C   UNL     1       1.452   7.802  20.025  0.00  0.00    +0.000 A 
ATOM      3  C   UNL     1       2.414   7.125  19.211  0.00  0.00    +0.000 A 
ATOM      4  C   UNL     1       2.992   5.841  19.285  0.00  0.00    +0.000 A 
ATOM      5  N   UNL     1       2.603   4.906  20.215  0.00  0.00    +0.000 N 
ATOM      6  C   UNL     1       3.540   3.922  20.759  0.00  0.00    +0.000 C 
ATOM      7  C   UNL     1       2.975   2.500  20.617  0.00  0.00    +0.000 C 
ATOM      8  O   UNL     1       1.635   2.394  21.130  0.00  0.00    +0.000 OA
ATOM      9  C   UNL     1       0.766   3.284  20.418  0.00  0.00    +0.000 C 
ATOM     10  C   UNL     1       1.199   4.739  20.604  0.00  0.00    +0.000 C 
ATOM     11  N   UNL     1       3.953   5.534  18.385  0.00  0.00    +0.000 NA
ATOM     12  C   UNL     1       4.280   6.416  17.412  0.00  0.00    +0.000 A 
ATOM     13  N   UNL     1       3.752   7.641  17.255  0.00  0.00    +0.000 NA
ATOM     14  C   UNL     1       2.836   7.945  18.181  0.00  0.00    +0.000 A 
ATOM     15  S   UNL     1       2.029   9.454  18.174  0.00  0.00    +0.000 S 
ENDROOT
BRANCH  12  16
ATOM     16  C   UNL     1       5.269   5.986  16.424  0.00  0.00    +0.000 A 
ATOM     17  C   UNL     1       6.615   6.296  16.494  0.00  0.00    +0.000 A 
ATOM     18  N   UNL     1       7.553   5.894  15.603  0.00  0.00    +0.000 NA
ATOM     19  C   UNL     1       7.128   5.128  14.595  0.00  0.00    +0.000 A 
ATOM     20  N   UNL     1       8.056   4.709  13.667  0.00  0.00    +0.000 N 
ATOM     21  N   UNL     1       5.856   4.779  14.400  0.00  0.00    +0.000 NA
ATOM     22  C   UNL     1       4.962   5.207  15.322  0.00  0.00    +0.000 A 
ATOM     23  H   UNL     1       8.844   5.339  13.664  0.00  0.00    +0.000 HD
ATOM     24  H   UNL     1       7.597   4.532  12.785  0.00  0.00    +0.000 HD
ENDBRANCH  12  16
BRANCH   1  25
ATOM     25  C   UNL     1       0.060   9.955  20.129  0.00  0.00    +0.000 C 
BRANCH  25  27
ATOM     26  C   UNL     1       0.635  12.298  20.803  0.00  0.00    +0.000 C 
ATOM     27  N   UNL     1       0.267  11.366  19.710  0.00  0.00    +0.000 NA
BRANCH  27  28
ATOM     28  S   UNL     1      -0.998  11.946  18.713  0.00  0.00    +0.000 S 
ATOM     29  C   UNL     1      -2.235  12.298  19.939  0.00  0.00    +0.000 C 
ATOM     30  O   UNL     1      -0.557  13.188  18.113  0.00  0.00    +0.000 OA
ATOM     31  O   UNL     1      -1.490  10.853  17.904  0.00  0.00    +0.000 OA
ENDBRANCH  27  28
ENDBRANCH  25  27
ENDBRANCH   1  25
TORSDOF 4
ENDMDL
MODEL 4
REMARK VINA RESULT:      -7.1      1.510      1.834
REMARK  Name = 
REMARK  6 active torsions:
REMARK  status: ('A' for Active; 'I' for Inactive)
REMARK    1  A    between atoms: C_1  and  N_2
REMARK    2  A    between atoms: N_2  and  C_3
REMARK    3  A    between atoms: N_2  and  S_26
REMARK    4  A    between atoms: C_3  and  C_4
REMARK    5  A    between atoms: C_15  and  C_16
REMARK    6  A    between atoms: S_26  and  C_27
REMARK                            x       y       z     vdW  Elec       q    Type
REMARK                         _______ _______ _______ _____ _____    ______ ____
ROOT
ATOM      1  C   UNL     1       0.809   9.038  19.848  0.00  0.00    +0.000 A 
ATOM      2  C   UNL     1       1.217   7.791  20.266  0.00  0.00    +0.000 A 
ATOM      3  C   UNL     1       2.223   7.204  19.434  0.00  0.00    +0.000 A 
ATOM      4  C   UNL     1       2.874   5.954  19.463  0.00  0.00    +0.000 A 
ATOM      5  N   UNL     1       2.533   4.962  20.352  0.00  0.00    +0.000 N 
ATOM      6  C   UNL     1       3.521   4.013  20.866  0.00  0.00    +0.000 C 
ATOM      7  C   UNL     1       3.041   2.567  20.662  0.00  0.00    +0.000 C 
ATOM      8  O   UNL     1       1.706   2.363  21.157  0.00  0.00    +0.000 OA
ATOM      9  C   UNL     1       0.792   3.229  20.473  0.00  0.00    +0.000 C 
ATOM     10  C   UNL     1       1.139   4.698  20.721  0.00  0.00    +0.000 C 
ATOM     11  N   UNL     1       3.858   5.739  18.561  0.00  0.00    +0.000 NA
ATOM     12  C   UNL     1       4.140   6.677  17.626  0.00  0.00    +0.000 A 
ATOM     13  N   UNL     1       3.542   7.874  17.513  0.00  0.00    +0.000 NA
ATOM     14  C   UNL     1       2.604   8.088  18.442  0.00  0.00    +0.000 A 
ATOM     15  S   UNL     1       1.710   9.546  18.487  0.00  0.00    +0.000 S 
ENDROOT
BRANCH  12  16
ATOM     16  C   UNL     1       5.159   6.344  16.631  0.00  0.00    +0.000 A 
ATOM     17  C   UNL     1       6.518   6.484  16.843  0.00  0.00    +0.000 A 
ATOM     18  N   UNL     1       7.482   6.165  15.946  0.00  0.00    +0.000 NA
ATOM     19  C   UNL     1       7.067   5.666  14.779  0.00  0.00    +0.000 A 
ATOM     20  N   UNL     1       8.023   5.339  13.841  0.00  0.00    +0.000 N 
ATOM     21  N   UNL     1       5.788   5.504  14.441  0.00  0.00    +0.000 NA
ATOM     22  C   UNL     1       4.868   5.838  15.377  0.00  0.00    +0.000 A 
ATOM     23  H   UNL     1       8.865   5.867  14.015  0.00  0.00    +0.000 HD
ATOM     24  H   UNL     1       7.621   5.391  12.916  0.00  0.00    +0.000 HD
ENDBRANCH  12  16
BRANCH   1  25
ATOM     25  C   UNL     1      -0.298   9.855  20.441  0.00  0.00    +0.000 C 
BRANCH  25  27
ATOM     26  C   UNL     1      -0.393   9.699  22.939  0.00  0.00    +0.000 C 
ATOM     27  N   UNL     1       0.096  10.438  21.749  0.00  0.00    +0.000 NA
BRANCH  27  28
ATOM     28  S   UNL     1      -0.189  12.125  21.827  0.00  0.00    +0.000 S 
ATOM     29  C   UNL     1      -1.416  12.301  20.554  0.00  0.00    +0.000 C 
ATOM     30  O   UNL     1      -0.793  12.414  23.111  0.00  0.00    +0.000 OA
ATOM     31  O   UNL     1       0.999  12.818  21.382  0.00  0.00    +0.000 OA
ENDBRANCH  27  28
ENDBRANCH  25  27
ENDBRANCH   1  25
TORSDOF 4
ENDMDL
MODEL 5
REMARK VINA RESULT:      -6.9      1.289      1.601
REMARK  Name = 
REMARK  6 active torsions:
REMARK  status: ('A' for Active; 'I' for Inactive)
REMARK    1  A    between atoms: C_1  and  N_2
REMARK    2  A    between atoms: N_2  and  C_3
REMARK    3  A    between atoms: N_2  and  S_26
REMARK    4  A    between atoms: C_3  and  C_4
REMARK    5  A    between atoms: C_15  and  C_16
REMARK    6  A    between atoms: S_26  and  C_27
REMARK                            x       y       z     vdW  Elec       q    Type
REMARK                         _______ _______ _______ _____ _____    ______ ____
ROOT
ATOM      1  C   UNL     1       0.980   8.886  19.647  0.00  0.00    +0.000 A 
ATOM      2  C   UNL     1       1.336   7.633  20.094  0.00  0.00    +0.000 A 
ATOM      3  C   UNL     1       2.336   6.997  19.292  0.00  0.00    +0.000 A 
ATOM      4  C   UNL     1       2.943   5.725  19.355  0.00  0.00    +0.000 A 
ATOM      5  N   UNL     1       2.550   4.761  20.254  0.00  0.00    +0.000 N 
ATOM      6  C   UNL     1       3.494   3.788  20.803  0.00  0.00    +0.000 C 
ATOM      7  C   UNL     1       2.968   2.356  20.615  0.00  0.00    +0.000 C 
ATOM      8  O   UNL     1       1.617   2.208  21.087  0.00  0.00    +0.000 OA
ATOM      9  C   UNL     1       0.748   3.093  20.369  0.00  0.00    +0.000 C 
ATOM     10  C   UNL     1       1.140   4.553  20.599  0.00  0.00    +0.000 C 
ATOM     11  N   UNL     1       3.935   5.461  18.477  0.00  0.00    +0.000 NA
ATOM     12  C   UNL     1       4.268   6.372  17.532  0.00  0.00    +0.000 A 
ATOM     13  N   UNL     1       3.715   7.587  17.387  0.00  0.00    +0.000 NA
ATOM     14  C   UNL     1       2.767   7.849  18.293  0.00  0.00    +0.000 A 
ATOM     15  S   UNL     1       1.924   9.338  18.296  0.00  0.00    +0.000 S 
ENDROOT
BRANCH  12  16
ATOM     16  C   UNL     1       5.294   5.986  16.564  0.00  0.00    +0.000 A 
ATOM     17  C   UNL     1       5.056   5.177  15.469  0.00  0.00    +0.000 A 
ATOM     18  N   UNL     1       5.984   4.821  14.548  0.00  0.00    +0.000 NA
ATOM     19  C   UNL     1       7.214   5.310  14.722  0.00  0.00    +0.000 A 
ATOM     20  N   UNL     1       8.183   4.961  13.807  0.00  0.00    +0.000 N 
ATOM     21  N   UNL     1       7.580   6.079  15.748  0.00  0.00    +0.000 NA
ATOM     22  C   UNL     1       6.611   6.405  16.636  0.00  0.00    +0.000 A 
ATOM     23  H   UNL     1       7.929   4.094  13.356  0.00  0.00    +0.000 HD
ATOM     24  H   UNL     1       9.093   5.011  14.242  0.00  0.00    +0.000 HD
ENDBRANCH  12  16
BRANCH   1  25
ATOM     25  C   UNL     1      -0.109   9.751  20.204  0.00  0.00    +0.000 C 
BRANCH  25  27
ATOM     26  C   UNL     1       0.567   9.682  22.614  0.00  0.00    +0.000 C 
ATOM     27  N   UNL     1       0.350  10.504  21.399  0.00  0.00    +0.000 NA
BRANCH  27  28
ATOM     28  S   UNL     1      -0.580  11.913  21.683  0.00  0.00    +0.000 S 
ATOM     29  C   UNL     1      -1.475  11.417  23.136  0.00  0.00    +0.000 C 
ATOM     30  O   UNL     1       0.330  12.984  22.029  0.00  0.00    +0.000 OA
ATOM     31  O   UNL     1      -1.541  12.059  20.613  0.00  0.00    +0.000 OA
ENDBRANCH  27  28
ENDBRANCH  25  27
ENDBRANCH   1  25
TORSDOF 4
ENDMDL
MODEL 6
REMARK VINA RESULT:      -6.6      3.838     10.011
REMARK  Name = 
REMARK  6 active torsions:
REMARK  status: ('A' for Active; 'I' for Inactive)
REMARK    1  A    between atoms: C_1  and  N_2
REMARK    2  A    between atoms: N_2  and  C_3
REMARK    3  A    between atoms: N_2  and  S_26
REMARK    4  A    between atoms: C_3  and  C_4
REMARK    5  A    between atoms: C_15  and  C_16
REMARK    6  A    between atoms: S_26  and  C_27
REMARK                            x       y       z     vdW  Elec       q    Type
REMARK                         _______ _______ _______ _____ _____    ______ ____
ROOT
ATOM      1  C   UNL     1       1.717   8.155  20.217  0.00  0.00    +0.000 A 
ATOM      2  C   UNL     1       0.884   8.880  19.393  0.00  0.00    +0.000 A 
ATOM      3  C   UNL     1       0.083   9.843  20.084  0.00  0.00    +0.000 A 
ATOM      4  C   UNL     1      -0.914  10.741  19.652  0.00  0.00    +0.000 A 
ATOM      5  N   UNL     1      -1.380  10.763  18.358  0.00  0.00    +0.000 N 
ATOM      6  C   UNL     1      -1.844  11.998  17.725  0.00  0.00    +0.000 C 
ATOM      7  C   UNL     1      -3.250  11.810  17.134  0.00  0.00    +0.000 C 
ATOM      8  O   UNL     1      -3.334  10.644  16.296  0.00  0.00    +0.000 OA
ATOM      9  C   UNL     1      -3.018   9.471  17.056  0.00  0.00    +0.000 C 
ATOM     10  C   UNL     1      -1.586   9.532  17.589  0.00  0.00    +0.000 C 
ATOM     11  N   UNL     1      -1.428  11.594  20.566  0.00  0.00    +0.000 NA
ATOM     12  C   UNL     1      -1.038  11.519  21.860  0.00  0.00    +0.000 A 
ATOM     13  N   UNL     1      -0.121  10.671  22.354  0.00  0.00    +0.000 NA
ATOM     14  C   UNL     1       0.410   9.867  21.427  0.00  0.00    +0.000 A 
ATOM     15  S   UNL     1       1.597   8.702  21.832  0.00  0.00    +0.000 S 
ENDROOT
BRANCH  12  16
ATOM     16  C   UNL     1      -1.696  12.417  22.809  0.00  0.00    +0.000 A 
ATOM     17  C   UNL     1      -1.137  13.594  23.272  0.00  0.00    +0.000 A 
ATOM     18  N   UNL     1      -1.734  14.451  24.136  0.00  0.00    +0.000 NA
ATOM     19  C   UNL     1      -2.960  14.122  24.550  0.00  0.00    +0.000 A 
ATOM     20  N   UNL     1      -3.591  14.969  25.435  0.00  0.00    +0.000 N 
ATOM     21  N   UNL     1      -3.598  13.005  24.200  0.00  0.00    +0.000 NA
ATOM     22  C   UNL     1      -2.956  12.187  23.333  0.00  0.00    +0.000 A 
ATOM     23  H   UNL     1      -2.904  15.513  25.935  0.00  0.00    +0.000 HD
ATOM     24  H   UNL     1      -4.261  14.448  25.983  0.00  0.00    +0.000 HD
ENDBRANCH  12  16
BRANCH   1  25
ATOM     25  C   UNL     1       2.589   7.008  19.809  0.00  0.00    +0.000 C 
BRANCH  25  27
ATOM     26  C   UNL     1       1.449   4.966  20.705  0.00  0.00    +0.000 C 
ATOM     27  N   UNL     1       1.788   5.790  19.520  0.00  0.00    +0.000 NA
BRANCH  27  28
ATOM     28  S   UNL     1       2.424   4.883  18.214  0.00  0.00    +0.000 S 
ATOM     29  C   UNL     1       3.273   3.599  19.100  0.00  0.00    +0.000 C 
ATOM     30  O   UNL     1       1.310   4.305  17.492  0.00  0.00    +0.000 OA
ATOM     31  O   UNL     1       3.426   5.678  17.540  0.00  0.00    +0.000 OA
ENDBRANCH  27  28
ENDBRANCH  25  27
ENDBRANCH   1  25
TORSDOF 4
ENDMDL
MODEL 7
REMARK VINA RESULT:      -6.5      4.303      7.803
REMARK  Name = 
REMARK  6 active torsions:
REMARK  status: ('A' for Active; 'I' for Inactive)
REMARK    1  A    between atoms: C_1  and  N_2
REMARK    2  A    between atoms: N_2  and  C_3
REMARK    3  A    between atoms: N_2  and  S_26
REMARK    4  A    between atoms: C_3  and  C_4
REMARK    5  A    between atoms: C_15  and  C_16
REMARK    6  A    between atoms: S_26  and  C_27
REMARK                            x       y       z     vdW  Elec       q    Type
REMARK                         _______ _______ _______ _____ _____    ______ ____
ROOT
ATOM      1  C   UNL     1      -1.602  12.927  23.034  0.00  0.00    +0.000 A 
ATOM      2  C   UNL     1      -0.821  13.421  22.013  0.00  0.00    +0.000 A 
ATOM      3  C   UNL     1      -0.104  12.411  21.295  0.00  0.00    +0.000 A 
ATOM      4  C   UNL     1       0.825  12.471  20.236  0.00  0.00    +0.000 A 
ATOM      5  N   UNL     1       1.299  13.660  19.734  0.00  0.00    +0.000 N 
ATOM      6  C   UNL     1       1.671  13.811  18.327  0.00  0.00    +0.000 C 
ATOM      7  C   UNL     1       3.093  14.381  18.200  0.00  0.00    +0.000 C 
ATOM      8  O   UNL     1       3.275  15.566  18.995  0.00  0.00    +0.000 OA
ATOM      9  C   UNL     1       3.044  15.269  20.377  0.00  0.00    +0.000 C 
ATOM     10  C   UNL     1       1.607  14.800  20.604  0.00  0.00    +0.000 C 
ATOM     11  N   UNL     1       1.263  11.301  19.720  0.00  0.00    +0.000 NA
ATOM     12  C   UNL     1       0.867  10.127  20.266  0.00  0.00    +0.000 A 
ATOM     13  N   UNL     1       0.015   9.989  21.295  0.00  0.00    +0.000 NA
ATOM     14  C   UNL     1      -0.443  11.155  21.762  0.00  0.00    +0.000 A 
ATOM     15  S   UNL     1      -1.540  11.219  23.075  0.00  0.00    +0.000 S 
ENDROOT
BRANCH  12  16
ATOM     16  C   UNL     1       1.445   8.904  19.710  0.00  0.00    +0.000 A 
ATOM     17  C   UNL     1       1.848   8.770  18.394  0.00  0.00    +0.000 A 
ATOM     18  N   UNL     1       2.402   7.655  17.860  0.00  0.00    +0.000 NA
ATOM     19  C   UNL     1       2.577   6.622  18.688  0.00  0.00    +0.000 A 
ATOM     20  N   UNL     1       3.132   5.470  18.173  0.00  0.00    +0.000 N 
ATOM     21  N   UNL     1       2.210   6.613  19.969  0.00  0.00    +0.000 NA
ATOM     22  C   UNL     1       1.663   7.755  20.450  0.00  0.00    +0.000 A 
ATOM     23  H   UNL     1       2.981   5.434  17.176  0.00  0.00    +0.000 HD
ATOM     24  H   UNL     1       2.831   4.676  18.720  0.00  0.00    +0.000 HD
ENDBRANCH  12  16
BRANCH   1  25
ATOM     25  C   UNL     1      -2.379  13.736  24.028  0.00  0.00    +0.000 C 
BRANCH  25  27
ATOM     26  C   UNL     1      -4.133  15.521  23.942  0.00  0.00    +0.000 C 
ATOM     27  N   UNL     1      -3.675  14.195  23.463  0.00  0.00    +0.000 NA
BRANCH  27  28
ATOM     28  S   UNL     1      -4.885  12.986  23.534  0.00  0.00    +0.000 S 
ATOM     29  C   UNL     1      -6.327  13.992  23.788  0.00  0.00    +0.000 C 
ATOM     30  O   UNL     1      -4.966  12.361  22.230  0.00  0.00    +0.000 OA
ATOM     31  O   UNL     1      -4.689  12.202  24.733  0.00  0.00    +0.000 OA
ENDBRANCH  27  28
ENDBRANCH  25  27
ENDBRANCH   1  25
TORSDOF 4
ENDMDL
MODEL 8
REMARK VINA RESULT:      -6.4      3.555      9.960
REMARK  Name = 
REMARK  6 active torsions:
REMARK  status: ('A' for Active; 'I' for Inactive)
REMARK    1  A    between atoms: C_1  and  N_2
REMARK    2  A    between atoms: N_2  and  C_3
REMARK    3  A    between atoms: N_2  and  S_26
REMARK    4  A    between atoms: C_3  and  C_4
REMARK    5  A    between atoms: C_15  and  C_16
REMARK    6  A    between atoms: S_26  and  C_27
REMARK                            x       y       z     vdW  Elec       q    Type
REMARK                         _______ _______ _______ _____ _____    ______ ____
ROOT
ATOM      1  C   UNL     1       1.730   8.138  20.164  0.00  0.00    +0.000 A 
ATOM      2  C   UNL     1       0.902   8.863  19.336  0.00  0.00    +0.000 A 
ATOM      3  C   UNL     1       0.099   9.828  20.024  0.00  0.00    +0.000 A 
ATOM      4  C   UNL     1      -0.895  10.728  19.587  0.00  0.00    +0.000 A 
ATOM      5  N   UNL     1      -1.354  10.751  18.291  0.00  0.00    +0.000 N 
ATOM      6  C   UNL     1      -1.812  11.987  17.657  0.00  0.00    +0.000 C 
ATOM      7  C   UNL     1      -3.216  11.801  17.058  0.00  0.00    +0.000 C 
ATOM      8  O   UNL     1      -3.298  10.635  16.219  0.00  0.00    +0.000 OA
ATOM      9  C   UNL     1      -2.987   9.462  16.980  0.00  0.00    +0.000 C 
ATOM     10  C   UNL     1      -1.557   9.521  17.520  0.00  0.00    +0.000 C 
ATOM     11  N   UNL     1      -1.412  11.580  20.500  0.00  0.00    +0.000 NA
ATOM     12  C   UNL     1      -1.028  11.504  21.795  0.00  0.00    +0.000 A 
ATOM     13  N   UNL     1      -0.116  10.654  22.293  0.00  0.00    +0.000 NA
ATOM     14  C   UNL     1       0.419   9.850  21.368  0.00  0.00    +0.000 A 
ATOM     15  S   UNL     1       1.603   8.684  21.779  0.00  0.00    +0.000 S 
ENDROOT
BRANCH  12  16
ATOM     16  C   UNL     1      -1.690  12.402  22.742  0.00  0.00    +0.000 A 
ATOM     17  C   UNL     1      -2.947  12.174  23.270  0.00  0.00    +0.000 A 
ATOM     18  N   UNL     1      -3.573  12.980  24.162  0.00  0.00    +0.000 NA
ATOM     19  C   UNL     1      -2.903  14.065  24.558  0.00  0.00    +0.000 A 
ATOM     20  N   UNL     1      -3.515  14.908  25.459  0.00  0.00    +0.000 N 
ATOM     21  N   UNL     1      -1.697  14.411  24.107  0.00  0.00    +0.000 NA
ATOM     22  C   UNL     1      -1.118  13.568  23.219  0.00  0.00    +0.000 A 
ATOM     23  H   UNL     1      -4.517  14.796  25.405  0.00  0.00    +0.000 HD
ATOM     24  H   UNL     1      -3.145  15.842  25.354  0.00  0.00    +0.000 HD
ENDBRANCH  12  16
BRANCH   1  25
ATOM     25  C   UNL     1       2.603   6.989  19.760  0.00  0.00    +0.000 C 
BRANCH  25  27
ATOM     26  C   UNL     1       1.477   5.021  20.823  0.00  0.00    +0.000 C 
ATOM     27  N   UNL     1       1.814   5.744  19.573  0.00  0.00    +0.000 NA
BRANCH  27  28
ATOM     28  S   UNL     1       2.462   4.734  18.352  0.00  0.00    +0.000 S 
ATOM     29  C   UNL     1       3.574   5.869  17.557  0.00  0.00    +0.000 C 
ATOM     30  O   UNL     1       3.230   3.691  18.999  0.00  0.00    +0.000 OA
ATOM     31  O   UNL     1       1.416   4.421  17.405  0.00  0.00    +0.000 OA
ENDBRANCH  27  28
ENDBRANCH  25  27
ENDBRANCH   1  25
TORSDOF 4
ENDMDL
MODEL 9
REMARK VINA RESULT:      -6.3      1.813      2.288
REMARK  Name = 
REMARK  6 active torsions:
REMARK  status: ('A' for Active; 'I' for Inactive)
REMARK    1  A    between atoms: C_1  and  N_2
REMARK    2  A    between atoms: N_2  and  C_3
REMARK    3  A    between atoms: N_2  and  S_26
REMARK    4  A    between atoms: C_3  and  C_4
REMARK    5  A    between atoms: C_15  and  C_16
REMARK    6  A    between atoms: S_26  and  C_27
REMARK                            x       y       z     vdW  Elec       q    Type
REMARK                         _______ _______ _______ _____ _____    ______ ____
ROOT
ATOM      1  C   UNL     1       1.381   8.896  19.691  0.00  0.00    +0.000 A 
ATOM      2  C   UNL     1       1.687   7.618  20.104  0.00  0.00    +0.000 A 
ATOM      3  C   UNL     1       2.563   6.919  19.214  0.00  0.00    +0.000 A 
ATOM      4  C   UNL     1       3.082   5.608  19.220  0.00  0.00    +0.000 A 
ATOM      5  N   UNL     1       2.707   4.668  20.151  0.00  0.00    +0.000 N 
ATOM      6  C   UNL     1       3.626   3.627  20.611  0.00  0.00    +0.000 C 
ATOM      7  C   UNL     1       2.985   2.237  20.471  0.00  0.00    +0.000 C 
ATOM      8  O   UNL     1       1.676   2.180  21.065  0.00  0.00    +0.000 OA
ATOM      9  C   UNL     1       0.809   3.129  20.430  0.00  0.00    +0.000 C 
ATOM     10  C   UNL     1       1.323   4.556  20.624  0.00  0.00    +0.000 C 
ATOM     11  N   UNL     1       3.969   5.281  18.254  0.00  0.00    +0.000 NA
ATOM     12  C   UNL     1       4.277   6.172  17.284  0.00  0.00    +0.000 A 
ATOM     13  N   UNL     1       3.800   7.425  17.190  0.00  0.00    +0.000 NA
ATOM     14  C   UNL     1       2.960   7.746  18.179  0.00  0.00    +0.000 A 
ATOM     15  S   UNL     1       2.227   9.291  18.260  0.00  0.00    +0.000 S 
ENDROOT
BRANCH  12  16
ATOM     16  C   UNL     1       5.181   5.722  16.225  0.00  0.00    +0.000 A 
ATOM     17  C   UNL     1       6.509   6.096  16.135  0.00  0.00    +0.000 A 
ATOM     18  N   UNL     1       7.371   5.678  15.176  0.00  0.00    +0.000 NA
ATOM     19  C   UNL     1       6.884   4.831  14.266  0.00  0.00    +0.000 A 
ATOM     20  N   UNL     1       7.733   4.394  13.273  0.00  0.00    +0.000 N 
ATOM     21  N   UNL     1       5.619   4.415  14.226  0.00  0.00    +0.000 NA
ATOM     22  C   UNL     1       4.802   4.862  15.210  0.00  0.00    +0.000 A 
ATOM     23  H   UNL     1       8.484   5.057  13.150  0.00  0.00    +0.000 HD
ATOM     24  H   UNL     1       7.196   4.140  12.456  0.00  0.00    +0.000 HD
ENDBRANCH  12  16
BRANCH   1  25
ATOM     25  C   UNL     1       0.411   9.831  20.346  0.00  0.00    +0.000 C 
BRANCH  25  27
ATOM     26  C   UNL     1       2.249   9.866  22.047  0.00  0.00    +0.000 C 
ATOM     27  N   UNL     1       0.835  10.177  21.728  0.00  0.00    +0.000 NA
BRANCH  27  28
ATOM     28  S   UNL     1      -0.272   9.623  22.911  0.00  0.00    +0.000 S 
ATOM     29  C   UNL     1      -1.372  11.016  22.996  0.00  0.00    +0.000 C 
ATOM     30  O   UNL     1      -0.983   8.490  22.358  0.00  0.00    +0.000 OA
ATOM     31  O   UNL     1       0.412   9.536  24.181  0.00  0.00    +0.000 OA
ENDBRANCH  27  28
ENDBRANCH  25  27
ENDBRANCH   1  25
TORSDOF 4
ENDMDL
