MODEL 1
REMARK VINA RESULT:      -7.3      0.000      0.000
REMARK  Name = 
REMARK  2 active torsions:
REMARK  status: ('A' for Active; 'I' for Inactive)
REMARK    1  A    between atoms: C_5  and  C_6
REMARK    2  A    between atoms: C_6  and  N_7
REMARK                            x       y       z     vdW  Elec       q    Type
REMARK                         _______ _______ _______ _____ _____    ______ ____
ROOT
ATOM      1  N   UNL     1       1.426   8.859  18.467  0.00  0.00    +0.000 NA
ATOM      2  C   UNL     1       1.956  10.126  17.926  0.00  0.00    +0.000 C 
ATOM      3  C   UNL     1       1.589  11.390  18.723  0.00  0.00    +0.000 C 
ATOM      4  N   UNL     1       0.164  11.569  18.680  0.00  0.00    +0.000 NA
ATOM      5  C   UNL     1      -0.372  12.894  18.879  0.00  0.00    +0.000 C 
ATOM      6  C   UNL     1      -1.477  12.992  19.913  0.00  0.00    +0.000 A 
ATOM      7  C   UNL     1      -1.277  13.695  21.100  0.00  0.00    +0.000 A 
ATOM      8  C   UNL     1      -2.344  13.919  21.968  0.00  0.00    +0.000 A 
ATOM      9  C   UNL     1      -3.627  13.473  21.638  0.00  0.00    +0.000 A 
ATOM     10  C   UNL     1      -3.844  12.726  20.479  0.00  0.00    +0.000 A 
ATOM     11  C   UNL     1      -2.746  12.435  19.653  0.00  0.00    +0.000 A 
ATOM     12  N   UNL     1      -2.870  11.491  18.599  0.00  0.00    +0.000 N 
ATOM     13  C   UNL     1      -3.894  11.480  17.675  0.00  0.00    +0.000 A 
ATOM     14  C   UNL     1      -3.538  10.618  16.666  0.00  0.00    +0.000 A 
ATOM     15  C   UNL     1      -2.315   9.985  17.046  0.00  0.00    +0.000 A 
ATOM     16  C   UNL     1      -1.911  10.523  18.261  0.00  0.00    +0.000 A 
ATOM     17  C   UNL     1      -0.644  10.433  19.108  0.00  0.00    +0.000 C 
ATOM     18  C   UNL     1       0.207   9.100  19.298  0.00  0.00    +0.000 C 
ENDROOT
BRANCH   1  19
ATOM     19  C   UNL     1       2.506   8.086  19.151  0.00  0.00    +0.000 C 
BRANCH  19  24
ATOM     20 CL   UNL     1       1.555   2.073  19.338  0.00  0.00    +0.000 Cl
ATOM     21  C   UNL     1       1.813   3.776  19.292  0.00  0.00    +0.000 A 
ATOM     22  C   UNL     1       2.139   4.391  18.089  0.00  0.00    +0.000 A 
ATOM     23  C   UNL     1       2.348   5.774  18.050  0.00  0.00    +0.000 A 
ATOM     24  C   UNL     1       2.267   6.568  19.205  0.00  0.00    +0.000 A 
ATOM     25  C   UNL     1       1.925   5.933  20.413  0.00  0.00    +0.000 A 
ATOM     26  C   UNL     1       1.696   4.535  20.455  0.00  0.00    +0.000 A 
ENDBRANCH  19  24
ENDBRANCH   1  19
TORSDOF 2
ENDMDL
MODEL 2
REMARK VINA RESULT:      -7.2      3.735      5.675
REMARK  Name = 
REMARK  2 active torsions:
REMARK  status: ('A' for Active; 'I' for Inactive)
REMARK    1  A    between atoms: C_5  and  C_6
REMARK    2  A    between atoms: C_6  and  N_7
REMARK                            x       y       z     vdW  Elec       q    Type
REMARK                         _______ _______ _______ _____ _____    ______ ____
ROOT
ATOM      1  N   UNL     1       1.164  11.824  19.892  0.00  0.00    +0.000 NA
ATOM      2  C   UNL     1       0.629  12.603  21.025  0.00  0.00    +0.000 C 
ATOM      3  C   UNL     1      -0.131  13.887  20.646  0.00  0.00    +0.000 C 
ATOM      4  N   UNL     1       0.781  14.794  20.005  0.00  0.00    +0.000 NA
ATOM      5  C   UNL     1       0.479  16.205  20.028  0.00  0.00    +0.000 C 
ATOM      6  C   UNL     1       0.541  16.897  18.680  0.00  0.00    +0.000 A 
ATOM      7  C   UNL     1      -0.614  17.412  18.095  0.00  0.00    +0.000 A 
ATOM      8  C   UNL     1      -0.528  18.188  16.940  0.00  0.00    +0.000 A 
ATOM      9  C   UNL     1       0.720  18.484  16.382  0.00  0.00    +0.000 A 
ATOM     10  C   UNL     1       1.887  17.941  16.922  0.00  0.00    +0.000 A 
ATOM     11  C   UNL     1       1.780  17.095  18.037  0.00  0.00    +0.000 A 
ATOM     12  N   UNL     1       2.900  16.338  18.475  0.00  0.00    +0.000 N 
ATOM     13  C   UNL     1       4.165  16.853  18.667  0.00  0.00    +0.000 A 
ATOM     14  C   UNL     1       4.901  15.911  19.346  0.00  0.00    +0.000 A 
ATOM     15  C   UNL     1       4.101  14.734  19.462  0.00  0.00    +0.000 A 
ATOM     16  C   UNL     1       2.858  15.002  18.902  0.00  0.00    +0.000 A 
ATOM     17  C   UNL     1       1.518  14.270  18.862  0.00  0.00    +0.000 C 
ATOM     18  C   UNL     1       1.370  12.693  18.694  0.00  0.00    +0.000 C 
ENDROOT
BRANCH   1  19
ATOM     19  C   UNL     1       0.327  10.610  19.648  0.00  0.00    +0.000 C 
BRANCH  19  24
ATOM     20 CL   UNL     1       3.504   5.551  18.458  0.00  0.00    +0.000 Cl
ATOM     21  C   UNL     1       2.596   6.975  18.801  0.00  0.00    +0.000 A 
ATOM     22  C   UNL     1       2.363   7.902  17.793  0.00  0.00    +0.000 A 
ATOM     23  C   UNL     1       1.625   9.059  18.069  0.00  0.00    +0.000 A 
ATOM     24  C   UNL     1       1.130   9.331  19.355  0.00  0.00    +0.000 A 
ATOM     25  C   UNL     1       1.365   8.378  20.362  0.00  0.00    +0.000 A 
ATOM     26  C   UNL     1       2.097   7.197  20.083  0.00  0.00    +0.000 A 
ENDBRANCH  19  24
ENDBRANCH   1  19
TORSDOF 2
ENDMDL
MODEL 3
REMARK VINA RESULT:      -7.1      1.212      1.623
REMARK  Name = 
REMARK  2 active torsions:
REMARK  status: ('A' for Active; 'I' for Inactive)
REMARK    1  A    between atoms: C_5  and  C_6
REMARK    2  A    between atoms: C_6  and  N_7
REMARK                            x       y       z     vdW  Elec       q    Type
REMARK                         _______ _______ _______ _____ _____    ______ ____
ROOT
ATOM      1  N   UNL     1       0.822   9.626  19.234  0.00  0.00    +0.000 NA
ATOM      2  C   UNL     1       1.176  11.059  19.210  0.00  0.00    +0.000 C 
ATOM      3  C   UNL     1       0.235  11.986  19.999  0.00  0.00    +0.000 C 
ATOM      4  N   UNL     1      -1.069  11.945  19.399  0.00  0.00    +0.000 NA
ATOM      5  C   UNL     1      -1.956  13.066  19.599  0.00  0.00    +0.000 C 
ATOM      6  C   UNL     1      -3.350  12.706  20.075  0.00  0.00    +0.000 A 
ATOM      7  C   UNL     1      -3.785  13.083  21.344  0.00  0.00    +0.000 A 
ATOM      8  C   UNL     1      -5.115  12.893  21.713  0.00  0.00    +0.000 A 
ATOM      9  C   UNL     1      -6.030  12.359  20.801  0.00  0.00    +0.000 A 
ATOM     10  C   UNL     1      -5.609  11.930  19.541  0.00  0.00    +0.000 A 
ATOM     11  C   UNL     1      -4.251  12.050  19.210  0.00  0.00    +0.000 A 
ATOM     12  N   UNL     1      -3.735  11.420  18.046  0.00  0.00    +0.000 N 
ATOM     13  C   UNL     1      -4.310  11.500  16.794  0.00  0.00    +0.000 A 
ATOM     14  C   UNL     1      -3.402  11.011  15.886  0.00  0.00    +0.000 A 
ATOM     15  C   UNL     1      -2.287  10.497  16.617  0.00  0.00    +0.000 A 
ATOM     16  C   UNL     1      -2.509  10.742  17.966  0.00  0.00    +0.000 A 
ATOM     17  C   UNL     1      -1.663  10.624  19.231  0.00  0.00    +0.000 C 
ATOM     18  C   UNL     1      -0.635   9.439  19.508  0.00  0.00    +0.000 C 
ENDROOT
BRANCH   1  19
ATOM     19  C   UNL     1       1.733   8.875  20.150  0.00  0.00    +0.000 C 
BRANCH  19  24
ATOM     20 CL   UNL     1       2.980   3.196  18.336  0.00  0.00    +0.000 Cl
ATOM     21  C   UNL     1       2.615   4.799  18.853  0.00  0.00    +0.000 A 
ATOM     22  C   UNL     1       2.860   5.870  18.002  0.00  0.00    +0.000 A 
ATOM     23  C   UNL     1       2.564   7.172  18.420  0.00  0.00    +0.000 A 
ATOM     24  C   UNL     1       2.047   7.439  19.699  0.00  0.00    +0.000 A 
ATOM     25  C   UNL     1       1.794   6.344  20.544  0.00  0.00    +0.000 A 
ATOM     26  C   UNL     1       2.077   5.022  20.119  0.00  0.00    +0.000 A 
ENDBRANCH  19  24
ENDBRANCH   1  19
TORSDOF 2
ENDMDL
MODEL 4
REMARK VINA RESULT:      -7.1      0.581      1.132
REMARK  Name = 
REMARK  2 active torsions:
REMARK  status: ('A' for Active; 'I' for Inactive)
REMARK    1  A    between atoms: C_5  and  C_6
REMARK    2  A    between atoms: C_6  and  N_7
REMARK                            x       y       z     vdW  Elec       q    Type
REMARK                         _______ _______ _______ _____ _____    ______ ____
ROOT
ATOM      1  N   UNL     1       1.144   9.139  18.840  0.00  0.00    +0.000 NA
ATOM      2  C   UNL     1       1.665  10.472  18.481  0.00  0.00    +0.000 C 
ATOM      3  C   UNL     1       1.085  11.648  19.285  0.00  0.00    +0.000 C 
ATOM      4  N   UNL     1      -0.323  11.746  19.015  0.00  0.00    +0.000 NA
ATOM      5  C   UNL     1      -0.975  13.019  19.208  0.00  0.00    +0.000 C 
ATOM      6  C   UNL     1      -2.239  12.974  20.045  0.00  0.00    +0.000 A 
ATOM      7  C   UNL     1      -2.285  13.595  21.292  0.00  0.00    +0.000 A 
ATOM      8  C   UNL     1      -3.493  13.690  21.981  0.00  0.00    +0.000 A 
ATOM      9  C   UNL     1      -4.670  13.196  21.412  0.00  0.00    +0.000 A 
ATOM     10  C   UNL     1      -4.641  12.528  20.186  0.00  0.00    +0.000 A 
ATOM     11  C   UNL     1      -3.406  12.366  19.540  0.00  0.00    +0.000 A 
ATOM     12  N   UNL     1      -3.289  11.498  18.420  0.00  0.00    +0.000 N 
ATOM     13  C   UNL     1      -4.145  11.499  17.338  0.00  0.00    +0.000 A 
ATOM     14  C   UNL     1      -3.569  10.738  16.350  0.00  0.00    +0.000 A 
ATOM     15  C   UNL     1      -2.383  10.150  16.887  0.00  0.00    +0.000 A 
ATOM     16  C   UNL     1      -2.223  10.617  18.185  0.00  0.00    +0.000 A 
ATOM     17  C   UNL     1      -1.108  10.536  19.225  0.00  0.00    +0.000 C 
ATOM     18  C   UNL     1      -0.209   9.244  19.468  0.00  0.00    +0.000 C 
ENDROOT
BRANCH   1  19
ATOM     19  C   UNL     1       2.149   8.380  19.644  0.00  0.00    +0.000 C 
BRANCH  19  24
ATOM     20 CL   UNL     1       1.858   2.328  19.020  0.00  0.00    +0.000 Cl
ATOM     21  C   UNL     1       1.952   4.040  19.190  0.00  0.00    +0.000 A 
ATOM     22  C   UNL     1       1.693   4.625  20.424  0.00  0.00    +0.000 A 
ATOM     23  C   UNL     1       1.770   6.015  20.564  0.00  0.00    +0.000 A 
ATOM     24  C   UNL     1       2.075   6.853  19.479  0.00  0.00    +0.000 A 
ATOM     25  C   UNL     1       2.345   6.246  18.240  0.00  0.00    +0.000 A 
ATOM     26  C   UNL     1       2.286   4.837  18.096  0.00  0.00    +0.000 A 
ENDBRANCH  19  24
ENDBRANCH   1  19
TORSDOF 2
ENDMDL
MODEL 5
REMARK VINA RESULT:      -7.0      1.468      1.783
REMARK  Name = 
REMARK  2 active torsions:
REMARK  status: ('A' for Active; 'I' for Inactive)
REMARK    1  A    between atoms: C_5  and  C_6
REMARK    2  A    between atoms: C_6  and  N_7
REMARK                            x       y       z     vdW  Elec       q    Type
REMARK                         _______ _______ _______ _____ _____    ______ ____
ROOT
ATOM      1  N   UNL     1       1.277   8.849  18.421  0.00  0.00    +0.000 NA
ATOM      2  C   UNL     1       1.843  10.148  18.010  0.00  0.00    +0.000 C 
ATOM      3  C   UNL     1       1.369  11.365  18.825  0.00  0.00    +0.000 C 
ATOM      4  N   UNL     1      -0.045  11.530  18.633  0.00  0.00    +0.000 NA
ATOM      5  C   UNL     1      -0.621  12.838  18.840  0.00  0.00    +0.000 C 
ATOM      6  C   UNL     1      -1.835  12.869  19.747  0.00  0.00    +0.000 A 
ATOM      7  C   UNL     1      -1.780  13.510  20.984  0.00  0.00    +0.000 A 
ATOM      8  C   UNL     1      -2.939  13.676  21.739  0.00  0.00    +0.000 A 
ATOM      9  C   UNL     1      -4.171  13.235  21.244  0.00  0.00    +0.000 A 
ATOM     10  C   UNL     1      -4.245  12.548  20.031  0.00  0.00    +0.000 A 
ATOM     11  C   UNL     1      -3.059  12.314  19.319  0.00  0.00    +0.000 A 
ATOM     12  N   UNL     1      -3.049  11.426  18.210  0.00  0.00    +0.000 N 
ATOM     13  C   UNL     1      -3.965  11.454  17.178  0.00  0.00    +0.000 A 
ATOM     14  C   UNL     1      -3.484  10.651  16.172  0.00  0.00    +0.000 A 
ATOM     15  C   UNL     1      -2.301  10.011  16.652  0.00  0.00    +0.000 A 
ATOM     16  C   UNL     1      -2.044  10.488  17.931  0.00  0.00    +0.000 A 
ATOM     17  C   UNL     1      -0.877  10.365  18.908  0.00  0.00    +0.000 C 
ATOM     18  C   UNL     1      -0.031   9.032  19.122  0.00  0.00    +0.000 C 
ENDROOT
BRANCH   1  19
ATOM     19  C   UNL     1       2.287   8.052  19.181  0.00  0.00    +0.000 C 
BRANCH  19  24
ATOM     20 CL   UNL     1       5.228   3.893  15.842  0.00  0.00    +0.000 Cl
ATOM     21  C   UNL     1       4.385   5.064  16.782  0.00  0.00    +0.000 A 
ATOM     22  C   UNL     1       4.757   6.401  16.713  0.00  0.00    +0.000 A 
ATOM     23  C   UNL     1       4.073   7.354  17.476  0.00  0.00    +0.000 A 
ATOM     24  C   UNL     1       3.026   6.996  18.342  0.00  0.00    +0.000 A 
ATOM     25  C   UNL     1       2.653   5.641  18.392  0.00  0.00    +0.000 A 
ATOM     26  C   UNL     1       3.332   4.675  17.609  0.00  0.00    +0.000 A 
ENDBRANCH  19  24
ENDBRANCH   1  19
TORSDOF 2
ENDMDL
MODEL 6
REMARK VINA RESULT:      -6.9      4.182      6.867
REMARK  Name = 
REMARK  2 active torsions:
REMARK  status: ('A' for Active; 'I' for Inactive)
REMARK    1  A    between atoms: C_5  and  C_6
REMARK    2  A    between atoms: C_6  and  N_7
REMARK                            x       y       z     vdW  Elec       q    Type
REMARK                         _______ _______ _______ _____ _____    ______ ____
ROOT
ATOM      1  N   UNL     1       0.343  12.286  20.499  0.00  0.00    +0.000 NA
ATOM      2  C   UNL     1       0.095  13.251  21.588  0.00  0.00    +0.000 C 
ATOM      3  C   UNL     1      -0.496  14.604  21.151  0.00  0.00    +0.000 C 
ATOM      4  N   UNL     1       0.453  15.274  20.307  0.00  0.00    +0.000 NA
ATOM      5  C   UNL     1       0.384  16.712  20.199  0.00  0.00    +0.000 C 
ATOM      6  C   UNL     1       0.373  17.250  18.781  0.00  0.00    +0.000 A 
ATOM      7  C   UNL     1      -0.754  17.897  18.278  0.00  0.00    +0.000 A 
ATOM      8  C   UNL     1      -0.702  18.531  17.038  0.00  0.00    +0.000 A 
ATOM      9  C   UNL     1       0.490  18.554  16.308  0.00  0.00    +0.000 A 
ATOM     10  C   UNL     1       1.619  17.873  16.768  0.00  0.00    +0.000 A 
ATOM     11  C   UNL     1       1.530  17.169  17.979  0.00  0.00    +0.000 A 
ATOM     12  N   UNL     1       2.565  16.277  18.370  0.00  0.00    +0.000 N 
ATOM     13  C   UNL     1       3.910  16.583  18.351  0.00  0.00    +0.000 A 
ATOM     14  C   UNL     1       4.571  15.599  19.045  0.00  0.00    +0.000 A 
ATOM     15  C   UNL     1       3.618  14.593  19.391  0.00  0.00    +0.000 A 
ATOM     16  C   UNL     1       2.370  15.016  18.953  0.00  0.00    +0.000 A 
ATOM     17  C   UNL     1       0.938  14.524  19.155  0.00  0.00    +0.000 C 
ATOM     18  C   UNL     1       0.521  12.988  19.191  0.00  0.00    +0.000 C 
ENDROOT
BRANCH   1  19
ATOM     19  C   UNL     1      -0.700  11.216  20.498  0.00  0.00    +0.000 C 
BRANCH  19  24
ATOM     20 CL   UNL     1      -3.642  10.557  15.206  0.00  0.00    +0.000 Cl
ATOM     21  C   UNL     1      -2.809  10.731  16.704  0.00  0.00    +0.000 A 
ATOM     22  C   UNL     1      -3.263  11.651  17.642  0.00  0.00    +0.000 A 
ATOM     23  C   UNL     1      -2.589  11.792  18.860  0.00  0.00    +0.000 A 
ATOM     24  C   UNL     1      -1.437  11.046  19.159  0.00  0.00    +0.000 A 
ATOM     25  C   UNL     1      -0.997  10.111  18.206  0.00  0.00    +0.000 A 
ATOM     26  C   UNL     1      -1.686   9.952  16.977  0.00  0.00    +0.000 A 
ENDBRANCH  19  24
ENDBRANCH   1  19
TORSDOF 2
ENDMDL
MODEL 7
REMARK VINA RESULT:      -6.8      2.333      3.191
REMARK  Name = 
REMARK  2 active torsions:
REMARK  status: ('A' for Active; 'I' for Inactive)
REMARK    1  A    between atoms: C_5  and  C_6
REMARK    2  A    between atoms: C_6  and  N_7
REMARK                            x       y       z     vdW  Elec       q    Type
REMARK                         _______ _______ _______ _____ _____    ______ ____
ROOT
ATOM      1  N   UNL     1       1.135   8.670  20.980  0.00  0.00    +0.000 NA
ATOM      2  C   UNL     1       1.405   9.212  22.325  0.00  0.00    +0.000 C 
ATOM      3  C   UNL     1       0.205   9.872  23.027  0.00  0.00    +0.000 C 
ATOM      4  N   UNL     1      -0.202  11.022  22.268  0.00  0.00    +0.000 NA
ATOM      5  C   UNL     1      -0.921  12.075  22.945  0.00  0.00    +0.000 C 
ATOM      6  C   UNL     1      -2.201  12.519  22.264  0.00  0.00    +0.000 A 
ATOM      7  C   UNL     1      -3.438  12.296  22.867  0.00  0.00    +0.000 A 
ATOM      8  C   UNL     1      -4.594  12.850  22.318  0.00  0.00    +0.000 A 
ATOM      9  C   UNL     1      -4.515  13.661  21.182  0.00  0.00    +0.000 A 
ATOM     10  C   UNL     1      -3.296  13.860  20.533  0.00  0.00    +0.000 A 
ATOM     11  C   UNL     1      -2.151  13.231  21.048  0.00  0.00    +0.000 A 
ATOM     12  N   UNL     1      -0.944  13.210  20.299  0.00  0.00    +0.000 N 
ATOM     13  C   UNL     1      -0.378  14.315  19.697  0.00  0.00    +0.000 A 
ATOM     14  C   UNL     1       0.896  13.974  19.313  0.00  0.00    +0.000 A 
ATOM     15  C   UNL     1       1.072  12.581  19.572  0.00  0.00    +0.000 A 
ATOM     16  C   UNL     1      -0.086  12.106  20.174  0.00  0.00    +0.000 A 
ATOM     17  C   UNL     1      -0.484  10.799  20.855  0.00  0.00    +0.000 C 
ATOM     18  C   UNL     1      -0.033   9.358  20.349  0.00  0.00    +0.000 C 
ENDROOT
BRANCH   1  19
ATOM     19  C   UNL     1       1.034   7.180  21.024  0.00  0.00    +0.000 C 
BRANCH  19  24
ATOM     20 CL   UNL     1       4.339   4.324  16.780  0.00  0.00    +0.000 Cl
ATOM     21  C   UNL     1       3.394   5.124  17.978  0.00  0.00    +0.000 A 
ATOM     22  C   UNL     1       3.362   6.513  18.016  0.00  0.00    +0.000 A 
ATOM     23  C   UNL     1       2.594   7.164  18.987  0.00  0.00    +0.000 A 
ATOM     24  C   UNL     1       1.868   6.452  19.956  0.00  0.00    +0.000 A 
ATOM     25  C   UNL     1       1.901   5.048  19.898  0.00  0.00    +0.000 A 
ATOM     26  C   UNL     1       2.664   4.383  18.905  0.00  0.00    +0.000 A 
ENDBRANCH  19  24
ENDBRANCH   1  19
TORSDOF 2
ENDMDL
MODEL 8
REMARK VINA RESULT:      -6.8      2.515      3.508
REMARK  Name = 
REMARK  2 active torsions:
REMARK  status: ('A' for Active; 'I' for Inactive)
REMARK    1  A    between atoms: C_5  and  C_6
REMARK    2  A    between atoms: C_6  and  N_7
REMARK                            x       y       z     vdW  Elec       q    Type
REMARK                         _______ _______ _______ _____ _____    ______ ____
ROOT
ATOM      1  N   UNL     1       1.194   8.876  20.997  0.00  0.00    +0.000 NA
ATOM      2  C   UNL     1       1.323   9.265  22.415  0.00  0.00    +0.000 C 
ATOM      3  C   UNL     1       0.057   9.860  23.056  0.00  0.00    +0.000 C 
ATOM      4  N   UNL     1      -0.266  11.091  22.390  0.00  0.00    +0.000 NA
ATOM      5  C   UNL     1      -1.049  12.074  23.100  0.00  0.00    +0.000 C 
ATOM      6  C   UNL     1      -2.250  12.608  22.343  0.00  0.00    +0.000 A 
ATOM      7  C   UNL     1      -3.544  12.337  22.786  0.00  0.00    +0.000 A 
ATOM      8  C   UNL     1      -4.634  12.963  22.184  0.00  0.00    +0.000 A 
ATOM      9  C   UNL     1      -4.436  13.892  21.158  0.00  0.00    +0.000 A 
ATOM     10  C   UNL     1      -3.154  14.144  20.666  0.00  0.00    +0.000 A 
ATOM     11  C   UNL     1      -2.072  13.447  21.224  0.00  0.00    +0.000 A 
ATOM     12  N   UNL     1      -0.792  13.491  20.607  0.00  0.00    +0.000 N 
ATOM     13  C   UNL     1      -0.164  14.648  20.193  0.00  0.00    +0.000 A 
ATOM     14  C   UNL     1       1.143  14.333  19.908  0.00  0.00    +0.000 A 
ATOM     15  C   UNL     1       1.288  12.917  20.029  0.00  0.00    +0.000 A 
ATOM     16  C   UNL     1       0.071  12.396  20.452  0.00  0.00    +0.000 A 
ATOM     17  C   UNL     1      -0.399  11.028  20.940  0.00  0.00    +0.000 C 
ATOM     18  C   UNL     1       0.100   9.645  20.328  0.00  0.00    +0.000 C 
ENDROOT
BRANCH   1  19
ATOM     19  C   UNL     1       1.085   7.391  20.867  0.00  0.00    +0.000 C 
BRANCH  19  24
ATOM     20 CL   UNL     1       4.894   4.910  16.813  0.00  0.00    +0.000 Cl
ATOM     21  C   UNL     1       3.824   5.623  17.960  0.00  0.00    +0.000 A 
ATOM     22  C   UNL     1       3.363   4.869  19.032  0.00  0.00    +0.000 A 
ATOM     23  C   UNL     1       2.495   5.446  19.966  0.00  0.00    +0.000 A 
ATOM     24  C   UNL     1       2.045   6.770  19.838  0.00  0.00    +0.000 A 
ATOM     25  C   UNL     1       2.530   7.524  18.755  0.00  0.00    +0.000 A 
ATOM     26  C   UNL     1       3.423   6.950  17.816  0.00  0.00    +0.000 A 
ENDBRANCH  19  24
ENDBRANCH   1  19
TORSDOF 2
ENDMDL
MODEL 9
REMARK VINA RESULT:      -6.7      0.937      1.171
REMARK  Name = 
REMARK  2 active torsions:
REMARK  status: ('A' for Active; 'I' for Inactive)
REMARK    1  A    between atoms: C_5  and  C_6
REMARK    2  A    between atoms: C_6  and  N_7
REMARK                            x       y       z     vdW  Elec       q    Type
REMARK                         _______ _______ _______ _____ _____    ______ ____
ROOT
ATOM      1  N   UNL     1       1.479   8.516  18.744  0.00  0.00    +0.000 NA
ATOM      2  C   UNL     1       2.046   9.613  17.936  0.00  0.00    +0.000 C 
ATOM      3  C   UNL     1       1.883  11.024  18.528  0.00  0.00    +0.000 C 
ATOM      4  N   UNL     1       0.483  11.339  18.599  0.00  0.00    +0.000 NA
ATOM      5  C   UNL     1       0.089  12.727  18.613  0.00  0.00    +0.000 C 
ATOM      6  C   UNL     1      -0.875  13.110  19.719  0.00  0.00    +0.000 A 
ATOM      7  C   UNL     1      -0.478  13.978  20.735  0.00  0.00    +0.000 A 
ATOM      8  C   UNL     1      -1.412  14.454  21.654  0.00  0.00    +0.000 A 
ATOM      9  C   UNL     1      -2.759  14.093  21.540  0.00  0.00    +0.000 A 
ATOM     10  C   UNL     1      -3.172  13.189  20.560  0.00  0.00    +0.000 A 
ATOM     11  C   UNL     1      -2.208  12.653  19.693  0.00  0.00    +0.000 A 
ATOM     12  N   UNL     1      -2.534  11.563  18.841  0.00  0.00    +0.000 N 
ATOM     13  C   UNL     1      -3.658  11.503  18.042  0.00  0.00    +0.000 A 
ATOM     14  C   UNL     1      -3.496  10.452  17.172  0.00  0.00    +0.000 A 
ATOM     15  C   UNL     1      -2.295   9.768  17.532  0.00  0.00    +0.000 A 
ATOM     16  C   UNL     1      -1.707  10.458  18.585  0.00  0.00    +0.000 A 
ATOM     17  C   UNL     1      -0.361  10.380  19.302  0.00  0.00    +0.000 C 
ATOM     18  C   UNL     1       0.390   9.017  19.638  0.00  0.00    +0.000 C 
ENDROOT
BRANCH   1  19
ATOM     19  C   UNL     1       2.563   7.761  19.442  0.00  0.00    +0.000 C 
BRANCH  19  24
ATOM     20 CL   UNL     1       3.058   1.915  17.804  0.00  0.00    +0.000 Cl
ATOM     21  C   UNL     1       2.916   3.572  18.255  0.00  0.00    +0.000 A 
ATOM     22  C   UNL     1       3.833   4.126  19.140  0.00  0.00    +0.000 A 
ATOM     23  C   UNL     1       3.720   5.471  19.507  0.00  0.00    +0.000 A 
ATOM     24  C   UNL     1       2.681   6.285  19.026  0.00  0.00    +0.000 A 
ATOM     25  C   UNL     1       1.768   5.713  18.122  0.00  0.00    +0.000 A 
ATOM     26  C   UNL     1       1.887   4.356  17.735  0.00  0.00    +0.000 A 
ENDBRANCH  19  24
ENDBRANCH   1  19
TORSDOF 2
ENDMDL
