MODEL 1
REMARK VINA RESULT:      -7.8      0.000      0.000
REMARK  Name = 
REMARK  6 active torsions:
REMARK  status: ('A' for Active; 'I' for Inactive)
REMARK    1  A    between atoms: C_1  and  O_2
REMARK    2  A    between atoms: O_2  and  C_3
REMARK    3  A    between atoms: C_8  and  O_9
REMARK    4  A    between atoms: O_9  and  C_10
REMARK    5  A    between atoms: C_15  and  O_16
REMARK    6  A    between atoms: O_16  and  C_17
REMARK                            x       y       z     vdW  Elec       q    Type
REMARK                         _______ _______ _______ _____ _____    ______ ____
ROOT
ATOM      1  C   UNL     1      -0.760  11.955  20.091  0.00  0.00    +0.000 A 
ATOM      2  C   UNL     1      -1.188  10.687  19.770  0.00  0.00    +0.000 A 
ATOM      3  O   UNL     1      -0.418   9.416  20.262  0.00  0.00    +0.000 OA
ATOM      4  C   UNL     1       1.039   9.403  19.924  0.00  0.00    +0.000 A 
ATOM      5  C   UNL     1       1.711   8.091  20.055  0.00  0.00    +0.000 A 
ATOM      6  C   UNL     1       2.376   7.507  18.999  0.00  0.00    +0.000 A 
ATOM      7  C   UNL     1       2.269   8.288  17.873  0.00  0.00    +0.000 A 
ATOM      8  C   UNL     1       1.790   9.711  18.007  0.00  0.00    +0.000 A 
ATOM      9  C   UNL     1       1.243  10.492  19.091  0.00  0.00    +0.000 A 
ATOM     10  C   UNL     1       0.597  11.390  20.427  0.00  0.00    +0.000 A 
ATOM     11  O   UNL     1       0.771  11.116  21.653  0.00  0.00    +0.000 OA
ENDROOT
BRANCH   1  12
ATOM     12  O   UNL     1      -1.779  12.764  20.709  0.00  0.00    +0.000 OA
BRANCH  12  18
ATOM     13  C   UNL     1      -4.225  12.980  21.306  0.00  0.00    +0.000 A 
ATOM     14  C   UNL     1      -5.160  13.119  22.378  0.00  0.00    +0.000 A 
ATOM     15  C   UNL     1      -4.797  12.921  23.713  0.00  0.00    +0.000 A 
ATOM     16  C   UNL     1      -3.504  12.488  23.982  0.00  0.00    +0.000 A 
ATOM     17  C   UNL     1      -2.575  12.347  22.921  0.00  0.00    +0.000 A 
ATOM     18  C   UNL     1      -2.895  12.603  21.536  0.00  0.00    +0.000 A 
BRANCH  13  20
ATOM     19  C   UNL     1      -5.470  12.756  19.331  0.00  0.00    +0.000 C 
ATOM     20  O   UNL     1      -4.651  13.568  20.147  0.00  0.00    +0.000 OA
ENDBRANCH  13  20
ENDBRANCH  12  18
ENDBRANCH   1  12
BRANCH   6  21
ATOM     21  O   UNL     1       2.938   6.181  19.100  0.00  0.00    +0.000 OA
BRANCH  21  22
ATOM     22  C   UNL     1       3.205   5.232  18.042  0.00  0.00    +0.000 C 
ATOM     23  O   UNL     1       2.316   4.571  17.517  0.00  0.00    +0.000 OA
ATOM     24  N   UNL     1       4.523   5.200  17.559  0.00  0.00    +0.000 N 
ATOM     25  C   UNL     1       5.659   5.940  18.102  0.00  0.00    +0.000 C 
ATOM     26  C   UNL     1       6.353   6.745  16.997  0.00  0.00    +0.000 C 
ATOM     27  O   UNL     1       6.739   5.900  15.898  0.00  0.00    +0.000 OA
ATOM     28  C   UNL     1       5.587   5.242  15.338  0.00  0.00    +0.000 C 
ATOM     29  C   UNL     1       4.893   4.362  16.399  0.00  0.00    +0.000 C 
ENDBRANCH  21  22
ENDBRANCH   6  21
TORSDOF 5
ENDMDL
MODEL 2
REMARK VINA RESULT:      -7.8      1.721      2.857
REMARK  Name = 
REMARK  6 active torsions:
REMARK  status: ('A' for Active; 'I' for Inactive)
REMARK    1  A    between atoms: C_1  and  O_2
REMARK    2  A    between atoms: O_2  and  C_3
REMARK    3  A    between atoms: C_8  and  O_9
REMARK    4  A    between atoms: O_9  and  C_10
REMARK    5  A    between atoms: C_15  and  O_16
REMARK    6  A    between atoms: O_16  and  C_17
REMARK                            x       y       z     vdW  Elec       q    Type
REMARK                         _______ _______ _______ _____ _____    ______ ____
ROOT
ATOM      1  C   UNL     1      -0.755  12.270  19.592  0.00  0.00    +0.000 A 
ATOM      2  C   UNL     1      -1.240  10.986  19.487  0.00  0.00    +0.000 A 
ATOM      3  O   UNL     1      -0.569   9.796  20.251  0.00  0.00    +0.000 OA
ATOM      4  C   UNL     1       0.899   9.650  20.006  0.00  0.00    +0.000 A 
ATOM      5  C   UNL     1       1.487   8.355  20.418  0.00  0.00    +0.000 A 
ATOM      6  C   UNL     1       2.168   7.552  19.529  0.00  0.00    +0.000 A 
ATOM      7  C   UNL     1       2.161   8.112  18.274  0.00  0.00    +0.000 A 
ATOM      8  C   UNL     1       1.759   9.556  18.113  0.00  0.00    +0.000 A 
ATOM      9  C   UNL     1       1.206  10.552  19.000  0.00  0.00    +0.000 A 
ATOM     10  C   UNL     1       0.548  11.715  20.106  0.00  0.00    +0.000 A 
ATOM     11  O   UNL     1       0.647  11.668  21.369  0.00  0.00    +0.000 OA
ENDROOT
BRANCH   1  12
ATOM     12  O   UNL     1      -1.755  13.229  19.989  0.00  0.00    +0.000 OA
BRANCH  12  18
ATOM     13  C   UNL     1      -2.626  13.417  22.353  0.00  0.00    +0.000 A 
ATOM     14  C   UNL     1      -3.738  13.160  23.215  0.00  0.00    +0.000 A 
ATOM     15  C   UNL     1      -5.000  12.817  22.720  0.00  0.00    +0.000 A 
ATOM     16  C   UNL     1      -5.184  12.819  21.343  0.00  0.00    +0.000 A 
ATOM     17  C   UNL     1      -4.085  13.075  20.486  0.00  0.00    +0.000 A 
ATOM     18  C   UNL     1      -2.752  13.371  20.959  0.00  0.00    +0.000 A 
BRANCH  13  20
ATOM     19  C   UNL     1      -1.079  14.524  23.725  0.00  0.00    +0.000 C 
ATOM     20  O   UNL     1      -1.424  13.360  23.003  0.00  0.00    +0.000 OA
ENDBRANCH  13  20
ENDBRANCH  12  18
ENDBRANCH   1  12
BRANCH   6  21
ATOM     21  O   UNL     1       2.647   6.244  19.906  0.00  0.00    +0.000 OA
BRANCH  21  22
ATOM     22  C   UNL     1       3.638   5.422  19.249  0.00  0.00    +0.000 C 
ATOM     23  O   UNL     1       4.838   5.545  19.467  0.00  0.00    +0.000 OA
ATOM     24  N   UNL     1       3.144   4.387  18.439  0.00  0.00    +0.000 N 
ATOM     25  C   UNL     1       1.742   4.145  18.109  0.00  0.00    +0.000 C 
ATOM     26  C   UNL     1       1.355   2.697  18.438  0.00  0.00    +0.000 C 
ATOM     27  O   UNL     1       2.231   1.761  17.783  0.00  0.00    +0.000 OA
ATOM     28  C   UNL     1       3.596   1.979  18.186  0.00  0.00    +0.000 C 
ATOM     29  C   UNL     1       4.053   3.405  17.812  0.00  0.00    +0.000 C 
ENDBRANCH  21  22
ENDBRANCH   6  21
TORSDOF 5
ENDMDL
MODEL 3
REMARK VINA RESULT:      -7.7      1.453      2.426
REMARK  Name = 
REMARK  6 active torsions:
REMARK  status: ('A' for Active; 'I' for Inactive)
REMARK    1  A    between atoms: C_1  and  O_2
REMARK    2  A    between atoms: O_2  and  C_3
REMARK    3  A    between atoms: C_8  and  O_9
REMARK    4  A    between atoms: O_9  and  C_10
REMARK    5  A    between atoms: C_15  and  O_16
REMARK    6  A    between atoms: O_16  and  C_17
REMARK                            x       y       z     vdW  Elec       q    Type
REMARK                         _______ _______ _______ _____ _____    ______ ____
ROOT
ATOM      1  C   UNL     1      -0.941  12.056  19.958  0.00  0.00    +0.000 A 
ATOM      2  C   UNL     1      -1.304  10.769  19.635  0.00  0.00    +0.000 A 
ATOM      3  O   UNL     1      -0.493   9.537  20.159  0.00  0.00    +0.000 OA
ATOM      4  C   UNL     1       0.972   9.585  19.861  0.00  0.00    +0.000 A 
ATOM      5  C   UNL     1       1.697   8.304  20.021  0.00  0.00    +0.000 A 
ATOM      6  C   UNL     1       2.416   7.743  18.988  0.00  0.00    +0.000 A 
ATOM      7  C   UNL     1       2.306   8.512  17.854  0.00  0.00    +0.000 A 
ATOM      8  C   UNL     1       1.762   9.914  17.963  0.00  0.00    +0.000 A 
ATOM      9  C   UNL     1       1.151  10.677  19.026  0.00  0.00    +0.000 A 
ATOM     10  C   UNL     1       0.429  11.554  20.337  0.00  0.00    +0.000 A 
ATOM     11  O   UNL     1       0.581  11.295  21.569  0.00  0.00    +0.000 OA
ENDROOT
BRANCH   1  12
ATOM     12  O   UNL     1      -2.011  12.825  20.542  0.00  0.00    +0.000 OA
BRANCH  12  18
ATOM     13  C   UNL     1      -4.415  13.022  21.295  0.00  0.00    +0.000 A 
ATOM     14  C   UNL     1      -5.281  13.136  22.427  0.00  0.00    +0.000 A 
ATOM     15  C   UNL     1      -4.835  12.911  23.732  0.00  0.00    +0.000 A 
ATOM     16  C   UNL     1      -3.527  12.475  23.910  0.00  0.00    +0.000 A 
ATOM     17  C   UNL     1      -2.667  12.359  22.790  0.00  0.00    +0.000 A 
ATOM     18  C   UNL     1      -3.073  12.643  21.434  0.00  0.00    +0.000 A 
BRANCH  13  20
ATOM     19  C   UNL     1      -6.315  13.802  20.165  0.00  0.00    +0.000 C 
ATOM     20  O   UNL     1      -4.913  13.634  20.179  0.00  0.00    +0.000 OA
ENDBRANCH  13  20
ENDBRANCH  12  18
ENDBRANCH   1  12
BRANCH   6  21
ATOM     21  O   UNL     1       3.032   6.444  19.114  0.00  0.00    +0.000 OA
BRANCH  21  22
ATOM     22  C   UNL     1       3.222   5.434  18.097  0.00  0.00    +0.000 C 
ATOM     23  O   UNL     1       4.085   5.531  17.233  0.00  0.00    +0.000 OA
ATOM     24  N   UNL     1       2.447   4.271  18.229  0.00  0.00    +0.000 N 
ATOM     25  C   UNL     1       1.394   4.043  19.216  0.00  0.00    +0.000 C 
ATOM     26  C   UNL     1       1.647   2.738  19.980  0.00  0.00    +0.000 C 
ATOM     27  O   UNL     1       1.789   1.624  19.080  0.00  0.00    +0.000 OA
ATOM     28  C   UNL     1       2.881   1.847  18.168  0.00  0.00    +0.000 C 
ATOM     29  C   UNL     1       2.637   3.117  17.326  0.00  0.00    +0.000 C 
ENDBRANCH  21  22
ENDBRANCH   6  21
TORSDOF 5
ENDMDL
MODEL 4
REMARK VINA RESULT:      -7.7      3.090     10.175
REMARK  Name = 
REMARK  6 active torsions:
REMARK  status: ('A' for Active; 'I' for Inactive)
REMARK    1  A    between atoms: C_1  and  O_2
REMARK    2  A    between atoms: O_2  and  C_3
REMARK    3  A    between atoms: C_8  and  O_9
REMARK    4  A    between atoms: O_9  and  C_10
REMARK    5  A    between atoms: C_15  and  O_16
REMARK    6  A    between atoms: O_16  and  C_17
REMARK                            x       y       z     vdW  Elec       q    Type
REMARK                         _______ _______ _______ _____ _____    ______ ____
ROOT
ATOM      1  C   UNL     1       3.589   5.473  18.631  0.00  0.00    +0.000 A 
ATOM      2  C   UNL     1       2.310   5.659  18.159  0.00  0.00    +0.000 A 
ATOM      3  O   UNL     1       1.830   7.052  17.630  0.00  0.00    +0.000 OA
ATOM      4  C   UNL     1       2.030   8.183  18.588  0.00  0.00    +0.000 A 
ATOM      5  C   UNL     1       1.284   9.422  18.275  0.00  0.00    +0.000 A 
ATOM      6  C   UNL     1       0.411   9.991  19.178  0.00  0.00    +0.000 A 
ATOM      7  C   UNL     1       0.336   9.228  20.319  0.00  0.00    +0.000 A 
ATOM      8  C   UNL     1       1.374   8.163  20.563  0.00  0.00    +0.000 A 
ATOM      9  C   UNL     1       2.446   7.602  19.775  0.00  0.00    +0.000 A 
ATOM     10  C   UNL     1       3.726   6.965  18.792  0.00  0.00    +0.000 A 
ATOM     11  O   UNL     1       4.268   7.561  17.813  0.00  0.00    +0.000 OA
ENDROOT
BRANCH   1  12
ATOM     12  O   UNL     1       4.285   4.386  17.990  0.00  0.00    +0.000 OA
BRANCH  12  18
ATOM     13  C   UNL     1       6.662   4.287  17.138  0.00  0.00    +0.000 A 
ATOM     14  C   UNL     1       7.504   4.464  15.996  0.00  0.00    +0.000 A 
ATOM     15  C   UNL     1       6.989   4.587  14.703  0.00  0.00    +0.000 A 
ATOM     16  C   UNL     1       5.618   4.440  14.528  0.00  0.00    +0.000 A 
ATOM     17  C   UNL     1       4.781   4.263  15.658  0.00  0.00    +0.000 A 
ATOM     18  C   UNL     1       5.269   4.194  17.015  0.00  0.00    +0.000 A 
BRANCH  13  20
ATOM     19  C   UNL     1       7.455   5.939  18.601  0.00  0.00    +0.000 C 
ATOM     20  O   UNL     1       7.297   4.565  18.317  0.00  0.00    +0.000 OA
ENDBRANCH  13  20
ENDBRANCH  12  18
ENDBRANCH   1  12
BRANCH   6  21
ATOM     21  O   UNL     1      -0.394  11.137  18.830  0.00  0.00    +0.000 OA
BRANCH  21  22
ATOM     22  C   UNL     1      -1.814  11.334  19.025  0.00  0.00    +0.000 C 
ATOM     23  O   UNL     1      -2.259  12.019  19.938  0.00  0.00    +0.000 OA
ATOM     24  N   UNL     1      -2.653  10.800  18.034  0.00  0.00    +0.000 N 
ATOM     25  C   UNL     1      -2.236   9.971  16.906  0.00  0.00    +0.000 C 
ATOM     26  C   UNL     1      -2.751  10.562  15.587  0.00  0.00    +0.000 C 
ATOM     27  O   UNL     1      -4.178  10.748  15.619  0.00  0.00    +0.000 OA
ATOM     28  C   UNL     1      -4.549  11.627  16.697  0.00  0.00    +0.000 C 
ATOM     29  C   UNL     1      -4.111  11.039  18.055  0.00  0.00    +0.000 C 
ENDBRANCH  21  22
ENDBRANCH   6  21
TORSDOF 5
ENDMDL
MODEL 5
REMARK VINA RESULT:      -7.7      6.541      9.677
REMARK  Name = 
REMARK  6 active torsions:
REMARK  status: ('A' for Active; 'I' for Inactive)
REMARK    1  A    between atoms: C_1  and  O_2
REMARK    2  A    between atoms: O_2  and  C_3
REMARK    3  A    between atoms: C_8  and  O_9
REMARK    4  A    between atoms: O_9  and  C_10
REMARK    5  A    between atoms: C_15  and  O_16
REMARK    6  A    between atoms: O_16  and  C_17
REMARK                            x       y       z     vdW  Elec       q    Type
REMARK                         _______ _______ _______ _____ _____    ______ ____
ROOT
ATOM      1  C   UNL     1       7.893   8.407  17.731  0.00  0.00    +0.000 A 
ATOM      2  C   UNL     1       6.556   8.335  17.410  0.00  0.00    +0.000 A 
ATOM      3  O   UNL     1       5.656   7.164  17.928  0.00  0.00    +0.000 OA
ATOM      4  C   UNL     1       6.176   5.796  17.619  0.00  0.00    +0.000 A 
ATOM      5  C   UNL     1       5.201   4.694  17.774  0.00  0.00    +0.000 A 
ATOM      6  C   UNL     1       4.902   3.838  16.736  0.00  0.00    +0.000 A 
ATOM      7  C   UNL     1       5.591   4.199  15.603  0.00  0.00    +0.000 A 
ATOM      8  C   UNL     1       6.740   5.169  15.716  0.00  0.00    +0.000 A 
ATOM      9  C   UNL     1       7.265   5.987  16.783  0.00  0.00    +0.000 A 
ATOM     10  C   UNL     1       7.864   6.946  18.099  0.00  0.00    +0.000 A 
ATOM     11  O   UNL     1       7.671   6.710  19.330  0.00  0.00    +0.000 OA
ENDROOT
BRANCH   1  12
ATOM     12  O   UNL     1       8.273   9.665  18.322  0.00  0.00    +0.000 OA
BRANCH  12  18
ATOM     13  C   UNL     1       9.722  10.806  20.049  0.00  0.00    +0.000 A 
ATOM     14  C   UNL     1      10.747  11.781  20.257  0.00  0.00    +0.000 A 
ATOM     15  C   UNL     1      11.488  12.319  19.202  0.00  0.00    +0.000 A 
ATOM     16  C   UNL     1      11.272  11.813  17.926  0.00  0.00    +0.000 A 
ATOM     17  C   UNL     1      10.258  10.845  17.717  0.00  0.00    +0.000 A 
ATOM     18  C   UNL     1       9.429  10.311  18.772  0.00  0.00    +0.000 A 
BRANCH  13  20
ATOM     19  C   UNL     1       8.837  11.807  21.976  0.00  0.00    +0.000 C 
ATOM     20  O   UNL     1       8.874  10.688  21.115  0.00  0.00    +0.000 OA
ENDBRANCH  13  20
ENDBRANCH  12  18
ENDBRANCH   1  12
BRANCH   6  21
ATOM     21  O   UNL     1       3.874   2.833  16.858  0.00  0.00    +0.000 OA
BRANCH  21  22
ATOM     22  C   UNL     1       3.368   2.201  18.056  0.00  0.00    +0.000 C 
ATOM     23  O   UNL     1       3.845   1.161  18.498  0.00  0.00    +0.000 OA
ATOM     24  N   UNL     1       2.383   2.910  18.760  0.00  0.00    +0.000 N 
ATOM     25  C   UNL     1       1.744   4.152  18.334  0.00  0.00    +0.000 C 
ATOM     26  C   UNL     1       1.851   5.216  19.433  0.00  0.00    +0.000 C 
ATOM     27  O   UNL     1       1.314   4.736  20.679  0.00  0.00    +0.000 OA
ATOM     28  C   UNL     1       2.014   3.554  21.109  0.00  0.00    +0.000 C 
ATOM     29  C   UNL     1       1.875   2.428  20.062  0.00  0.00    +0.000 C 
ENDBRANCH  21  22
ENDBRANCH   6  21
TORSDOF 5
ENDMDL
MODEL 6
REMARK VINA RESULT:      -7.6      1.090      1.269
REMARK  Name = 
REMARK  6 active torsions:
REMARK  status: ('A' for Active; 'I' for Inactive)
REMARK    1  A    between atoms: C_1  and  O_2
REMARK    2  A    between atoms: O_2  and  C_3
REMARK    3  A    between atoms: C_8  and  O_9
REMARK    4  A    between atoms: O_9  and  C_10
REMARK    5  A    between atoms: C_15  and  O_16
REMARK    6  A    between atoms: O_16  and  C_17
REMARK                            x       y       z     vdW  Elec       q    Type
REMARK                         _______ _______ _______ _____ _____    ______ ____
ROOT
ATOM      1  C   UNL     1      -0.696  11.940  20.280  0.00  0.00    +0.000 A 
ATOM      2  C   UNL     1      -1.152  10.657  20.080  0.00  0.00    +0.000 A 
ATOM      3  O   UNL     1      -0.337   9.415  20.575  0.00  0.00    +0.000 OA
ATOM      4  C   UNL     1       1.081   9.373  20.102  0.00  0.00    +0.000 A 
ATOM      5  C   UNL     1       1.764   8.069  20.251  0.00  0.00    +0.000 A 
ATOM      6  C   UNL     1       2.327   7.417  19.174  0.00  0.00    +0.000 A 
ATOM      7  C   UNL     1       2.113   8.128  18.018  0.00  0.00    +0.000 A 
ATOM      8  C   UNL     1       1.648   9.559  18.108  0.00  0.00    +0.000 A 
ATOM      9  C   UNL     1       1.205  10.408  19.188  0.00  0.00    +0.000 A 
ATOM     10  C   UNL     1       0.687  11.390  20.521  0.00  0.00    +0.000 A 
ATOM     11  O   UNL     1       0.977  11.191  21.739  0.00  0.00    +0.000 OA
ENDROOT
BRANCH   1  12
ATOM     12  O   UNL     1      -1.652  12.791  20.940  0.00  0.00    +0.000 OA
BRANCH  12  18
ATOM     13  C   UNL     1      -3.423  12.836  22.742  0.00  0.00    +0.000 A 
ATOM     14  C   UNL     1      -3.864  13.492  23.933  0.00  0.00    +0.000 A 
ATOM     15  C   UNL     1      -3.051  14.386  24.636  0.00  0.00    +0.000 A 
ATOM     16  C   UNL     1      -1.744  14.563  24.198  0.00  0.00    +0.000 A 
ATOM     17  C   UNL     1      -1.304  13.913  23.019  0.00  0.00    +0.000 A 
ATOM     18  C   UNL     1      -2.133  13.032  22.231  0.00  0.00    +0.000 A 
BRANCH  13  20
ATOM     19  C   UNL     1      -5.054  13.216  21.100  0.00  0.00    +0.000 C 
ATOM     20  O   UNL     1      -4.453  12.316  22.008  0.00  0.00    +0.000 OA
ENDBRANCH  13  20
ENDBRANCH  12  18
ENDBRANCH   1  12
BRANCH   6  21
ATOM     21  O   UNL     1       2.896   6.097  19.304  0.00  0.00    +0.000 OA
BRANCH  21  22
ATOM     22  C   UNL     1       3.011   5.062  18.300  0.00  0.00    +0.000 C 
ATOM     23  O   UNL     1       2.062   4.719  17.605  0.00  0.00    +0.000 OA
ATOM     24  N   UNL     1       4.302   4.558  18.077  0.00  0.00    +0.000 N 
ATOM     25  C   UNL     1       5.502   4.893  18.839  0.00  0.00    +0.000 C 
ATOM     26  C   UNL     1       6.623   5.357  17.900  0.00  0.00    +0.000 C 
ATOM     27  O   UNL     1       6.890   4.377  16.880  0.00  0.00    +0.000 OA
ATOM     28  C   UNL     1       5.706   4.124  16.100  0.00  0.00    +0.000 C 
ATOM     29  C   UNL     1       4.569   3.588  16.995  0.00  0.00    +0.000 C 
ENDBRANCH  21  22
ENDBRANCH   6  21
TORSDOF 5
ENDMDL
MODEL 7
REMARK VINA RESULT:      -7.6      1.735      2.231
REMARK  Name = 
REMARK  6 active torsions:
REMARK  status: ('A' for Active; 'I' for Inactive)
REMARK    1  A    between atoms: C_1  and  O_2
REMARK    2  A    between atoms: O_2  and  C_3
REMARK    3  A    between atoms: C_8  and  O_9
REMARK    4  A    between atoms: O_9  and  C_10
REMARK    5  A    between atoms: C_15  and  O_16
REMARK    6  A    between atoms: O_16  and  C_17
REMARK                            x       y       z     vdW  Elec       q    Type
REMARK                         _______ _______ _______ _____ _____    ______ ____
ROOT
ATOM      1  C   UNL     1      -0.972  12.019  20.158  0.00  0.00    +0.000 A 
ATOM      2  C   UNL     1      -1.349  10.718  19.916  0.00  0.00    +0.000 A 
ATOM      3  O   UNL     1      -0.504   9.512  20.445  0.00  0.00    +0.000 OA
ATOM      4  C   UNL     1       0.941   9.548  20.059  0.00  0.00    +0.000 A 
ATOM      5  C   UNL     1       1.679   8.277  20.234  0.00  0.00    +0.000 A 
ATOM      6  C   UNL     1       2.338   7.670  19.186  0.00  0.00    +0.000 A 
ATOM      7  C   UNL     1       2.158   8.386  18.027  0.00  0.00    +0.000 A 
ATOM      8  C   UNL     1       1.616   9.791  18.105  0.00  0.00    +0.000 A 
ATOM      9  C   UNL     1       1.066  10.601  19.166  0.00  0.00    +0.000 A 
ATOM     10  C   UNL     1       0.420  11.536  20.476  0.00  0.00    +0.000 A 
ATOM     11  O   UNL     1       0.646  11.334  21.708  0.00  0.00    +0.000 OA
ENDROOT
BRANCH   1  12
ATOM     12  O   UNL     1      -2.008  12.812  20.769  0.00  0.00    +0.000 OA
BRANCH  12  18
ATOM     13  C   UNL     1      -4.469  12.887  21.338  0.00  0.00    +0.000 A 
ATOM     14  C   UNL     1      -5.421  13.043  22.393  0.00  0.00    +0.000 A 
ATOM     15  C   UNL     1      -5.057  12.989  23.741  0.00  0.00    +0.000 A 
ATOM     16  C   UNL     1      -3.736  12.681  24.049  0.00  0.00    +0.000 A 
ATOM     17  C   UNL     1      -2.790  12.524  23.006  0.00  0.00    +0.000 A 
ATOM     18  C   UNL     1      -3.116  12.635  21.603  0.00  0.00    +0.000 A 
BRANCH  13  20
ATOM     19  C   UNL     1      -5.126  12.340  19.155  0.00  0.00    +0.000 C 
ATOM     20  O   UNL     1      -4.928  13.340  20.133  0.00  0.00    +0.000 OA
ENDBRANCH  13  20
ENDBRANCH  12  18
ENDBRANCH   1  12
BRANCH   6  21
ATOM     21  O   UNL     1       2.965   6.378  19.335  0.00  0.00    +0.000 OA
BRANCH  21  22
ATOM     22  C   UNL     1       2.434   5.185  19.955  0.00  0.00    +0.000 C 
ATOM     23  O   UNL     1       1.442   5.207  20.673  0.00  0.00    +0.000 OA
ATOM     24  N   UNL     1       3.044   3.974  19.587  0.00  0.00    +0.000 N 
ATOM     25  C   UNL     1       4.226   3.826  18.742  0.00  0.00    +0.000 C 
ATOM     26  C   UNL     1       3.942   2.858  17.587  0.00  0.00    +0.000 C 
ATOM     27  O   UNL     1       3.466   1.589  18.073  0.00  0.00    +0.000 OA
ATOM     28  C   UNL     1       2.260   1.762  18.840  0.00  0.00    +0.000 C 
ATOM     29  C   UNL     1       2.515   2.677  20.057  0.00  0.00    +0.000 C 
ENDBRANCH  21  22
ENDBRANCH   6  21
TORSDOF 5
ENDMDL
MODEL 8
REMARK VINA RESULT:      -7.6      2.010      2.781
REMARK  Name = 
REMARK  6 active torsions:
REMARK  status: ('A' for Active; 'I' for Inactive)
REMARK    1  A    between atoms: C_1  and  O_2
REMARK    2  A    between atoms: O_2  and  C_3
REMARK    3  A    between atoms: C_8  and  O_9
REMARK    4  A    between atoms: O_9  and  C_10
REMARK    5  A    between atoms: C_15  and  O_16
REMARK    6  A    between atoms: O_16  and  C_17
REMARK                            x       y       z     vdW  Elec       q    Type
REMARK                         _______ _______ _______ _____ _____    ______ ____
ROOT
ATOM      1  C   UNL     1      -0.742  12.049  19.387  0.00  0.00    +0.000 A 
ATOM      2  C   UNL     1      -1.205  10.754  19.452  0.00  0.00    +0.000 A 
ATOM      3  O   UNL     1      -0.451   9.660  20.278  0.00  0.00    +0.000 OA
ATOM      4  C   UNL     1       0.997   9.510  19.935  0.00  0.00    +0.000 A 
ATOM      5  C   UNL     1       1.645   8.274  20.429  0.00  0.00    +0.000 A 
ATOM      6  C   UNL     1       2.273   7.392  19.576  0.00  0.00    +0.000 A 
ATOM      7  C   UNL     1       2.156   7.819  18.275  0.00  0.00    +0.000 A 
ATOM      8  C   UNL     1       1.710   9.232  17.999  0.00  0.00    +0.000 A 
ATOM      9  C   UNL     1       1.205  10.307  18.821  0.00  0.00    +0.000 A 
ATOM     10  C   UNL     1       0.609  11.569  19.850  0.00  0.00    +0.000 A 
ATOM     11  O   UNL     1       0.806  11.655  21.100  0.00  0.00    +0.000 OA
ENDROOT
BRANCH   1  12
ATOM     12  O   UNL     1      -1.729  13.030  19.761  0.00  0.00    +0.000 OA
BRANCH  12  18
ATOM     13  C   UNL     1      -2.841  13.052  22.030  0.00  0.00    +0.000 A 
ATOM     14  C   UNL     1      -4.056  12.797  22.741  0.00  0.00    +0.000 A 
ATOM     15  C   UNL     1      -5.274  12.598  22.086  0.00  0.00    +0.000 A 
ATOM     16  C   UNL     1      -5.306  12.747  20.705  0.00  0.00    +0.000 A 
ATOM     17  C   UNL     1      -4.105  13.002  19.998  0.00  0.00    +0.000 A 
ATOM     18  C   UNL     1      -2.816  13.151  20.633  0.00  0.00    +0.000 A 
BRANCH  13  20
ATOM     19  C   UNL     1      -1.009  14.011  23.135  0.00  0.00    +0.000 C 
ATOM     20  O   UNL     1      -1.725  12.843  22.791  0.00  0.00    +0.000 OA
ENDBRANCH  13  20
ENDBRANCH  12  18
ENDBRANCH   1  12
BRANCH   6  21
ATOM     21  O   UNL     1       2.808   6.137  20.046  0.00  0.00    +0.000 OA
BRANCH  21  22
ATOM     22  C   UNL     1       2.139   4.861  20.171  0.00  0.00    +0.000 C 
ATOM     23  O   UNL     1       0.995   4.763  20.600  0.00  0.00    +0.000 OA
ATOM     24  N   UNL     1       2.825   3.751  19.654  0.00  0.00    +0.000 N 
ATOM     25  C   UNL     1       4.184   3.749  19.120  0.00  0.00    +0.000 C 
ATOM     26  C   UNL     1       4.208   3.136  17.714  0.00  0.00    +0.000 C 
ATOM     27  O   UNL     1       3.626   1.820  17.708  0.00  0.00    +0.000 OA
ATOM     28  C   UNL     1       2.263   1.867  18.170  0.00  0.00    +0.000 C 
ATOM     29  C   UNL     1       2.196   2.414  19.611  0.00  0.00    +0.000 C 
ENDBRANCH  21  22
ENDBRANCH   6  21
TORSDOF 5
ENDMDL
MODEL 9
REMARK VINA RESULT:      -7.6      6.565      9.655
REMARK  Name = 
REMARK  6 active torsions:
REMARK  status: ('A' for Active; 'I' for Inactive)
REMARK    1  A    between atoms: C_1  and  O_2
REMARK    2  A    between atoms: O_2  and  C_3
REMARK    3  A    between atoms: C_8  and  O_9
REMARK    4  A    between atoms: O_9  and  C_10
REMARK    5  A    between atoms: C_15  and  O_16
REMARK    6  A    between atoms: O_16  and  C_17
REMARK                            x       y       z     vdW  Elec       q    Type
REMARK                         _______ _______ _______ _____ _____    ______ ____
ROOT
ATOM      1  C   UNL     1       8.108   8.171  17.808  0.00  0.00    +0.000 A 
ATOM      2  C   UNL     1       6.752   8.219  17.576  0.00  0.00    +0.000 A 
ATOM      3  O   UNL     1       5.798   7.084  18.079  0.00  0.00    +0.000 OA
ATOM      4  C   UNL     1       6.191   5.706  17.650  0.00  0.00    +0.000 A 
ATOM      5  C   UNL     1       5.146   4.669  17.802  0.00  0.00    +0.000 A 
ATOM      6  C   UNL     1       4.716   3.910  16.734  0.00  0.00    +0.000 A 
ATOM      7  C   UNL     1       5.357   4.297  15.582  0.00  0.00    +0.000 A 
ATOM      8  C   UNL     1       6.582   5.170  15.677  0.00  0.00    +0.000 A 
ATOM      9  C   UNL     1       7.236   5.874  16.755  0.00  0.00    +0.000 A 
ATOM     10  C   UNL     1       7.989   6.695  18.084  0.00  0.00    +0.000 A 
ATOM     11  O   UNL     1       7.858   6.390  19.308  0.00  0.00    +0.000 OA
ENDROOT
BRANCH   1  12
ATOM     12  O   UNL     1       8.621   9.355  18.450  0.00  0.00    +0.000 OA
BRANCH  12  18
ATOM     13  C   UNL     1      10.049  11.434  18.598  0.00  0.00    +0.000 A 
ATOM     14  C   UNL     1      10.059  12.858  18.473  0.00  0.00    +0.000 A 
ATOM     15  C   UNL     1       8.999  13.563  17.894  0.00  0.00    +0.000 A 
ATOM     16  C   UNL     1       7.951  12.832  17.346  0.00  0.00    +0.000 A 
ATOM     17  C   UNL     1       7.939  11.421  17.466  0.00  0.00    +0.000 A 
ATOM     18  C   UNL     1       8.985  10.662  18.113  0.00  0.00    +0.000 A 
BRANCH  13  20
ATOM     19  C   UNL     1      12.178  11.689  19.546  0.00  0.00    +0.000 C 
ATOM     20  O   UNL     1      10.962  10.972  19.505  0.00  0.00    +0.000 OA
ENDBRANCH  13  20
ENDBRANCH  12  18
ENDBRANCH   1  12
BRANCH   6  21
ATOM     21  O   UNL     1       3.623   2.977  16.863  0.00  0.00    +0.000 OA
BRANCH  21  22
ATOM     22  C   UNL     1       3.188   2.254  18.038  0.00  0.00    +0.000 C 
ATOM     23  O   UNL     1       3.667   1.172  18.354  0.00  0.00    +0.000 OA
ATOM     24  N   UNL     1       2.273   2.920  18.869  0.00  0.00    +0.000 N 
ATOM     25  C   UNL     1       1.639   4.207  18.596  0.00  0.00    +0.000 C 
ATOM     26  C   UNL     1       1.852   5.171  19.770  0.00  0.00    +0.000 C 
ATOM     27  O   UNL     1       1.393   4.597  21.008  0.00  0.00    +0.000 OA
ATOM     28  C   UNL     1       2.090   3.368  21.284  0.00  0.00    +0.000 C 
ATOM     29  C   UNL     1       1.847   2.339  20.159  0.00  0.00    +0.000 C 
ENDBRANCH  21  22
ENDBRANCH   6  21
TORSDOF 5
ENDMDL
