MODEL 1
REMARK VINA RESULT:      -7.4      0.000      0.000
REMARK  Name = 
REMARK  7 active torsions:
REMARK  status: ('A' for Active; 'I' for Inactive)
REMARK    1  A    between atoms: C_1  and  C_2
REMARK    2  A    between atoms: C_7  and  C_8
REMARK    3  A    between atoms: C_11  and  N_12
REMARK    4  A    between atoms: C_14  and  C_15
REMARK    5  A    between atoms: C_23  and  C_24
REMARK    6  A    between atoms: C_26  and  C_27
REMARK    7  A    between atoms: C_31  and  C_32
REMARK                            x       y       z     vdW  Elec       q    Type
REMARK                         _______ _______ _______ _____ _____    ______ ____
ROOT
ATOM      1  C   UNL     1       1.130  17.606  18.771  0.00  0.00    +0.000 C 
ATOM      2  C   UNL     1       2.243  17.440  19.800  0.00  0.00    +0.000 C 
ATOM      3  C   UNL     1       1.921  16.380  20.869  0.00  0.00    +0.000 C 
ATOM      4  N   UNL     1       2.244  15.048  20.382  0.00  0.00    +0.000 N 
ATOM      5  C   UNL     1       1.278  14.098  20.185  0.00  0.00    +0.000 A 
ATOM      6  N   UNL     1       1.662  12.889  19.806  0.00  0.00    +0.000 NA
ATOM      7  C   UNL     1       0.716  11.964  19.770  0.00  0.00    +0.000 A 
ATOM      8  N   UNL     1      -0.549  12.165  20.097  0.00  0.00    +0.000 NA
ATOM      9  C   UNL     1      -0.885  13.422  20.342  0.00  0.00    +0.000 A 
ATOM     10  N   UNL     1      -2.217  13.722  20.476  0.00  0.00    +0.000 N 
ATOM     11  C   UNL     1      -2.669  15.078  20.755  0.00  0.00    +0.000 C 
ATOM     12  C   UNL     1      -3.205  15.193  22.195  0.00  0.00    +0.000 C 
ATOM     13  C   UNL     1      -2.105  15.401  23.229  0.00  0.00    +0.000 C 
ATOM     14  O   UNL     1      -4.110  14.136  22.562  0.00  0.00    +0.000 OA
ATOM     15  C   UNL     1      -3.735  12.797  22.186  0.00  0.00    +0.000 C 
ATOM     16  C   UNL     1      -2.814  12.153  23.218  0.00  0.00    +0.000 C 
ATOM     17  C   UNL     1      -3.202  12.683  20.744  0.00  0.00    +0.000 C 
ATOM     18  N   UNL     1       0.007  14.402  20.423  0.00  0.00    +0.000 NA
ATOM     19  C   UNL     1       3.599  14.878  19.889  0.00  0.00    +0.000 C 
ATOM     20  C   UNL     1       3.913  15.936  18.814  0.00  0.00    +0.000 C 
ATOM     21  C   UNL     1       3.392  15.553  17.433  0.00  0.00    +0.000 C 
ATOM     22  O   UNL     1       3.535  17.274  19.186  0.00  0.00    +0.000 OA
ENDROOT
BRANCH   7  23
ATOM     23  C   UNL     1       1.136  10.601  19.423  0.00  0.00    +0.000 A 
ATOM     24  C   UNL     1       1.579  10.351  18.118  0.00  0.00    +0.000 A 
ATOM     25  N   UNL     1       2.053   9.169  17.649  0.00  0.00    +0.000 NA
ATOM     26  C   UNL     1       2.098   8.152  18.511  0.00  0.00    +0.000 A 
ATOM     27  C   UNL     1       1.666   8.268  19.820  0.00  0.00    +0.000 A 
ATOM     28  C   UNL     1       1.148   9.498  20.291  0.00  0.00    +0.000 A 
BRANCH  28  29
ATOM     29  C   UNL     1       0.639   9.491  21.715  0.00  0.00    +0.000 C 
ATOM     30  F   UNL     1       0.341  10.686  22.278  0.00  0.00    +0.000 F 
ATOM     31  F   UNL     1      -0.531   8.783  21.807  0.00  0.00    +0.000 F 
ATOM     32  F   UNL     1       1.500   8.865  22.568  0.00  0.00    +0.000 F 
ENDBRANCH  28  29
BRANCH  26  33
ATOM     33  N   UNL     1       2.649   6.964  18.050  0.00  0.00    +0.000 N 
ATOM     34  H   UNL     1       3.505   7.204  17.553  0.00  0.00    +0.000 HD
ATOM     35  H   UNL     1       2.007   6.440  17.466  0.00  0.00    +0.000 HD
ENDBRANCH  26  33
ENDBRANCH   7  23
TORSDOF 3
ENDMDL
MODEL 2
REMARK VINA RESULT:      -7.3      3.399      6.717
REMARK  Name = 
REMARK  7 active torsions:
REMARK  status: ('A' for Active; 'I' for Inactive)
REMARK    1  A    between atoms: C_1  and  C_2
REMARK    2  A    between atoms: C_7  and  C_8
REMARK    3  A    between atoms: C_11  and  N_12
REMARK    4  A    between atoms: C_14  and  C_15
REMARK    5  A    between atoms: C_23  and  C_24
REMARK    6  A    between atoms: C_26  and  C_27
REMARK    7  A    between atoms: C_31  and  C_32
REMARK                            x       y       z     vdW  Elec       q    Type
REMARK                         _______ _______ _______ _____ _____    ______ ____
ROOT
ATOM      1  C   UNL     1      -5.990  12.807  24.176  0.00  0.00    +0.000 C 
ATOM      2  C   UNL     1      -6.672  13.890  23.347  0.00  0.00    +0.000 C 
ATOM      3  C   UNL     1      -5.728  14.555  22.330  0.00  0.00    +0.000 C 
ATOM      4  N   UNL     1      -5.637  13.756  21.118  0.00  0.00    +0.000 N 
ATOM      5  C   UNL     1      -4.464  13.164  20.730  0.00  0.00    +0.000 A 
ATOM      6  N   UNL     1      -4.448  12.511  19.578  0.00  0.00    +0.000 NA
ATOM      7  C   UNL     1      -3.265  12.081  19.172  0.00  0.00    +0.000 A 
ATOM      8  N   UNL     1      -2.128  12.273  19.819  0.00  0.00    +0.000 NA
ATOM      9  C   UNL     1      -2.238  12.820  21.020  0.00  0.00    +0.000 A 
ATOM     10  N   UNL     1      -1.126  12.848  21.823  0.00  0.00    +0.000 N 
ATOM     11  C   UNL     1      -1.161  13.439  23.154  0.00  0.00    +0.000 C 
ATOM     12  C   UNL     1      -0.374  14.762  23.189  0.00  0.00    +0.000 C 
ATOM     13  C   UNL     1      -1.184  15.954  22.694  0.00  0.00    +0.000 C 
ATOM     14  O   UNL     1       0.921  14.682  22.566  0.00  0.00    +0.000 OA
ATOM     15  C   UNL     1       0.995  13.994  21.303  0.00  0.00    +0.000 C 
ATOM     16  C   UNL     1       0.663  14.915  20.133  0.00  0.00    +0.000 C 
ATOM     17  C   UNL     1       0.210  12.668  21.271  0.00  0.00    +0.000 C 
ATOM     18  N   UNL     1      -3.383  13.301  21.489  0.00  0.00    +0.000 NA
ATOM     19  C   UNL     1      -6.905  13.428  20.493  0.00  0.00    +0.000 C 
ATOM     20  C   UNL     1      -7.844  12.755  21.512  0.00  0.00    +0.000 C 
ATOM     21  C   UNL     1      -7.572  11.263  21.678  0.00  0.00    +0.000 C 
ATOM     22  O   UNL     1      -7.916  13.439  22.777  0.00  0.00    +0.000 OA
ENDROOT
BRANCH   7  23
ATOM     23  C   UNL     1      -3.215  11.420  17.863  0.00  0.00    +0.000 A 
ATOM     24  C   UNL     1      -4.305  11.570  16.996  0.00  0.00    +0.000 A 
ATOM     25  N   UNL     1      -4.397  11.076  15.735  0.00  0.00    +0.000 NA
ATOM     26  C   UNL     1      -3.353  10.381  15.282  0.00  0.00    +0.000 A 
ATOM     27  C   UNL     1      -2.229  10.143  16.052  0.00  0.00    +0.000 A 
ATOM     28  C   UNL     1      -2.154  10.639  17.375  0.00  0.00    +0.000 A 
BRANCH  28  29
ATOM     29  C   UNL     1      -0.912  10.259  18.148  0.00  0.00    +0.000 C 
ATOM     30  F   UNL     1      -0.063   9.375  17.573  0.00  0.00    +0.000 F 
ATOM     31  F   UNL     1      -0.131  11.361  18.381  0.00  0.00    +0.000 F 
ATOM     32  F   UNL     1      -1.205   9.766  19.386  0.00  0.00    +0.000 F 
ENDBRANCH  28  29
BRANCH  26  33
ATOM     33  N   UNL     1      -3.419   9.937  13.968  0.00  0.00    +0.000 N 
ATOM     34  H   UNL     1      -4.031  10.577  13.466  0.00  0.00    +0.000 HD
ATOM     35  H   UNL     1      -3.736   8.977  13.899  0.00  0.00    +0.000 HD
ENDBRANCH  26  33
ENDBRANCH   7  23
TORSDOF 3
ENDMDL
MODEL 3
REMARK VINA RESULT:      -7.2      0.159      5.078
REMARK  Name = 
REMARK  7 active torsions:
REMARK  status: ('A' for Active; 'I' for Inactive)
REMARK    1  A    between atoms: C_1  and  C_2
REMARK    2  A    between atoms: C_7  and  C_8
REMARK    3  A    between atoms: C_11  and  N_12
REMARK    4  A    between atoms: C_14  and  C_15
REMARK    5  A    between atoms: C_23  and  C_24
REMARK    6  A    between atoms: C_26  and  C_27
REMARK    7  A    between atoms: C_31  and  C_32
REMARK                            x       y       z     vdW  Elec       q    Type
REMARK                         _______ _______ _______ _____ _____    ______ ____
ROOT
ATOM      1  C   UNL     1      -2.370  15.503  23.163  0.00  0.00    +0.000 C 
ATOM      2  C   UNL     1      -3.332  15.308  21.996  0.00  0.00    +0.000 C 
ATOM      3  C   UNL     1      -2.616  15.185  20.640  0.00  0.00    +0.000 C 
ATOM      4  N   UNL     1      -2.161  13.821  20.424  0.00  0.00    +0.000 N 
ATOM      5  C   UNL     1      -0.830  13.509  20.337  0.00  0.00    +0.000 A 
ATOM      6  N   UNL     1      -0.501  12.255  20.071  0.00  0.00    +0.000 NA
ATOM      7  C   UNL     1       0.783  12.026  19.851  0.00  0.00    +0.000 A 
ATOM      8  N   UNL     1       1.729  12.951  19.866  0.00  0.00    +0.000 NA
ATOM      9  C   UNL     1       1.346  14.154  20.264  0.00  0.00    +0.000 A 
ATOM     10  N   UNL     1       2.315  15.095  20.503  0.00  0.00    +0.000 N 
ATOM     11  C   UNL     1       1.977  16.445  20.934  0.00  0.00    +0.000 C 
ATOM     12  C   UNL     1       2.238  17.463  19.808  0.00  0.00    +0.000 C 
ATOM     13  C   UNL     1       1.094  17.553  18.805  0.00  0.00    +0.000 C 
ATOM     14  O   UNL     1       3.517  17.305  19.169  0.00  0.00    +0.000 OA
ATOM     15  C   UNL     1       3.921  15.961  18.843  0.00  0.00    +0.000 C 
ATOM     16  C   UNL     1       3.367  15.512  17.494  0.00  0.00    +0.000 C 
ATOM     17  C   UNL     1       3.663  14.944  19.972  0.00  0.00    +0.000 C 
ATOM     18  N   UNL     1       0.074  14.471  20.476  0.00  0.00    +0.000 NA
ATOM     19  C   UNL     1      -3.182  12.797  20.553  0.00  0.00    +0.000 C 
ATOM     20  C   UNL     1      -3.890  12.919  21.916  0.00  0.00    +0.000 C 
ATOM     21  C   UNL     1      -3.117  12.254  23.050  0.00  0.00    +0.000 C 
ATOM     22  O   UNL     1      -4.290  14.263  22.246  0.00  0.00    +0.000 OA
ENDROOT
BRANCH   7  23
ATOM     23  C   UNL     1       1.158  10.656  19.482  0.00  0.00    +0.000 A 
ATOM     24  C   UNL     1       1.597  10.412  18.174  0.00  0.00    +0.000 A 
ATOM     25  N   UNL     1       2.032   9.223  17.686  0.00  0.00    +0.000 NA
ATOM     26  C   UNL     1       2.040   8.192  18.531  0.00  0.00    +0.000 A 
ATOM     27  C   UNL     1       1.608   8.300  19.840  0.00  0.00    +0.000 A 
ATOM     28  C   UNL     1       1.130   9.539  20.331  0.00  0.00    +0.000 A 
BRANCH  28  29
ATOM     29  C   UNL     1       0.617   9.525  21.753  0.00  0.00    +0.000 C 
ATOM     30  F   UNL     1       0.316  10.717  22.321  0.00  0.00    +0.000 F 
ATOM     31  F   UNL     1      -0.553   8.815  21.839  0.00  0.00    +0.000 F 
ATOM     32  F   UNL     1       1.475   8.896  22.606  0.00  0.00    +0.000 F 
ENDBRANCH  28  29
BRANCH  26  33
ATOM     33  N   UNL     1       2.552   6.993  18.051  0.00  0.00    +0.000 N 
ATOM     34  H   UNL     1       2.419   6.296  18.782  0.00  0.00    +0.000 HD
ATOM     35  H   UNL     1       3.524   7.070  17.774  0.00  0.00    +0.000 HD
ENDBRANCH  26  33
ENDBRANCH   7  23
TORSDOF 3
ENDMDL
MODEL 4
REMARK VINA RESULT:      -7.1      6.842      8.850
REMARK  Name = 
REMARK  7 active torsions:
REMARK  status: ('A' for Active; 'I' for Inactive)
REMARK    1  A    between atoms: C_1  and  C_2
REMARK    2  A    between atoms: C_7  and  C_8
REMARK    3  A    between atoms: C_11  and  N_12
REMARK    4  A    between atoms: C_14  and  C_15
REMARK    5  A    between atoms: C_23  and  C_24
REMARK    6  A    between atoms: C_26  and  C_27
REMARK    7  A    between atoms: C_31  and  C_32
REMARK                            x       y       z     vdW  Elec       q    Type
REMARK                         _______ _______ _______ _____ _____    ______ ____
ROOT
ATOM      1  C   UNL     1       8.683  12.721  17.407  0.00  0.00    +0.000 C 
ATOM      2  C   UNL     1      10.033  12.953  18.078  0.00  0.00    +0.000 C 
ATOM      3  C   UNL     1       9.952  13.916  19.276  0.00  0.00    +0.000 C 
ATOM      4  N   UNL     1       9.538  13.205  20.475  0.00  0.00    +0.000 N 
ATOM      5  C   UNL     1       8.350  13.477  21.102  0.00  0.00    +0.000 A 
ATOM      6  N   UNL     1       8.078  12.835  22.227  0.00  0.00    +0.000 NA
ATOM      7  C   UNL     1       6.996  13.232  22.875  0.00  0.00    +0.000 A 
ATOM      8  N   UNL     1       6.200  14.213  22.486  0.00  0.00    +0.000 NA
ATOM      9  C   UNL     1       6.461  14.723  21.292  0.00  0.00    +0.000 A 
ATOM     10  N   UNL     1       5.550  15.591  20.745  0.00  0.00    +0.000 N 
ATOM     11  C   UNL     1       5.766  16.201  19.441  0.00  0.00    +0.000 C 
ATOM     12  C   UNL     1       6.078  17.703  19.582  0.00  0.00    +0.000 C 
ATOM     13  C   UNL     1       7.542  17.983  19.898  0.00  0.00    +0.000 C 
ATOM     14  O   UNL     1       5.182  18.400  20.466  0.00  0.00    +0.000 OA
ATOM     15  C   UNL     1       4.863  17.752  21.713  0.00  0.00    +0.000 C 
ATOM     16  C   UNL     1       5.903  18.046  22.790  0.00  0.00    +0.000 C 
ATOM     17  C   UNL     1       4.546  16.251  21.569  0.00  0.00    +0.000 C 
ATOM     18  N   UNL     1       7.541  14.398  20.592  0.00  0.00    +0.000 NA
ATOM     19  C   UNL     1      10.334  12.039  20.813  0.00  0.00    +0.000 C 
ATOM     20  C   UNL     1      10.405  11.075  19.613  0.00  0.00    +0.000 C 
ATOM     21  C   UNL     1       9.180  10.173  19.502  0.00  0.00    +0.000 C 
ATOM     22  O   UNL     1      10.719  11.721  18.366  0.00  0.00    +0.000 OA
ENDROOT
BRANCH   7  23
ATOM     23  C   UNL     1       6.718  12.581  24.161  0.00  0.00    +0.000 A 
ATOM     24  C   UNL     1       5.816  11.510  24.187  0.00  0.00    +0.000 A 
ATOM     25  N   UNL     1       5.492  10.766  25.275  0.00  0.00    +0.000 NA
ATOM     26  C   UNL     1       6.086  11.087  26.425  0.00  0.00    +0.000 A 
ATOM     27  C   UNL     1       6.977  12.140  26.531  0.00  0.00    +0.000 A 
ATOM     28  C   UNL     1       7.287  12.927  25.397  0.00  0.00    +0.000 A 
BRANCH  28  29
ATOM     29  C   UNL     1       8.215  14.094  25.644  0.00  0.00    +0.000 C 
ATOM     30  F   UNL     1       9.245  14.268  24.782  0.00  0.00    +0.000 F 
ATOM     31  F   UNL     1       7.530  15.280  25.581  0.00  0.00    +0.000 F 
ATOM     32  F   UNL     1       8.758  14.066  26.895  0.00  0.00    +0.000 F 
ENDBRANCH  28  29
BRANCH  26  33
ATOM     33  N   UNL     1       5.808  10.281  27.520  0.00  0.00    +0.000 N 
ATOM     34  H   UNL     1       4.957  10.642  27.949  0.00  0.00    +0.000 HD
ATOM     35  H   UNL     1       6.577  10.243  28.179  0.00  0.00    +0.000 HD
ENDBRANCH  26  33
ENDBRANCH   7  23
TORSDOF 3
ENDMDL
MODEL 5
REMARK VINA RESULT:      -7.1      1.868      2.195
REMARK  Name = 
REMARK  7 active torsions:
REMARK  status: ('A' for Active; 'I' for Inactive)
REMARK    1  A    between atoms: C_1  and  C_2
REMARK    2  A    between atoms: C_7  and  C_8
REMARK    3  A    between atoms: C_11  and  N_12
REMARK    4  A    between atoms: C_14  and  C_15
REMARK    5  A    between atoms: C_23  and  C_24
REMARK    6  A    between atoms: C_26  and  C_27
REMARK    7  A    between atoms: C_31  and  C_32
REMARK                            x       y       z     vdW  Elec       q    Type
REMARK                         _______ _______ _______ _____ _____    ______ ____
ROOT
ATOM      1  C   UNL     1       1.469  17.074  19.161  0.00  0.00    +0.000 C 
ATOM      2  C   UNL     1       2.422  17.012  20.350  0.00  0.00    +0.000 C 
ATOM      3  C   UNL     1       1.899  16.128  21.496  0.00  0.00    +0.000 C 
ATOM      4  N   UNL     1       2.206  14.729  21.244  0.00  0.00    +0.000 N 
ATOM      5  C   UNL     1       1.221  13.799  21.043  0.00  0.00    +0.000 A 
ATOM      6  N   UNL     1       1.582  12.534  20.889  0.00  0.00    +0.000 NA
ATOM      7  C   UNL     1       0.598  11.651  20.846  0.00  0.00    +0.000 A 
ATOM      8  N   UNL     1      -0.686  11.945  20.960  0.00  0.00    +0.000 NA
ATOM      9  C   UNL     1      -0.978  13.237  20.983  0.00  0.00    +0.000 A 
ATOM     10  N   UNL     1      -2.296  13.604  20.886  0.00  0.00    +0.000 N 
ATOM     11  C   UNL     1      -2.702  15.003  20.913  0.00  0.00    +0.000 C 
ATOM     12  C   UNL     1      -3.419  15.342  22.234  0.00  0.00    +0.000 C 
ATOM     13  C   UNL     1      -2.458  15.652  23.375  0.00  0.00    +0.000 C 
ATOM     14  O   UNL     1      -4.425  14.384  22.609  0.00  0.00    +0.000 OA
ATOM     15  C   UNL     1      -4.081  12.991  22.474  0.00  0.00    +0.000 C 
ATOM     16  C   UNL     1      -3.346  12.465  23.703  0.00  0.00    +0.000 C 
ATOM     17  C   UNL     1      -3.368  12.653  21.150  0.00  0.00    +0.000 C 
ATOM     18  N   UNL     1      -0.050  14.182  21.056  0.00  0.00    +0.000 NA
ATOM     19  C   UNL     1       3.603  14.438  20.975  0.00  0.00    +0.000 C 
ATOM     20  C   UNL     1       4.119  15.319  19.822  0.00  0.00    +0.000 C 
ATOM     21  C   UNL     1       3.767  14.765  18.445  0.00  0.00    +0.000 C 
ATOM     22  O   UNL     1       3.773  16.711  19.952  0.00  0.00    +0.000 OA
ENDROOT
BRANCH   7  23
ATOM     23  C   UNL     1       0.980  10.238  20.748  0.00  0.00    +0.000 A 
ATOM     24  C   UNL     1       1.063   9.485  21.927  0.00  0.00    +0.000 A 
ATOM     25  N   UNL     1       1.346   8.160  22.010  0.00  0.00    +0.000 NA
ATOM     26  C   UNL     1       1.568   7.518  20.863  0.00  0.00    +0.000 A 
ATOM     27  C   UNL     1       1.539   8.156  19.636  0.00  0.00    +0.000 A 
ATOM     28  C   UNL     1       1.270   9.544  19.563  0.00  0.00    +0.000 A 
BRANCH  28  29
ATOM     29  C   UNL     1       1.335  10.151  18.180  0.00  0.00    +0.000 C 
ATOM     30  F   UNL     1       2.151  11.217  18.002  0.00  0.00    +0.000 F 
ATOM     31  F   UNL     1       1.790   9.233  17.269  0.00  0.00    +0.000 F 
ATOM     32  F   UNL     1       0.106  10.523  17.721  0.00  0.00    +0.000 F 
ENDBRANCH  28  29
BRANCH  26  33
ATOM     33  N   UNL     1       1.787   6.149  20.944  0.00  0.00    +0.000 N 
ATOM     34  H   UNL     1       2.533   6.005  21.621  0.00  0.00    +0.000 HD
ATOM     35  H   UNL     1       2.007   5.737  20.045  0.00  0.00    +0.000 HD
ENDBRANCH  26  33
ENDBRANCH   7  23
TORSDOF 3
ENDMDL
MODEL 6
REMARK VINA RESULT:      -7.1      2.279      5.732
REMARK  Name = 
REMARK  7 active torsions:
REMARK  status: ('A' for Active; 'I' for Inactive)
REMARK    1  A    between atoms: C_1  and  C_2
REMARK    2  A    between atoms: C_7  and  C_8
REMARK    3  A    between atoms: C_11  and  N_12
REMARK    4  A    between atoms: C_14  and  C_15
REMARK    5  A    between atoms: C_23  and  C_24
REMARK    6  A    between atoms: C_26  and  C_27
REMARK    7  A    between atoms: C_31  and  C_32
REMARK                            x       y       z     vdW  Elec       q    Type
REMARK                         _______ _______ _______ _____ _____    ______ ____
ROOT
ATOM      1  C   UNL     1      -3.868  15.640  24.543  0.00  0.00    +0.000 C 
ATOM      2  C   UNL     1      -4.737  15.313  23.334  0.00  0.00    +0.000 C 
ATOM      3  C   UNL     1      -3.931  15.187  22.029  0.00  0.00    +0.000 C 
ATOM      4  N   UNL     1      -3.355  13.857  21.909  0.00  0.00    +0.000 N 
ATOM      5  C   UNL     1      -2.001  13.654  21.916  0.00  0.00    +0.000 A 
ATOM      6  N   UNL     1      -1.555  12.421  21.733  0.00  0.00    +0.000 NA
ATOM      7  C   UNL     1      -0.245  12.291  21.600  0.00  0.00    +0.000 A 
ATOM      8  N   UNL     1       0.619  13.291  21.622  0.00  0.00    +0.000 NA
ATOM      9  C   UNL     1       0.117  14.475  21.935  0.00  0.00    +0.000 A 
ATOM     10  N   UNL     1       0.990  15.504  22.181  0.00  0.00    +0.000 N 
ATOM     11  C   UNL     1       0.519  16.839  22.523  0.00  0.00    +0.000 C 
ATOM     12  C   UNL     1       0.765  17.823  21.364  0.00  0.00    +0.000 C 
ATOM     13  C   UNL     1      -0.318  17.770  20.293  0.00  0.00    +0.000 C 
ATOM     14  O   UNL     1       2.090  17.743  20.808  0.00  0.00    +0.000 OA
ATOM     15  C   UNL     1       2.620  16.423  20.575  0.00  0.00    +0.000 C 
ATOM     16  C   UNL     1       2.189  15.868  19.221  0.00  0.00    +0.000 C 
ATOM     17  C   UNL     1       2.376  15.442  21.738  0.00  0.00    +0.000 C 
ATOM     18  N   UNL     1      -1.187  14.694  22.058  0.00  0.00    +0.000 NA
ATOM     19  C   UNL     1      -4.296  12.759  22.032  0.00  0.00    +0.000 C 
ATOM     20  C   UNL     1      -5.095  12.884  23.344  0.00  0.00    +0.000 C 
ATOM     21  C   UNL     1      -4.342  12.339  24.553  0.00  0.00    +0.000 C 
ATOM     22  O   UNL     1      -5.621  14.203  23.581  0.00  0.00    +0.000 OA
ENDROOT
BRANCH   7  23
ATOM     23  C   UNL     1       0.261  10.941  21.324  0.00  0.00    +0.000 A 
ATOM     24  C   UNL     1       0.770  10.187  22.389  0.00  0.00    +0.000 A 
ATOM     25  N   UNL     1       1.223   8.910  22.318  0.00  0.00    +0.000 NA
ATOM     26  C   UNL     1       1.180   8.320  21.123  0.00  0.00    +0.000 A 
ATOM     27  C   UNL     1       0.722   8.969  19.990  0.00  0.00    +0.000 A 
ATOM     28  C   UNL     1       0.278  10.310  20.070  0.00  0.00    +0.000 A 
BRANCH  28  29
ATOM     29  C   UNL     1      -0.133  10.942  18.760  0.00  0.00    +0.000 C 
ATOM     30  F   UNL     1       0.491  12.087  18.394  0.00  0.00    +0.000 F 
ATOM     31  F   UNL     1       0.107  10.088  17.714  0.00  0.00    +0.000 F 
ATOM     32  F   UNL     1      -1.472  11.198  18.707  0.00  0.00    +0.000 F 
ENDBRANCH  28  29
BRANCH  26  33
ATOM     33  N   UNL     1       1.577   6.991  21.066  0.00  0.00    +0.000 N 
ATOM     34  H   UNL     1       1.868   6.806  20.108  0.00  0.00    +0.000 HD
ATOM     35  H   UNL     1       0.849   6.355  21.370  0.00  0.00    +0.000 HD
ENDBRANCH  26  33
ENDBRANCH   7  23
TORSDOF 3
ENDMDL
MODEL 7
REMARK VINA RESULT:      -7.1      2.727      3.477
REMARK  Name = 
REMARK  7 active torsions:
REMARK  status: ('A' for Active; 'I' for Inactive)
REMARK    1  A    between atoms: C_1  and  C_2
REMARK    2  A    between atoms: C_7  and  C_8
REMARK    3  A    between atoms: C_11  and  N_12
REMARK    4  A    between atoms: C_14  and  C_15
REMARK    5  A    between atoms: C_23  and  C_24
REMARK    6  A    between atoms: C_26  and  C_27
REMARK    7  A    between atoms: C_31  and  C_32
REMARK                            x       y       z     vdW  Elec       q    Type
REMARK                         _______ _______ _______ _____ _____    ______ ____
ROOT
ATOM      1  C   UNL     1      -2.324  18.193  19.087  0.00  0.00    +0.000 C 
ATOM      2  C   UNL     1      -1.335  18.478  20.212  0.00  0.00    +0.000 C 
ATOM      3  C   UNL     1      -1.522  17.551  21.426  0.00  0.00    +0.000 C 
ATOM      4  N   UNL     1      -0.836  16.286  21.213  0.00  0.00    +0.000 N 
ATOM      5  C   UNL     1      -1.518  15.102  21.117  0.00  0.00    +0.000 A 
ATOM      6  N   UNL     1      -0.815  13.987  20.993  0.00  0.00    +0.000 NA
ATOM      7  C   UNL     1      -1.503  12.858  21.051  0.00  0.00    +0.000 A 
ATOM      8  N   UNL     1      -2.809  12.778  21.236  0.00  0.00    +0.000 NA
ATOM      9  C   UNL     1      -3.461  13.931  21.225  0.00  0.00    +0.000 A 
ATOM     10  N   UNL     1      -4.832  13.899  21.198  0.00  0.00    +0.000 N 
ATOM     11  C   UNL     1      -5.623  15.122  21.193  0.00  0.00    +0.000 C 
ATOM     12  C   UNL     1      -6.341  15.318  22.542  0.00  0.00    +0.000 C 
ATOM     13  C   UNL     1      -5.454  15.958  23.604  0.00  0.00    +0.000 C 
ATOM     14  O   UNL     1      -7.006  14.137  23.022  0.00  0.00    +0.000 OA
ATOM     15  C   UNL     1      -6.281  12.895  22.924  0.00  0.00    +0.000 C 
ATOM     16  C   UNL     1      -5.364  12.675  24.123  0.00  0.00    +0.000 C 
ATOM     17  C   UNL     1      -5.568  12.698  21.571  0.00  0.00    +0.000 C 
ATOM     18  N   UNL     1      -2.844  15.106  21.197  0.00  0.00    +0.000 NA
ATOM     19  C   UNL     1       0.570  16.392  20.867  0.00  0.00    +0.000 C 
ATOM     20  C   UNL     1       0.750  17.314  19.646  0.00  0.00    +0.000 C 
ATOM     21  C   UNL     1       0.505  16.602  18.320  0.00  0.00    +0.000 C 
ATOM     22  O   UNL     1       0.023  18.553  19.740  0.00  0.00    +0.000 OA
ENDROOT
BRANCH   7  23
ATOM     23  C   UNL     1      -0.733  11.610  20.989  0.00  0.00    +0.000 A 
ATOM     24  C   UNL     1      -0.011  11.213  22.122  0.00  0.00    +0.000 A 
ATOM     25  N   UNL     1       0.703  10.066  22.252  0.00  0.00    +0.000 NA
ATOM     26  C   UNL     1       0.720   9.244  21.202  0.00  0.00    +0.000 A 
ATOM     27  C   UNL     1       0.068   9.537  20.018  0.00  0.00    +0.000 A 
ATOM     28  C   UNL     1      -0.651  10.749  19.883  0.00  0.00    +0.000 A 
BRANCH  28  29
ATOM     29  C   UNL     1      -1.264  10.998  18.524  0.00  0.00    +0.000 C 
ATOM     30  F   UNL     1      -2.615  11.064  18.450  0.00  0.00    +0.000 F 
ATOM     31  F   UNL     1      -0.848  12.202  18.019  0.00  0.00    +0.000 F 
ATOM     32  F   UNL     1      -0.870  10.073  17.603  0.00  0.00    +0.000 F 
ENDBRANCH  28  29
BRANCH  26  33
ATOM     33  N   UNL     1       1.392   8.039  21.361  0.00  0.00    +0.000 N 
ATOM     34  H   UNL     1       0.693   7.299  21.323  0.00  0.00    +0.000 HD
ATOM     35  H   UNL     1       1.931   8.006  22.219  0.00  0.00    +0.000 HD
ENDBRANCH  26  33
ENDBRANCH   7  23
TORSDOF 3
ENDMDL
MODEL 8
REMARK VINA RESULT:      -7.1      3.895      6.310
REMARK  Name = 
REMARK  7 active torsions:
REMARK  status: ('A' for Active; 'I' for Inactive)
REMARK    1  A    between atoms: C_1  and  C_2
REMARK    2  A    between atoms: C_7  and  C_8
REMARK    3  A    between atoms: C_11  and  N_12
REMARK    4  A    between atoms: C_14  and  C_15
REMARK    5  A    between atoms: C_23  and  C_24
REMARK    6  A    between atoms: C_26  and  C_27
REMARK    7  A    between atoms: C_31  and  C_32
REMARK                            x       y       z     vdW  Elec       q    Type
REMARK                         _______ _______ _______ _____ _____    ______ ____
ROOT
ATOM      1  C   UNL     1      -7.917  13.737  21.698  0.00  0.00    +0.000 C 
ATOM      2  C   UNL     1      -7.460  14.100  20.289  0.00  0.00    +0.000 C 
ATOM      3  C   UNL     1      -6.055  14.727  20.254  0.00  0.00    +0.000 C 
ATOM      4  N   UNL     1      -5.034  13.691  20.261  0.00  0.00    +0.000 N 
ATOM      5  C   UNL     1      -4.156  13.551  21.304  0.00  0.00    +0.000 A 
ATOM      6  N   UNL     1      -3.212  12.629  21.203  0.00  0.00    +0.000 NA
ATOM      7  C   UNL     1      -2.300  12.625  22.161  0.00  0.00    +0.000 A 
ATOM      8  N   UNL     1      -2.266  13.472  23.176  0.00  0.00    +0.000 NA
ATOM      9  C   UNL     1      -3.309  14.281  23.281  0.00  0.00    +0.000 A 
ATOM     10  N   UNL     1      -3.434  15.031  24.423  0.00  0.00    +0.000 N 
ATOM     11  C   UNL     1      -4.547  15.951  24.613  0.00  0.00    +0.000 C 
ATOM     12  C   UNL     1      -4.070  17.413  24.530  0.00  0.00    +0.000 C 
ATOM     13  C   UNL     1      -3.957  17.926  23.099  0.00  0.00    +0.000 C 
ATOM     14  O   UNL     1      -2.888  17.682  25.304  0.00  0.00    +0.000 OA
ATOM     15  C   UNL     1      -1.821  16.717  25.221  0.00  0.00    +0.000 C 
ATOM     16  C   UNL     1      -0.908  16.979  24.027  0.00  0.00    +0.000 C 
ATOM     17  C   UNL     1      -2.299  15.254  25.308  0.00  0.00    +0.000 C 
ATOM     18  N   UNL     1      -4.251  14.365  22.349  0.00  0.00    +0.000 NA
ATOM     19  C   UNL     1      -5.164  12.681  19.228  0.00  0.00    +0.000 C 
ATOM     20  C   UNL     1      -6.570  12.051  19.272  0.00  0.00    +0.000 C 
ATOM     21  C   UNL     1      -6.697  10.953  20.324  0.00  0.00    +0.000 C 
ATOM     22  O   UNL     1      -7.637  13.014  19.360  0.00  0.00    +0.000 OA
ENDROOT
BRANCH   7  23
ATOM     23  C   UNL     1      -1.204  11.657  22.028  0.00  0.00    +0.000 A 
ATOM     24  C   UNL     1      -0.900  10.836  23.122  0.00  0.00    +0.000 A 
ATOM     25  N   UNL     1       0.038   9.857  23.148  0.00  0.00    +0.000 NA
ATOM     26  C   UNL     1       0.737   9.660  22.029  0.00  0.00    +0.000 A 
ATOM     27  C   UNL     1       0.546  10.423  20.891  0.00  0.00    +0.000 A 
ATOM     28  C   UNL     1      -0.416  11.460  20.883  0.00  0.00    +0.000 A 
BRANCH  28  29
ATOM     29  C   UNL     1      -0.489  12.274  19.611  0.00  0.00    +0.000 C 
ATOM     30  F   UNL     1      -0.537  13.622  19.734  0.00  0.00    +0.000 F 
ATOM     31  F   UNL     1       0.616  12.054  18.831  0.00  0.00    +0.000 F 
ATOM     32  F   UNL     1      -1.550  11.919  18.831  0.00  0.00    +0.000 F 
ENDBRANCH  28  29
BRANCH  26  33
ATOM     33  N   UNL     1       1.646   8.611  22.035  0.00  0.00    +0.000 N 
ATOM     34  H   UNL     1       1.891   8.432  23.008  0.00  0.00    +0.000 HD
ATOM     35  H   UNL     1       2.464   8.803  21.468  0.00  0.00    +0.000 HD
ENDBRANCH  26  33
ENDBRANCH   7  23
TORSDOF 3
ENDMDL
MODEL 9
REMARK VINA RESULT:      -7.0      3.297      6.147
REMARK  Name = 
REMARK  7 active torsions:
REMARK  status: ('A' for Active; 'I' for Inactive)
REMARK    1  A    between atoms: C_1  and  C_2
REMARK    2  A    between atoms: C_7  and  C_8
REMARK    3  A    between atoms: C_11  and  N_12
REMARK    4  A    between atoms: C_14  and  C_15
REMARK    5  A    between atoms: C_23  and  C_24
REMARK    6  A    between atoms: C_26  and  C_27
REMARK    7  A    between atoms: C_31  and  C_32
REMARK                            x       y       z     vdW  Elec       q    Type
REMARK                         _______ _______ _______ _____ _____    ______ ____
ROOT
ATOM      1  C   UNL     1      -7.580  12.107  21.286  0.00  0.00    +0.000 C 
ATOM      2  C   UNL     1      -7.557  12.885  19.975  0.00  0.00    +0.000 C 
ATOM      3  C   UNL     1      -6.332  13.809  19.845  0.00  0.00    +0.000 C 
ATOM      4  N   UNL     1      -5.179  13.064  19.364  0.00  0.00    +0.000 N 
ATOM      5  C   UNL     1      -4.060  12.889  20.134  0.00  0.00    +0.000 A 
ATOM      6  N   UNL     1      -3.028  12.258  19.597  0.00  0.00    +0.000 NA
ATOM      7  C   UNL     1      -1.920  12.239  20.319  0.00  0.00    +0.000 A 
ATOM      8  N   UNL     1      -1.780  12.810  21.504  0.00  0.00    +0.000 NA
ATOM      9  C   UNL     1      -2.887  13.310  22.032  0.00  0.00    +0.000 A 
ATOM     10  N   UNL     1      -2.851  13.721  23.340  0.00  0.00    +0.000 N 
ATOM     11  C   UNL     1      -4.022  14.290  23.993  0.00  0.00    +0.000 C 
ATOM     12  C   UNL     1      -3.837  15.800  24.234  0.00  0.00    +0.000 C 
ATOM     13  C   UNL     1      -4.172  16.646  23.011  0.00  0.00    +0.000 C 
ATOM     14  O   UNL     1      -2.564  16.144  24.807  0.00  0.00    +0.000 OA
ATOM     15  C   UNL     1      -1.403  15.497  24.251  0.00  0.00    +0.000 C 
ATOM     16  C   UNL     1      -0.873  16.235  23.025  0.00  0.00    +0.000 C 
ATOM     17  C   UNL     1      -1.587  13.985  24.015  0.00  0.00    +0.000 C 
ATOM     18  N   UNL     1      -4.030  13.391  21.363  0.00  0.00    +0.000 NA
ATOM     19  C   UNL     1      -5.388  12.322  18.134  0.00  0.00    +0.000 C 
ATOM     20  C   UNL     1      -6.610  11.393  18.272  0.00  0.00    +0.000 C 
ATOM     21  C   UNL     1      -6.283  10.080  18.976  0.00  0.00    +0.000 C 
ATOM     22  O   UNL     1      -7.770  12.037  18.832  0.00  0.00    +0.000 OA
ENDROOT
BRANCH   7  23
ATOM     23  C   UNL     1      -0.743  11.609  19.710  0.00  0.00    +0.000 A 
ATOM     24  C   UNL     1      -0.637  10.212  19.748  0.00  0.00    +0.000 A 
ATOM     25  N   UNL     1       0.350   9.470  19.187  0.00  0.00    +0.000 NA
ATOM     26  C   UNL     1       1.310  10.134  18.541  0.00  0.00    +0.000 A 
ATOM     27  C   UNL     1       1.330  11.514  18.455  0.00  0.00    +0.000 A 
ATOM     28  C   UNL     1       0.310  12.280  19.067  0.00  0.00    +0.000 A 
BRANCH  28  29
ATOM     29  C   UNL     1       0.471  13.780  18.972  0.00  0.00    +0.000 C 
ATOM     30  F   UNL     1       0.573  14.474  20.130  0.00  0.00    +0.000 F 
ATOM     31  F   UNL     1       1.617  14.102  18.293  0.00  0.00    +0.000 F 
ATOM     32  F   UNL     1      -0.536  14.363  18.260  0.00  0.00    +0.000 F 
ENDBRANCH  28  29
BRANCH  26  33
ATOM     33  N   UNL     1       2.281   9.370  17.906  0.00  0.00    +0.000 N 
ATOM     34  H   UNL     1       1.884   8.444  17.757  0.00  0.00    +0.000 HD
ATOM     35  H   UNL     1       3.147   9.331  18.431  0.00  0.00    +0.000 HD
ENDBRANCH  26  33
ENDBRANCH   7  23
TORSDOF 3
ENDMDL
