MODEL 1
REMARK VINA RESULT:      -8.0      0.000      0.000
REMARK  Name = 
REMARK  7 active torsions:
REMARK  status: ('A' for Active; 'I' for Inactive)
REMARK    1  A    between atoms: C_1  and  C_2
REMARK    2  A    between atoms: C_2  and  C_3
REMARK    3  A    between atoms: C_2  and  C_4
REMARK    4  A    between atoms: C_2  and  C_5
REMARK    5  A    between atoms: C_5  and  O_6
REMARK    6  A    between atoms: O_6  and  C_7
REMARK    7  A    between atoms: C_21  and  C_22
REMARK                            x       y       z     vdW  Elec       q    Type
REMARK                         _______ _______ _______ _____ _____    ______ ____
ROOT
ATOM      1  C   UNL     1       1.262   8.821  20.179  0.00  0.00    +0.000 A 
ATOM      2  C   UNL     1       1.220   8.469  21.526  0.00  0.00    +0.000 A 
ATOM      3  C   UNL     1       0.387   9.163  22.409  0.00  0.00    +0.000 A 
ATOM      4  C   UNL     1      -0.405  10.220  21.950  0.00  0.00    +0.000 A 
ATOM      5  C   UNL     1      -0.380  10.578  20.603  0.00  0.00    +0.000 A 
ATOM      6  C   UNL     1       0.451   9.860  19.728  0.00  0.00    +0.000 A 
ATOM      7  C   UNL     1      -1.225  11.720  20.080  0.00  0.00    +0.000 C 
ATOM      8  C   UNL     1      -0.337  12.812  19.438  0.00  0.00    +0.000 C 
ATOM      9  O   UNL     1      -0.767  12.894  18.078  0.00  0.00    +0.000 OA
ATOM     10  C   UNL     1      -1.740  11.971  17.951  0.00  0.00    +0.000 C 
ATOM     11  N   UNL     1      -2.262  11.905  16.713  0.00  0.00    +0.000 N 
ATOM     12  N   UNL     1      -2.072  11.241  18.954  0.00  0.00    +0.000 NA
ATOM     13  C   UNL     1      -2.108  12.305  21.163  0.00  0.00    +0.000 A 
ATOM     14  C   UNL     1      -3.035  13.319  20.852  0.00  0.00    +0.000 A 
ATOM     15  C   UNL     1      -3.887  13.884  21.813  0.00  0.00    +0.000 A 
ATOM     16  C   UNL     1      -3.757  13.421  23.131  0.00  0.00    +0.000 A 
ATOM     17  C   UNL     1      -2.843  12.413  23.460  0.00  0.00    +0.000 A 
ATOM     18  C   UNL     1      -2.027  11.851  22.476  0.00  0.00    +0.000 A 
ATOM     19  O   UNL     1      -1.175  10.858  22.890  0.00  0.00    +0.000 OA
ATOM     20  H   UNL     1      -1.660  12.242  15.974  0.00  0.00    +0.000 HD
ATOM     21  H   UNL     1      -2.742  11.036  16.518  0.00  0.00    +0.000 HD
ENDROOT
BRANCH  15  22
ATOM     22  C   UNL     1      -4.871  14.917  21.439  0.00  0.00    +0.000 A 
ATOM     23  C   UNL     1      -5.270  15.922  22.324  0.00  0.00    +0.000 A 
ATOM     24  C   UNL     1      -6.237  16.842  21.930  0.00  0.00    +0.000 A 
ATOM     25  C   UNL     1      -6.778  16.747  20.657  0.00  0.00    +0.000 A 
ATOM     26  C   UNL     1      -6.321  15.737  19.829  0.00  0.00    +0.000 A 
ATOM     27  N   UNL     1      -5.386  14.829  20.187  0.00  0.00    +0.000 NA
ENDBRANCH  15  22
BRANCH   1  28
ATOM     28  O   UNL     1       2.119   8.100  19.389  0.00  0.00    +0.000 OA
BRANCH  28  29
ATOM     29  C   UNL     1       2.305   6.732  19.767  0.00  0.00    +0.000 C 
BRANCH  29  31
ATOM     30  C   UNL     1       3.688   6.954  17.677  0.00  0.00    +0.000 C 
ATOM     31  C   UNL     1       3.102   5.965  18.696  0.00  0.00    +0.000 C 
ATOM     32  C   UNL     1       2.188   4.964  17.972  0.00  0.00    +0.000 C 
ATOM     33  C   UNL     1       4.245   5.204  19.388  0.00  0.00    +0.000 C 
ENDBRANCH  29  31
ENDBRANCH  28  29
ENDBRANCH   1  28
TORSDOF 4
ENDMDL
MODEL 2
REMARK VINA RESULT:      -8.0      0.520      1.165
REMARK  Name = 
REMARK  7 active torsions:
REMARK  status: ('A' for Active; 'I' for Inactive)
REMARK    1  A    between atoms: C_1  and  C_2
REMARK    2  A    between atoms: C_2  and  C_3
REMARK    3  A    between atoms: C_2  and  C_4
REMARK    4  A    between atoms: C_2  and  C_5
REMARK    5  A    between atoms: C_5  and  O_6
REMARK    6  A    between atoms: O_6  and  C_7
REMARK    7  A    between atoms: C_21  and  C_22
REMARK                            x       y       z     vdW  Elec       q    Type
REMARK                         _______ _______ _______ _____ _____    ______ ____
ROOT
ATOM      1  C   UNL     1       1.274   8.847  20.265  0.00  0.00    +0.000 A 
ATOM      2  C   UNL     1       1.208   8.508  21.615  0.00  0.00    +0.000 A 
ATOM      3  C   UNL     1       0.364   9.215  22.477  0.00  0.00    +0.000 A 
ATOM      4  C   UNL     1      -0.414  10.272  21.995  0.00  0.00    +0.000 A 
ATOM      5  C   UNL     1      -0.366  10.616  20.646  0.00  0.00    +0.000 A 
ATOM      6  C   UNL     1       0.477   9.885  19.791  0.00  0.00    +0.000 A 
ATOM      7  C   UNL     1      -1.195  11.758  20.097  0.00  0.00    +0.000 C 
ATOM      8  C   UNL     1      -0.291  12.838  19.460  0.00  0.00    +0.000 C 
ATOM      9  O   UNL     1      -0.698  12.910  18.092  0.00  0.00    +0.000 OA
ATOM     10  C   UNL     1      -1.674  11.991  17.958  0.00  0.00    +0.000 C 
ATOM     11  N   UNL     1      -2.176  11.915  16.712  0.00  0.00    +0.000 N 
ATOM     12  N   UNL     1      -2.026  11.272  18.962  0.00  0.00    +0.000 NA
ATOM     13  C   UNL     1      -2.093  12.357  21.159  0.00  0.00    +0.000 A 
ATOM     14  C   UNL     1      -3.009  13.373  20.824  0.00  0.00    +0.000 A 
ATOM     15  C   UNL     1      -3.874  13.952  21.765  0.00  0.00    +0.000 A 
ATOM     16  C   UNL     1      -3.769  13.501  23.089  0.00  0.00    +0.000 A 
ATOM     17  C   UNL     1      -2.865  12.492  23.443  0.00  0.00    +0.000 A 
ATOM     18  C   UNL     1      -2.036  11.916  22.478  0.00  0.00    +0.000 A 
ATOM     19  O   UNL     1      -1.197  10.923  22.916  0.00  0.00    +0.000 OA
ATOM     20  H   UNL     1      -1.559  12.241  15.980  0.00  0.00    +0.000 HD
ATOM     21  H   UNL     1      -2.656  11.046  16.518  0.00  0.00    +0.000 HD
ENDROOT
BRANCH  15  22
ATOM     22  C   UNL     1      -4.846  14.987  21.364  0.00  0.00    +0.000 A 
ATOM     23  C   UNL     1      -5.717  14.813  20.284  0.00  0.00    +0.000 A 
ATOM     24  C   UNL     1      -6.580  15.844  19.925  0.00  0.00    +0.000 A 
ATOM     25  C   UNL     1      -6.565  17.021  20.655  0.00  0.00    +0.000 A 
ATOM     26  C   UNL     1      -5.689  17.115  21.723  0.00  0.00    +0.000 A 
ATOM     27  N   UNL     1      -4.838  16.131  22.092  0.00  0.00    +0.000 NA
ENDBRANCH  15  22
BRANCH   1  28
ATOM     28  O   UNL     1       2.140   8.114  19.498  0.00  0.00    +0.000 OA
BRANCH  28  29
ATOM     29  C   UNL     1       2.222   6.720  19.817  0.00  0.00    +0.000 C 
BRANCH  29  31
ATOM     30  C   UNL     1       2.182   4.901  18.079  0.00  0.00    +0.000 C 
ATOM     31  C   UNL     1       3.055   5.961  18.767  0.00  0.00    +0.000 C 
ATOM     32  C   UNL     1       4.258   5.280  19.438  0.00  0.00    +0.000 C 
ATOM     33  C   UNL     1       3.558   6.968  17.720  0.00  0.00    +0.000 C 
ENDBRANCH  29  31
ENDBRANCH  28  29
ENDBRANCH   1  28
TORSDOF 4
ENDMDL
MODEL 3
REMARK VINA RESULT:      -7.9      0.929      1.315
REMARK  Name = 
REMARK  7 active torsions:
REMARK  status: ('A' for Active; 'I' for Inactive)
REMARK    1  A    between atoms: C_1  and  C_2
REMARK    2  A    between atoms: C_2  and  C_3
REMARK    3  A    between atoms: C_2  and  C_4
REMARK    4  A    between atoms: C_2  and  C_5
REMARK    5  A    between atoms: C_5  and  O_6
REMARK    6  A    between atoms: O_6  and  C_7
REMARK    7  A    between atoms: C_21  and  C_22
REMARK                            x       y       z     vdW  Elec       q    Type
REMARK                         _______ _______ _______ _____ _____    ______ ____
ROOT
ATOM      1  C   UNL     1       1.702   8.444  19.208  0.00  0.00    +0.000 A 
ATOM      2  C   UNL     1       1.842   7.936  20.497  0.00  0.00    +0.000 A 
ATOM      3  C   UNL     1       1.143   8.515  21.561  0.00  0.00    +0.000 A 
ATOM      4  C   UNL     1       0.302   9.611  21.342  0.00  0.00    +0.000 A 
ATOM      5  C   UNL     1       0.145  10.124  20.056  0.00  0.00    +0.000 A 
ATOM      6  C   UNL     1       0.844   9.521  18.996  0.00  0.00    +0.000 A 
ATOM      7  C   UNL     1      -0.755  11.312  19.790  0.00  0.00    +0.000 C 
ATOM      8  C   UNL     1       0.044  12.479  19.165  0.00  0.00    +0.000 C 
ATOM      9  O   UNL     1      -0.567  12.716  17.895  0.00  0.00    +0.000 OA
ATOM     10  C   UNL     1      -1.555  11.805  17.795  0.00  0.00    +0.000 C 
ATOM     11  N   UNL     1      -2.242  11.879  16.641  0.00  0.00    +0.000 N 
ATOM     12  N   UNL     1      -1.751  10.959  18.742  0.00  0.00    +0.000 NA
ATOM     13  C   UNL     1      -1.479  11.757  21.044  0.00  0.00    +0.000 A 
ATOM     14  C   UNL     1      -2.432  12.792  20.984  0.00  0.00    +0.000 A 
ATOM     15  C   UNL     1      -3.141  13.233  22.111  0.00  0.00    +0.000 A 
ATOM     16  C   UNL     1      -2.836  12.620  23.336  0.00  0.00    +0.000 A 
ATOM     17  C   UNL     1      -1.891  11.589  23.417  0.00  0.00    +0.000 A 
ATOM     18  C   UNL     1      -1.222  11.153  22.271  0.00  0.00    +0.000 A 
ATOM     19  O   UNL     1      -0.328  10.127  22.446  0.00  0.00    +0.000 OA
ATOM     20  H   UNL     1      -1.744  12.306  15.872  0.00  0.00    +0.000 HD
ATOM     21  H   UNL     1      -2.749  11.034  16.413  0.00  0.00    +0.000 HD
ENDROOT
BRANCH  15  22
ATOM     22  C   UNL     1      -4.160  14.293  21.998  0.00  0.00    +0.000 A 
ATOM     23  C   UNL     1      -4.926  14.711  23.091  0.00  0.00    +0.000 A 
ATOM     24  C   UNL     1      -5.904  15.683  22.912  0.00  0.00    +0.000 A 
ATOM     25  C   UNL     1      -6.092  16.228  21.651  0.00  0.00    +0.000 A 
ATOM     26  C   UNL     1      -5.285  15.778  20.621  0.00  0.00    +0.000 A 
ATOM     27  N   UNL     1      -4.329  14.833  20.766  0.00  0.00    +0.000 NA
ENDBRANCH  15  22
BRANCH   1  28
ATOM     28  O   UNL     1       2.438   7.829  18.230  0.00  0.00    +0.000 OA
BRANCH  28  29
ATOM     29  C   UNL     1       2.399   6.397  18.235  0.00  0.00    +0.000 C 
BRANCH  29  31
ATOM     30  C   UNL     1       3.701   4.511  17.196  0.00  0.00    +0.000 C 
ATOM     31  C   UNL     1       3.804   5.805  18.018  0.00  0.00    +0.000 C 
ATOM     32  C   UNL     1       4.466   5.503  19.371  0.00  0.00    +0.000 C 
ATOM     33  C   UNL     1       4.654   6.832  17.252  0.00  0.00    +0.000 C 
ENDBRANCH  29  31
ENDBRANCH  28  29
ENDBRANCH   1  28
TORSDOF 4
ENDMDL
MODEL 4
REMARK VINA RESULT:      -7.8      1.093      1.574
REMARK  Name = 
REMARK  7 active torsions:
REMARK  status: ('A' for Active; 'I' for Inactive)
REMARK    1  A    between atoms: C_1  and  C_2
REMARK    2  A    between atoms: C_2  and  C_3
REMARK    3  A    between atoms: C_2  and  C_4
REMARK    4  A    between atoms: C_2  and  C_5
REMARK    5  A    between atoms: C_5  and  O_6
REMARK    6  A    between atoms: O_6  and  C_7
REMARK    7  A    between atoms: C_21  and  C_22
REMARK                            x       y       z     vdW  Elec       q    Type
REMARK                         _______ _______ _______ _____ _____    ______ ____
ROOT
ATOM      1  C   UNL     1       1.744   8.428  19.081  0.00  0.00    +0.000 A 
ATOM      2  C   UNL     1       1.914   7.931  20.372  0.00  0.00    +0.000 A 
ATOM      3  C   UNL     1       1.239   8.518  21.446  0.00  0.00    +0.000 A 
ATOM      4  C   UNL     1       0.394   9.613  21.237  0.00  0.00    +0.000 A 
ATOM      5  C   UNL     1       0.207  10.115  19.951  0.00  0.00    +0.000 A 
ATOM      6  C   UNL     1       0.882   9.503  18.881  0.00  0.00    +0.000 A 
ATOM      7  C   UNL     1      -0.699  11.301  19.696  0.00  0.00    +0.000 C 
ATOM      8  C   UNL     1       0.086  12.463  19.043  0.00  0.00    +0.000 C 
ATOM      9  O   UNL     1      -0.554  12.689  17.786  0.00  0.00    +0.000 OA
ATOM     10  C   UNL     1      -1.544  11.778  17.716  0.00  0.00    +0.000 C 
ATOM     11  N   UNL     1      -2.258  11.843  16.577  0.00  0.00    +0.000 N 
ATOM     12  N   UNL     1      -1.719  10.940  18.674  0.00  0.00    +0.000 NA
ATOM     13  C   UNL     1      -1.394  11.757  20.962  0.00  0.00    +0.000 A 
ATOM     14  C   UNL     1      -2.348  12.791  20.915  0.00  0.00    +0.000 A 
ATOM     15  C   UNL     1      -3.031  13.242  22.055  0.00  0.00    +0.000 A 
ATOM     16  C   UNL     1      -2.698  12.639  23.277  0.00  0.00    +0.000 A 
ATOM     17  C   UNL     1      -1.752  11.609  23.345  0.00  0.00    +0.000 A 
ATOM     18  C   UNL     1      -1.109  11.163  22.188  0.00  0.00    +0.000 A 
ATOM     19  O   UNL     1      -0.211  10.138  22.351  0.00  0.00    +0.000 OA
ATOM     20  H   UNL     1      -1.777  12.262  15.793  0.00  0.00    +0.000 HD
ATOM     21  H   UNL     1      -2.770  10.995  16.368  0.00  0.00    +0.000 HD
ENDROOT
BRANCH  15  22
ATOM     22  C   UNL     1      -4.052  14.302  21.956  0.00  0.00    +0.000 A 
ATOM     23  C   UNL     1      -4.037  15.259  20.938  0.00  0.00    +0.000 A 
ATOM     24  C   UNL     1      -5.000  16.263  20.924  0.00  0.00    +0.000 A 
ATOM     25  C   UNL     1      -5.965  16.285  21.919  0.00  0.00    +0.000 A 
ATOM     26  C   UNL     1      -5.928  15.294  22.884  0.00  0.00    +0.000 A 
ATOM     27  N   UNL     1      -5.003  14.310  22.924  0.00  0.00    +0.000 NA
ENDBRANCH  15  22
BRANCH   1  28
ATOM     28  O   UNL     1       2.457   7.804  18.092  0.00  0.00    +0.000 OA
BRANCH  28  29
ATOM     29  C   UNL     1       2.474   6.373  18.149  0.00  0.00    +0.000 C 
BRANCH  29  31
ATOM     30  C   UNL     1       4.473   5.473  19.384  0.00  0.00    +0.000 C 
ATOM     31  C   UNL     1       3.907   5.830  18.001  0.00  0.00    +0.000 C 
ATOM     32  C   UNL     1       4.806   6.883  17.334  0.00  0.00    +0.000 C 
ATOM     33  C   UNL     1       3.863   4.568  17.125  0.00  0.00    +0.000 C 
ENDBRANCH  29  31
ENDBRANCH  28  29
ENDBRANCH   1  28
TORSDOF 4
ENDMDL
MODEL 5
REMARK VINA RESULT:      -7.8      2.754      9.308
REMARK  Name = 
REMARK  7 active torsions:
REMARK  status: ('A' for Active; 'I' for Inactive)
REMARK    1  A    between atoms: C_1  and  C_2
REMARK    2  A    between atoms: C_2  and  C_3
REMARK    3  A    between atoms: C_2  and  C_4
REMARK    4  A    between atoms: C_2  and  C_5
REMARK    5  A    between atoms: C_5  and  O_6
REMARK    6  A    between atoms: O_6  and  C_7
REMARK    7  A    between atoms: C_21  and  C_22
REMARK                            x       y       z     vdW  Elec       q    Type
REMARK                         _______ _______ _______ _____ _____    ______ ____
ROOT
ATOM      1  C   UNL     1      -0.995  11.759  22.109  0.00  0.00    +0.000 A 
ATOM      2  C   UNL     1      -1.156  10.846  23.149  0.00  0.00    +0.000 A 
ATOM      3  C   UNL     1      -0.623   9.558  23.043  0.00  0.00    +0.000 A 
ATOM      4  C   UNL     1       0.070   9.171  21.892  0.00  0.00    +0.000 A 
ATOM      5  C   UNL     1       0.247  10.077  20.847  0.00  0.00    +0.000 A 
ATOM      6  C   UNL     1      -0.283  11.371  20.976  0.00  0.00    +0.000 A 
ATOM      7  C   UNL     1       0.989   9.684  19.587  0.00  0.00    +0.000 C 
ATOM      8  C   UNL     1       0.082   9.837  18.344  0.00  0.00    +0.000 C 
ATOM      9  O   UNL     1       0.745  10.789  17.510  0.00  0.00    +0.000 OA
ATOM     10  C   UNL     1       1.855  11.149  18.184  0.00  0.00    +0.000 C 
ATOM     11  N   UNL     1       2.606  12.059  17.539  0.00  0.00    +0.000 N 
ATOM     12  N   UNL     1       2.098  10.646  19.341  0.00  0.00    +0.000 NA
ATOM     13  C   UNL     1       1.551   8.281  19.683  0.00  0.00    +0.000 A 
ATOM     14  C   UNL     1       2.352   7.765  18.646  0.00  0.00    +0.000 A 
ATOM     15  C   UNL     1       2.909   6.478  18.690  0.00  0.00    +0.000 A 
ATOM     16  C   UNL     1       2.604   5.690  19.810  0.00  0.00    +0.000 A 
ATOM     17  C   UNL     1       1.810   6.185  20.852  0.00  0.00    +0.000 A 
ATOM     18  C   UNL     1       1.292   7.480  20.791  0.00  0.00    +0.000 A 
ATOM     19  O   UNL     1       0.540   7.883  21.866  0.00  0.00    +0.000 OA
ATOM     20  H   UNL     1       2.111  12.624  16.863  0.00  0.00    +0.000 HD
ATOM     21  H   UNL     1       3.242  12.565  18.143  0.00  0.00    +0.000 HD
ENDROOT
BRANCH  15  22
ATOM     22  C   UNL     1       3.775   5.990  17.601  0.00  0.00    +0.000 A 
ATOM     23  C   UNL     1       3.941   4.628  17.334  0.00  0.00    +0.000 A 
ATOM     24  C   UNL     1       4.808   4.226  16.323  0.00  0.00    +0.000 A 
ATOM     25  C   UNL     1       5.484   5.190  15.591  0.00  0.00    +0.000 A 
ATOM     26  C   UNL     1       5.256   6.520  15.900  0.00  0.00    +0.000 A 
ATOM     27  N   UNL     1       4.422   6.938  16.878  0.00  0.00    +0.000 NA
ENDBRANCH  15  22
BRANCH   1  28
ATOM     28  O   UNL     1      -1.565  12.991  22.289  0.00  0.00    +0.000 OA
BRANCH  28  29
ATOM     29  C   UNL     1      -2.003  13.281  23.622  0.00  0.00    +0.000 C 
BRANCH  29  31
ATOM     30  C   UNL     1      -4.087  13.520  22.231  0.00  0.00    +0.000 C 
ATOM     31  C   UNL     1      -3.512  13.586  23.654  0.00  0.00    +0.000 C 
ATOM     32  C   UNL     1      -3.757  14.983  24.244  0.00  0.00    +0.000 C 
ATOM     33  C   UNL     1      -4.204  12.532  24.535  0.00  0.00    +0.000 C 
ENDBRANCH  29  31
ENDBRANCH  28  29
ENDBRANCH   1  28
TORSDOF 4
ENDMDL
MODEL 6
REMARK VINA RESULT:      -7.7      2.638      9.258
REMARK  Name = 
REMARK  7 active torsions:
REMARK  status: ('A' for Active; 'I' for Inactive)
REMARK    1  A    between atoms: C_1  and  C_2
REMARK    2  A    between atoms: C_2  and  C_3
REMARK    3  A    between atoms: C_2  and  C_4
REMARK    4  A    between atoms: C_2  and  C_5
REMARK    5  A    between atoms: C_5  and  O_6
REMARK    6  A    between atoms: O_6  and  C_7
REMARK    7  A    between atoms: C_21  and  C_22
REMARK                            x       y       z     vdW  Elec       q    Type
REMARK                         _______ _______ _______ _____ _____    ______ ____
ROOT
ATOM      1  C   UNL     1      -1.097  11.852  22.223  0.00  0.00    +0.000 A 
ATOM      2  C   UNL     1      -1.247  10.929  23.255  0.00  0.00    +0.000 A 
ATOM      3  C   UNL     1      -0.698   9.648  23.138  0.00  0.00    +0.000 A 
ATOM      4  C   UNL     1      -0.001   9.280  21.984  0.00  0.00    +0.000 A 
ATOM      5  C   UNL     1       0.165  10.196  20.947  0.00  0.00    +0.000 A 
ATOM      6  C   UNL     1      -0.381  11.484  21.087  0.00  0.00    +0.000 A 
ATOM      7  C   UNL     1       0.912   9.824  19.684  0.00  0.00    +0.000 C 
ATOM      8  C   UNL     1       0.003   9.976  18.441  0.00  0.00    +0.000 C 
ATOM      9  O   UNL     1       0.654  10.944  17.616  0.00  0.00    +0.000 OA
ATOM     10  C   UNL     1       1.759  11.311  18.293  0.00  0.00    +0.000 C 
ATOM     11  N   UNL     1       2.500  12.236  17.656  0.00  0.00    +0.000 N 
ATOM     12  N   UNL     1       2.009  10.802  19.446  0.00  0.00    +0.000 NA
ATOM     13  C   UNL     1       1.491   8.427  19.767  0.00  0.00    +0.000 A 
ATOM     14  C   UNL     1       2.298   7.930  18.726  0.00  0.00    +0.000 A 
ATOM     15  C   UNL     1       2.872   6.650  18.759  0.00  0.00    +0.000 A 
ATOM     16  C   UNL     1       2.577   5.849  19.873  0.00  0.00    +0.000 A 
ATOM     17  C   UNL     1       1.776   6.324  20.918  0.00  0.00    +0.000 A 
ATOM     18  C   UNL     1       1.242   7.614  20.869  0.00  0.00    +0.000 A 
ATOM     19  O   UNL     1       0.485   7.998  21.947  0.00  0.00    +0.000 OA
ATOM     20  H   UNL     1       1.997  12.800  16.985  0.00  0.00    +0.000 HD
ATOM     21  H   UNL     1       3.129  12.744  18.264  0.00  0.00    +0.000 HD
ENDROOT
BRANCH  15  22
ATOM     22  C   UNL     1       3.744   6.181  17.666  0.00  0.00    +0.000 A 
ATOM     23  C   UNL     1       4.459   7.065  16.852  0.00  0.00    +0.000 A 
ATOM     24  C   UNL     1       5.229   6.566  15.807  0.00  0.00    +0.000 A 
ATOM     25  C   UNL     1       5.279   5.197  15.600  0.00  0.00    +0.000 A 
ATOM     26  C   UNL     1       4.559   4.382  16.456  0.00  0.00    +0.000 A 
ATOM     27  N   UNL     1       3.801   4.840  17.477  0.00  0.00    +0.000 NA
ENDBRANCH  15  22
BRANCH   1  28
ATOM     28  O   UNL     1      -1.683  13.076  22.413  0.00  0.00    +0.000 OA
BRANCH  28  29
ATOM     29  C   UNL     1      -3.114  13.090  22.369  0.00  0.00    +0.000 C 
BRANCH  29  31
ATOM     30  C   UNL     1      -4.176  12.519  24.578  0.00  0.00    +0.000 C 
ATOM     31  C   UNL     1      -3.703  13.665  23.672  0.00  0.00    +0.000 C 
ATOM     32  C   UNL     1      -4.886  14.592  23.354  0.00  0.00    +0.000 C 
ATOM     33  C   UNL     1      -2.606  14.468  24.390  0.00  0.00    +0.000 C 
ENDBRANCH  29  31
ENDBRANCH  28  29
ENDBRANCH   1  28
TORSDOF 4
ENDMDL
MODEL 7
REMARK VINA RESULT:      -7.6      1.198      1.795
REMARK  Name = 
REMARK  7 active torsions:
REMARK  status: ('A' for Active; 'I' for Inactive)
REMARK    1  A    between atoms: C_1  and  C_2
REMARK    2  A    between atoms: C_2  and  C_3
REMARK    3  A    between atoms: C_2  and  C_4
REMARK    4  A    between atoms: C_2  and  C_5
REMARK    5  A    between atoms: C_5  and  O_6
REMARK    6  A    between atoms: O_6  and  C_7
REMARK    7  A    between atoms: C_21  and  C_22
REMARK                            x       y       z     vdW  Elec       q    Type
REMARK                         _______ _______ _______ _____ _____    ______ ____
ROOT
ATOM      1  C   UNL     1       1.981   8.144  18.584  0.00  0.00    +0.000 A 
ATOM      2  C   UNL     1       2.201   7.547  19.823  0.00  0.00    +0.000 A 
ATOM      3  C   UNL     1       1.569   8.046  20.966  0.00  0.00    +0.000 A 
ATOM      4  C   UNL     1       0.716   9.150  20.878  0.00  0.00    +0.000 A 
ATOM      5  C   UNL     1       0.479   9.752  19.643  0.00  0.00    +0.000 A 
ATOM      6  C   UNL     1       1.111   9.229  18.503  0.00  0.00    +0.000 A 
ATOM      7  C   UNL     1      -0.437  10.951  19.519  0.00  0.00    +0.000 C 
ATOM      8  C   UNL     1       0.321  12.164  18.930  0.00  0.00    +0.000 C 
ATOM      9  O   UNL     1      -0.368  12.487  17.721  0.00  0.00    +0.000 OA
ATOM     10  C   UNL     1      -1.359  11.581  17.618  0.00  0.00    +0.000 C 
ATOM     11  N   UNL     1      -2.117  11.733  16.516  0.00  0.00    +0.000 N 
ATOM     12  N   UNL     1      -1.496  10.669  18.512  0.00  0.00    +0.000 NA
ATOM     13  C   UNL     1      -1.081  11.303  20.844  0.00  0.00    +0.000 A 
ATOM     14  C   UNL     1      -2.037  12.335  20.916  0.00  0.00    +0.000 A 
ATOM     15  C   UNL     1      -2.675  12.692  22.114  0.00  0.00    +0.000 A 
ATOM     16  C   UNL     1      -2.294  11.995  23.271  0.00  0.00    +0.000 A 
ATOM     17  C   UNL     1      -1.345  10.966  23.220  0.00  0.00    +0.000 A 
ATOM     18  C   UNL     1      -0.748  10.616  22.007  0.00  0.00    +0.000 A 
ATOM     19  O   UNL     1       0.155   9.584  22.053  0.00  0.00    +0.000 OA
ATOM     20  H   UNL     1      -1.668  12.215  15.750  0.00  0.00    +0.000 HD
ATOM     21  H   UNL     1      -2.637  10.903  16.261  0.00  0.00    +0.000 HD
ENDROOT
BRANCH  15  22
ATOM     22  C   UNL     1      -3.699  13.753  22.140  0.00  0.00    +0.000 A 
ATOM     23  C   UNL     1      -4.052  14.420  23.317  0.00  0.00    +0.000 A 
ATOM     24  C   UNL     1      -5.058  15.380  23.287  0.00  0.00    +0.000 A 
ATOM     25  C   UNL     1      -5.686  15.662  22.084  0.00  0.00    +0.000 A 
ATOM     26  C   UNL     1      -5.272  14.974  20.956  0.00  0.00    +0.000 A 
ATOM     27  N   UNL     1      -4.300  14.035  20.957  0.00  0.00    +0.000 NA
ENDBRANCH  15  22
BRANCH   1  28
ATOM     28  O   UNL     1       2.655   7.604  17.521  0.00  0.00    +0.000 OA
BRANCH  28  29
ATOM     29  C   UNL     1       4.078   7.525  17.667  0.00  0.00    +0.000 C 
BRANCH  29  31
ATOM     30  C   UNL     1       5.147   6.111  15.881  0.00  0.00    +0.000 C 
ATOM     31  C   UNL     1       4.594   6.118  17.313  0.00  0.00    +0.000 C 
ATOM     32  C   UNL     1       3.455   5.092  17.429  0.00  0.00    +0.000 C 
ATOM     33  C   UNL     1       5.715   5.747  18.298  0.00  0.00    +0.000 C 
ENDBRANCH  29  31
ENDBRANCH  28  29
ENDBRANCH   1  28
TORSDOF 4
ENDMDL
MODEL 8
REMARK VINA RESULT:      -7.5      2.597      4.392
REMARK  Name = 
REMARK  7 active torsions:
REMARK  status: ('A' for Active; 'I' for Inactive)
REMARK    1  A    between atoms: C_1  and  C_2
REMARK    2  A    between atoms: C_2  and  C_3
REMARK    3  A    between atoms: C_2  and  C_4
REMARK    4  A    between atoms: C_2  and  C_5
REMARK    5  A    between atoms: C_5  and  O_6
REMARK    6  A    between atoms: O_6  and  C_7
REMARK    7  A    between atoms: C_21  and  C_22
REMARK                            x       y       z     vdW  Elec       q    Type
REMARK                         _______ _______ _______ _____ _____    ______ ____
ROOT
ATOM      1  C   UNL     1       2.519   6.735  19.461  0.00  0.00    +0.000 A 
ATOM      2  C   UNL     1       2.938   7.215  18.222  0.00  0.00    +0.000 A 
ATOM      3  C   UNL     1       2.585   8.504  17.811  0.00  0.00    +0.000 A 
ATOM      4  C   UNL     1       1.803   9.319  18.635  0.00  0.00    +0.000 A 
ATOM      5  C   UNL     1       1.384   8.856  19.880  0.00  0.00    +0.000 A 
ATOM      6  C   UNL     1       1.760   7.563  20.283  0.00  0.00    +0.000 A 
ATOM      7  C   UNL     1       0.534   9.716  20.791  0.00  0.00    +0.000 C 
ATOM      8  C   UNL     1      -0.813   9.022  21.105  0.00  0.00    +0.000 C 
ATOM      9  O   UNL     1      -0.830   8.860  22.524  0.00  0.00    +0.000 OA
ATOM     10  C   UNL     1       0.341   9.364  22.960  0.00  0.00    +0.000 C 
ATOM     11  N   UNL     1       0.499   9.286  24.293  0.00  0.00    +0.000 N 
ATOM     12  N   UNL     1       1.191   9.837  22.121  0.00  0.00    +0.000 NA
ATOM     13  C   UNL     1       0.312  11.097  20.210  0.00  0.00    +0.000 A 
ATOM     14  C   UNL     1      -0.380  12.075  20.950  0.00  0.00    +0.000 A 
ATOM     15  C   UNL     1      -0.600  13.374  20.466  0.00  0.00    +0.000 A 
ATOM     16  C   UNL     1      -0.130  13.661  19.176  0.00  0.00    +0.000 A 
ATOM     17  C   UNL     1       0.560  12.701  18.424  0.00  0.00    +0.000 A 
ATOM     18  C   UNL     1       0.788  11.426  18.945  0.00  0.00    +0.000 A 
ATOM     19  O   UNL     1       1.488  10.560  18.143  0.00  0.00    +0.000 OA
ATOM     20  H   UNL     1      -0.047   8.568  24.749  0.00  0.00    +0.000 HD
ATOM     21  H   UNL     1       1.463   9.354  24.594  0.00  0.00    +0.000 HD
ENDROOT
BRANCH  15  22
ATOM     22  C   UNL     1      -1.296  14.381  21.289  0.00  0.00    +0.000 A 
ATOM     23  C   UNL     1      -1.425  14.251  22.674  0.00  0.00    +0.000 A 
ATOM     24  C   UNL     1      -2.133  15.211  23.392  0.00  0.00    +0.000 A 
ATOM     25  C   UNL     1      -2.687  16.286  22.714  0.00  0.00    +0.000 A 
ATOM     26  C   UNL     1      -2.503  16.358  21.345  0.00  0.00    +0.000 A 
ATOM     27  N   UNL     1      -1.823  15.438  20.623  0.00  0.00    +0.000 NA
ENDBRANCH  15  22
BRANCH   1  28
ATOM     28  O   UNL     1       2.894   5.455  19.774  0.00  0.00    +0.000 OA
BRANCH  28  29
ATOM     29  C   UNL     1       2.098   4.804  20.771  0.00  0.00    +0.000 C 
BRANCH  29  31
ATOM     30  C   UNL     1       0.948   3.068  19.358  0.00  0.00    +0.000 C 
ATOM     31  C   UNL     1       1.971   3.297  20.480  0.00  0.00    +0.000 C 
ATOM     32  C   UNL     1       1.523   2.549  21.745  0.00  0.00    +0.000 C 
ATOM     33  C   UNL     1       3.345   2.768  20.036  0.00  0.00    +0.000 C 
ENDBRANCH  29  31
ENDBRANCH  28  29
ENDBRANCH   1  28
TORSDOF 4
ENDMDL
MODEL 9
REMARK VINA RESULT:      -7.5      2.822      4.521
REMARK  Name = 
REMARK  7 active torsions:
REMARK  status: ('A' for Active; 'I' for Inactive)
REMARK    1  A    between atoms: C_1  and  C_2
REMARK    2  A    between atoms: C_2  and  C_3
REMARK    3  A    between atoms: C_2  and  C_4
REMARK    4  A    between atoms: C_2  and  C_5
REMARK    5  A    between atoms: C_5  and  O_6
REMARK    6  A    between atoms: O_6  and  C_7
REMARK    7  A    between atoms: C_21  and  C_22
REMARK                            x       y       z     vdW  Elec       q    Type
REMARK                         _______ _______ _______ _____ _____    ______ ____
ROOT
ATOM      1  C   UNL     1       2.521   6.734  19.458  0.00  0.00    +0.000 A 
ATOM      2  C   UNL     1       2.962   7.211  18.225  0.00  0.00    +0.000 A 
ATOM      3  C   UNL     1       2.631   8.506  17.813  0.00  0.00    +0.000 A 
ATOM      4  C   UNL     1       1.850   9.330  18.629  0.00  0.00    +0.000 A 
ATOM      5  C   UNL     1       1.409   8.869  19.869  0.00  0.00    +0.000 A 
ATOM      6  C   UNL     1       1.764   7.571  20.273  0.00  0.00    +0.000 A 
ATOM      7  C   UNL     1       0.559   9.739  20.771  0.00  0.00    +0.000 C 
ATOM      8  C   UNL     1      -0.800   9.061  21.067  0.00  0.00    +0.000 C 
ATOM      9  O   UNL     1      -0.837   8.897  22.486  0.00  0.00    +0.000 OA
ATOM     10  C   UNL     1       0.336   9.385  22.936  0.00  0.00    +0.000 C 
ATOM     11  N   UNL     1       0.477   9.303  24.271  0.00  0.00    +0.000 N 
ATOM     12  N   UNL     1       1.202   9.849  22.108  0.00  0.00    +0.000 NA
ATOM     13  C   UNL     1       0.362  11.123  20.190  0.00  0.00    +0.000 A 
ATOM     14  C   UNL     1      -0.326  12.109  20.924  0.00  0.00    +0.000 A 
ATOM     15  C   UNL     1      -0.523  13.411  20.439  0.00  0.00    +0.000 A 
ATOM     16  C   UNL     1      -0.034  13.695  19.155  0.00  0.00    +0.000 A 
ATOM     17  C   UNL     1       0.653  12.728  18.410  0.00  0.00    +0.000 A 
ATOM     18  C   UNL     1       0.858  11.449  18.931  0.00  0.00    +0.000 A 
ATOM     19  O   UNL     1       1.556  10.576  18.135  0.00  0.00    +0.000 OA
ATOM     20  H   UNL     1      -0.084   8.591  24.719  0.00  0.00    +0.000 HD
ATOM     21  H   UNL     1       1.438   9.357  24.584  0.00  0.00    +0.000 HD
ENDROOT
BRANCH  15  22
ATOM     22  C   UNL     1      -1.215  14.426  21.256  0.00  0.00    +0.000 A 
ATOM     23  C   UNL     1      -1.772  15.580  20.696  0.00  0.00    +0.000 A 
ATOM     24  C   UNL     1      -2.372  16.524  21.524  0.00  0.00    +0.000 A 
ATOM     25  C   UNL     1      -2.414  16.294  22.890  0.00  0.00    +0.000 A 
ATOM     26  C   UNL     1      -1.858  15.121  23.370  0.00  0.00    +0.000 A 
ATOM     27  N   UNL     1      -1.267  14.189  22.590  0.00  0.00    +0.000 NA
ENDBRANCH  15  22
BRANCH   1  28
ATOM     28  O   UNL     1       2.876   5.450  19.773  0.00  0.00    +0.000 OA
BRANCH  28  29
ATOM     29  C   UNL     1       2.057   4.805  20.756  0.00  0.00    +0.000 C 
BRANCH  29  31
ATOM     30  C   UNL     1       1.558   2.562  21.781  0.00  0.00    +0.000 C 
ATOM     31  C   UNL     1       1.963   3.291  20.491  0.00  0.00    +0.000 C 
ATOM     32  C   UNL     1       3.316   2.754  20.000  0.00  0.00    +0.000 C 
ATOM     33  C   UNL     1       0.896   3.050  19.410  0.00  0.00    +0.000 C 
ENDBRANCH  29  31
ENDBRANCH  28  29
ENDBRANCH   1  28
TORSDOF 4
ENDMDL
