MODEL 1
REMARK VINA RESULT:      -8.5      0.000      0.000
REMARK  Name = 
REMARK  9 active torsions:
REMARK  status: ('A' for Active; 'I' for Inactive)
REMARK    1  A    between atoms: N_1  and  CA_2
REMARK    2  A    between atoms: CA_2  and  C_3
REMARK    3  A    between atoms: CA_2  and  C_23
REMARK    4  A    between atoms: C_3  and  C_4
REMARK    5  A    between atoms: C_6  and  C_7
REMARK    6  A    between atoms: C_11  and  C_12
REMARK    7  A    between atoms: C_12  and  O_14
REMARK    8  A    between atoms: C_18  and  N_19
REMARK    9  A    between atoms: C_23  and  OXT_25
REMARK                            x       y       z     vdW  Elec       q    Type
REMARK                         _______ _______ _______ _____ _____    ______ ____
ROOT
ATOM      1  C   UNL     1       4.419   4.755  17.151  0.00  0.00    +0.000 A 
ATOM      2  C   UNL     1       3.787   5.963  17.503  0.00  0.00    +0.000 A 
ATOM      3  C   UNL     1       2.840   6.077  18.556  0.00  0.00    +0.000 A 
ATOM      4  C   UNL     1       2.533   4.892  19.276  0.00  0.00    +0.000 A 
ATOM      5 CL   UNL     1       1.322   4.868  20.522  0.00  0.00    +0.000 Cl
ATOM      6  C   UNL     1       3.206   3.703  18.946  0.00  0.00    +0.000 A 
ATOM      7  C   UNL     1       4.125   3.620  17.897  0.00  0.00    +0.000 A 
ENDROOT
BRANCH   3   8
ATOM      8  C   UNL     1       2.247   7.428  18.826  0.00  0.00    +0.000 A 
ATOM      9  C   UNL     1       2.069   8.393  17.818  0.00  0.00    +0.000 A 
ATOM     10  C   UNL     1       1.511   9.651  18.080  0.00  0.00    +0.000 A 
ATOM     11  C   UNL     1       1.050   9.963  19.354  0.00  0.00    +0.000 A 
ATOM     12  C   UNL     1       1.175   9.018  20.374  0.00  0.00    +0.000 A 
ATOM     13  C   UNL     1       1.775   7.774  20.110  0.00  0.00    +0.000 A 
BRANCH  12  14
ATOM     14  C   UNL     1       0.623   9.253  21.733  0.00  0.00    +0.000 C 
ATOM     15  O   UNL     1       1.153   9.995  22.542  0.00  0.00    +0.000 OA
BRANCH  14  16
ATOM     16  O   UNL     1      -0.533   8.602  21.982  0.00  0.00    +0.000 OA
ATOM     17  H   UNL     1      -1.190   9.108  22.496  0.00  0.00    +0.000 HD
ENDBRANCH  14  16
ENDBRANCH  12  14
ENDBRANCH   3   8
BRANCH   6  18
ATOM     18  N   UNL     1       3.008   2.488  19.720  0.00  0.00    +0.000 N 
ATOM     19  O   UNL     1       2.153   1.690  19.323  0.00  0.00    +0.000 OA
ATOM     20  O   UNL     1       3.774   2.320  20.675  0.00  0.00    +0.000 OA
ENDBRANCH   6  18
BRANCH   1  21
ATOM     21  C   UNL     1       5.385   4.700  15.991  0.00  0.00    +0.000 C 
BRANCH  21  22
ATOM     22  CA  UNL     1       6.655   5.558  16.131  0.00  0.00    +0.000 C 
BRANCH  22  23
ATOM     23  N   UNL     1       7.599   5.446  14.979  0.00  0.00    +0.000 NA
ATOM     24  H1  UNL     1       7.668   4.458  14.719  0.00  0.00    +0.000 HD
ATOM     25  H2  UNL     1       8.538   5.691  15.300  0.00  0.00    +0.000 HD
ENDBRANCH  22  23
BRANCH  22  26
ATOM     26  C   UNL     1       7.427   5.268  17.427  0.00  0.00    +0.000 C 
ATOM     27  O   UNL     1       7.485   5.999  18.403  0.00  0.00    +0.000 OA
BRANCH  26  28
ATOM     28  OXT UNL     1       8.094   4.084  17.341  0.00  0.00    +0.000 OA
ATOM     29  HXT UNL     1       9.050   4.311  17.229  0.00  0.00    +0.000 HD
ENDBRANCH  26  28
ENDBRANCH  22  26
ENDBRANCH  21  22
ENDBRANCH   1  21
TORSDOF 9
ENDMDL
MODEL 2
REMARK VINA RESULT:      -8.4      1.392      1.632
REMARK  Name = 
REMARK  9 active torsions:
REMARK  status: ('A' for Active; 'I' for Inactive)
REMARK    1  A    between atoms: N_1  and  CA_2
REMARK    2  A    between atoms: CA_2  and  C_3
REMARK    3  A    between atoms: CA_2  and  C_23
REMARK    4  A    between atoms: C_3  and  C_4
REMARK    5  A    between atoms: C_6  and  C_7
REMARK    6  A    between atoms: C_11  and  C_12
REMARK    7  A    between atoms: C_12  and  O_14
REMARK    8  A    between atoms: C_18  and  N_19
REMARK    9  A    between atoms: C_23  and  OXT_25
REMARK                            x       y       z     vdW  Elec       q    Type
REMARK                         _______ _______ _______ _____ _____    ______ ____
ROOT
ATOM      1  C   UNL     1       4.436   5.624  17.307  0.00  0.00    +0.000 A 
ATOM      2  C   UNL     1       3.698   6.708  17.818  0.00  0.00    +0.000 A 
ATOM      3  C   UNL     1       2.711   6.580  18.833  0.00  0.00    +0.000 A 
ATOM      4  C   UNL     1       2.477   5.274  19.340  0.00  0.00    +0.000 A 
ATOM      5 CL   UNL     1       1.233   4.959  20.511  0.00  0.00    +0.000 Cl
ATOM      6  C   UNL     1       3.254   4.207  18.856  0.00  0.00    +0.000 A 
ATOM      7  C   UNL     1       4.210   4.364  17.848  0.00  0.00    +0.000 A 
ENDROOT
BRANCH   3   8
ATOM      8  C   UNL     1       2.004   7.822  19.287  0.00  0.00    +0.000 A 
ATOM      9  C   UNL     1       1.673   8.870  18.410  0.00  0.00    +0.000 A 
ATOM     10  C   UNL     1       1.009  10.024  18.844  0.00  0.00    +0.000 A 
ATOM     11  C   UNL     1       0.593  10.139  20.166  0.00  0.00    +0.000 A 
ATOM     12  C   UNL     1       0.869   9.103  21.060  0.00  0.00    +0.000 A 
ATOM     13  C   UNL     1       1.574   7.968  20.623  0.00  0.00    +0.000 A 
BRANCH  12  14
ATOM     14  C   UNL     1       0.375   9.123  22.460  0.00  0.00    +0.000 C 
ATOM     15  O   UNL     1       0.990   9.653  23.371  0.00  0.00    +0.000 OA
BRANCH  14  16
ATOM     16  O   UNL     1      -0.828   8.535  22.633  0.00  0.00    +0.000 OA
ATOM     17  H   UNL     1      -1.242   8.195  21.818  0.00  0.00    +0.000 HD
ENDBRANCH  14  16
ENDBRANCH  12  14
ENDBRANCH   3   8
BRANCH   6  18
ATOM     18  N   UNL     1       3.130   2.872  19.416  0.00  0.00    +0.000 N 
ATOM     19  O   UNL     1       2.308   2.108  18.899  0.00  0.00    +0.000 OA
ATOM     20  O   UNL     1       3.919   2.587  20.323  0.00  0.00    +0.000 OA
ENDBRANCH   6  18
BRANCH   1  21
ATOM     21  C   UNL     1       5.440   5.830  16.197  0.00  0.00    +0.000 C 
BRANCH  21  22
ATOM     22  CA  UNL     1       6.391   4.652  15.923  0.00  0.00    +0.000 C 
BRANCH  22  23
ATOM     23  N   UNL     1       7.624   4.651  16.768  0.00  0.00    +0.000 NA
ATOM     24  H1  UNL     1       8.296   5.300  16.349  0.00  0.00    +0.000 HD
ATOM     25  H2  UNL     1       8.072   3.735  16.692  0.00  0.00    +0.000 HD
ENDBRANCH  22  23
BRANCH  22  26
ATOM     26  C   UNL     1       6.809   4.557  14.448  0.00  0.00    +0.000 C 
ATOM     27  O   UNL     1       6.376   3.758  13.633  0.00  0.00    +0.000 OA
BRANCH  26  28
ATOM     28  OXT UNL     1       7.778   5.469  14.157  0.00  0.00    +0.000 OA
ATOM     29  HXT UNL     1       8.132   5.222  13.268  0.00  0.00    +0.000 HD
ENDBRANCH  26  28
ENDBRANCH  22  26
ENDBRANCH  21  22
ENDBRANCH   1  21
TORSDOF 9
ENDMDL
MODEL 3
REMARK VINA RESULT:      -8.4      0.896      1.363
REMARK  Name = 
REMARK  9 active torsions:
REMARK  status: ('A' for Active; 'I' for Inactive)
REMARK    1  A    between atoms: N_1  and  CA_2
REMARK    2  A    between atoms: CA_2  and  C_3
REMARK    3  A    between atoms: CA_2  and  C_23
REMARK    4  A    between atoms: C_3  and  C_4
REMARK    5  A    between atoms: C_6  and  C_7
REMARK    6  A    between atoms: C_11  and  C_12
REMARK    7  A    between atoms: C_12  and  O_14
REMARK    8  A    between atoms: C_18  and  N_19
REMARK    9  A    between atoms: C_23  and  OXT_25
REMARK                            x       y       z     vdW  Elec       q    Type
REMARK                         _______ _______ _______ _____ _____    ______ ____
ROOT
ATOM      1  C   UNL     1       4.774   5.217  17.012  0.00  0.00    +0.000 A 
ATOM      2  C   UNL     1       4.019   6.320  17.453  0.00  0.00    +0.000 A 
ATOM      3  C   UNL     1       2.991   6.232  18.430  0.00  0.00    +0.000 A 
ATOM      4  C   UNL     1       2.733   4.946  18.976  0.00  0.00    +0.000 A 
ATOM      5 CL   UNL     1       1.441   4.677  20.107  0.00  0.00    +0.000 Cl
ATOM      6  C   UNL     1       3.526   3.861  18.564  0.00  0.00    +0.000 A 
ATOM      7  C   UNL     1       4.522   3.978  17.592  0.00  0.00    +0.000 A 
ENDROOT
BRANCH   3   8
ATOM      8  C   UNL     1       2.270   7.490  18.809  0.00  0.00    +0.000 A 
ATOM      9  C   UNL     1       1.835   8.430  17.857  0.00  0.00    +0.000 A 
ATOM     10  C   UNL     1       1.159   9.602  18.221  0.00  0.00    +0.000 A 
ATOM     11  C   UNL     1       0.835   9.841  19.552  0.00  0.00    +0.000 A 
ATOM     12  C   UNL     1       1.216   8.913  20.523  0.00  0.00    +0.000 A 
ATOM     13  C   UNL     1       1.932   7.761  20.152  0.00  0.00    +0.000 A 
BRANCH  12  14
ATOM     14  C   UNL     1       0.824   9.063  21.948  0.00  0.00    +0.000 C 
ATOM     15  O   UNL     1      -0.330   8.962  22.330  0.00  0.00    +0.000 OA
BRANCH  14  16
ATOM     16  O   UNL     1       1.858   9.285  22.787  0.00  0.00    +0.000 OA
ATOM     17  H   UNL     1       2.089   8.535  23.365  0.00  0.00    +0.000 HD
ENDBRANCH  14  16
ENDBRANCH  12  14
ENDBRANCH   3   8
BRANCH   6  18
ATOM     18  N   UNL     1       3.375   2.548  19.169  0.00  0.00    +0.000 N 
ATOM     19  O   UNL     1       3.990   2.325  20.216  0.00  0.00    +0.000 OA
ATOM     20  O   UNL     1       2.573   1.784  18.619  0.00  0.00    +0.000 OA
ENDBRANCH   6  18
BRANCH   1  21
ATOM     21  C   UNL     1       5.823   5.379  15.938  0.00  0.00    +0.000 C 
BRANCH  21  22
ATOM     22  CA  UNL     1       7.276   5.498  16.428  0.00  0.00    +0.000 C 
BRANCH  22  23
ATOM     23  N   UNL     1       7.855   4.219  16.941  0.00  0.00    +0.000 NA
ATOM     24  H1  UNL     1       8.628   4.450  17.570  0.00  0.00    +0.000 HD
ATOM     25  H2  UNL     1       8.299   3.726  16.163  0.00  0.00    +0.000 HD
ENDBRANCH  22  23
BRANCH  22  26
ATOM     26  C   UNL     1       7.454   6.581  17.502  0.00  0.00    +0.000 C 
ATOM     27  O   UNL     1       7.608   6.384  18.697  0.00  0.00    +0.000 OA
BRANCH  26  28
ATOM     28  OXT UNL     1       7.377   7.825  16.955  0.00  0.00    +0.000 OA
ATOM     29  HXT UNL     1       7.827   8.436  17.590  0.00  0.00    +0.000 HD
ENDBRANCH  26  28
ENDBRANCH  22  26
ENDBRANCH  21  22
ENDBRANCH   1  21
TORSDOF 9
ENDMDL
MODEL 4
REMARK VINA RESULT:      -8.3      1.479      1.802
REMARK  Name = 
REMARK  9 active torsions:
REMARK  status: ('A' for Active; 'I' for Inactive)
REMARK    1  A    between atoms: N_1  and  CA_2
REMARK    2  A    between atoms: CA_2  and  C_3
REMARK    3  A    between atoms: CA_2  and  C_23
REMARK    4  A    between atoms: C_3  and  C_4
REMARK    5  A    between atoms: C_6  and  C_7
REMARK    6  A    between atoms: C_11  and  C_12
REMARK    7  A    between atoms: C_12  and  O_14
REMARK    8  A    between atoms: C_18  and  N_19
REMARK    9  A    between atoms: C_23  and  OXT_25
REMARK                            x       y       z     vdW  Elec       q    Type
REMARK                         _______ _______ _______ _____ _____    ______ ____
ROOT
ATOM      1  C   UNL     1       4.642   5.589  17.155  0.00  0.00    +0.000 A 
ATOM      2  C   UNL     1       3.860   6.655  17.637  0.00  0.00    +0.000 A 
ATOM      3  C   UNL     1       2.831   6.502  18.605  0.00  0.00    +0.000 A 
ATOM      4  C   UNL     1       2.602   5.189  19.096  0.00  0.00    +0.000 A 
ATOM      5 CL   UNL     1       1.313   4.843  20.209  0.00  0.00    +0.000 Cl
ATOM      6  C   UNL     1       3.422   4.141  18.644  0.00  0.00    +0.000 A 
ATOM      7  C   UNL     1       4.418   4.322  17.681  0.00  0.00    +0.000 A 
ENDROOT
BRANCH   3   8
ATOM      8  C   UNL     1       2.078   7.726  19.032  0.00  0.00    +0.000 A 
ATOM      9  C   UNL     1       1.545   8.647  18.113  0.00  0.00    +0.000 A 
ATOM     10  C   UNL     1       0.840   9.787  18.522  0.00  0.00    +0.000 A 
ATOM     11  C   UNL     1       0.588  10.009  19.872  0.00  0.00    +0.000 A 
ATOM     12  C   UNL     1       1.068   9.098  20.814  0.00  0.00    +0.000 A 
ATOM     13  C   UNL     1       1.811   7.980  20.395  0.00  0.00    +0.000 A 
BRANCH  12  14
ATOM     14  C   UNL     1       0.757   9.227  22.260  0.00  0.00    +0.000 C 
ATOM     15  O   UNL     1      -0.383   9.231  22.694  0.00  0.00    +0.000 OA
BRANCH  14  16
ATOM     16  O   UNL     1       1.845   9.306  23.056  0.00  0.00    +0.000 OA
ATOM     17  H   UNL     1       2.668   9.571  22.605  0.00  0.00    +0.000 HD
ENDBRANCH  14  16
ENDBRANCH  12  14
ENDBRANCH   3   8
BRANCH   6  18
ATOM     18  N   UNL     1       3.300   2.801  19.193  0.00  0.00    +0.000 N 
ATOM     19  O   UNL     1       3.885   2.561  20.254  0.00  0.00    +0.000 OA
ATOM     20  O   UNL     1       2.550   2.029  18.584  0.00  0.00    +0.000 OA
ENDBRANCH   6  18
BRANCH   1  21
ATOM     21  C   UNL     1       5.690   5.821  16.093  0.00  0.00    +0.000 C 
BRANCH  21  22
ATOM     22  CA  UNL     1       6.599   4.622  15.770  0.00  0.00    +0.000 C 
BRANCH  22  23
ATOM     23  N   UNL     1       7.806   4.516  16.645  0.00  0.00    +0.000 NA
ATOM     24  H1  UNL     1       8.197   3.577  16.534  0.00  0.00    +0.000 HD
ATOM     25  H2  UNL     1       7.506   4.553  17.622  0.00  0.00    +0.000 HD
ENDBRANCH  22  23
BRANCH  22  26
ATOM     26  C   UNL     1       7.054   4.599  14.303  0.00  0.00    +0.000 C 
ATOM     27  O   UNL     1       7.804   5.404  13.776  0.00  0.00    +0.000 OA
BRANCH  26  28
ATOM     28  OXT UNL     1       6.473   3.568  13.630  0.00  0.00    +0.000 OA
ATOM     29  HXT UNL     1       5.763   3.216  14.221  0.00  0.00    +0.000 HD
ENDBRANCH  26  28
ENDBRANCH  22  26
ENDBRANCH  21  22
ENDBRANCH   1  21
TORSDOF 9
ENDMDL
MODEL 5
REMARK VINA RESULT:      -8.2      1.939      2.438
REMARK  Name = 
REMARK  9 active torsions:
REMARK  status: ('A' for Active; 'I' for Inactive)
REMARK    1  A    between atoms: N_1  and  CA_2
REMARK    2  A    between atoms: CA_2  and  C_3
REMARK    3  A    between atoms: CA_2  and  C_23
REMARK    4  A    between atoms: C_3  and  C_4
REMARK    5  A    between atoms: C_6  and  C_7
REMARK    6  A    between atoms: C_11  and  C_12
REMARK    7  A    between atoms: C_12  and  O_14
REMARK    8  A    between atoms: C_18  and  N_19
REMARK    9  A    between atoms: C_23  and  OXT_25
REMARK                            x       y       z     vdW  Elec       q    Type
REMARK                         _______ _______ _______ _____ _____    ______ ____
ROOT
ATOM      1  C   UNL     1       4.450   5.249  17.018  0.00  0.00    +0.000 A 
ATOM      2  C   UNL     1       3.693   6.235  17.679  0.00  0.00    +0.000 A 
ATOM      3  C   UNL     1       2.952   5.993  18.867  0.00  0.00    +0.000 A 
ATOM      4  C   UNL     1       2.997   4.675  19.395  0.00  0.00    +0.000 A 
ATOM      5 CL   UNL     1       2.062   4.217  20.787  0.00  0.00    +0.000 Cl
ATOM      6  C   UNL     1       3.796   3.713  18.755  0.00  0.00    +0.000 A 
ATOM      7  C   UNL     1       4.504   3.978  17.580  0.00  0.00    +0.000 A 
ENDROOT
BRANCH   3   8
ATOM      8  C   UNL     1       2.191   7.137  19.468  0.00  0.00    +0.000 A 
ATOM      9  C   UNL     1       1.693   7.110  20.783  0.00  0.00    +0.000 A 
ATOM     10  C   UNL     1       0.987   8.186  21.335  0.00  0.00    +0.000 A 
ATOM     11  C   UNL     1       0.811   9.358  20.607  0.00  0.00    +0.000 A 
ATOM     12  C   UNL     1       1.324   9.439  19.311  0.00  0.00    +0.000 A 
ATOM     13  C   UNL     1       1.994   8.337  18.751  0.00  0.00    +0.000 A 
BRANCH  12  14
ATOM     14  C   UNL     1       1.250  10.690  18.515  0.00  0.00    +0.000 C 
ATOM     15  O   UNL     1       0.532  11.627  18.821  0.00  0.00    +0.000 OA
BRANCH  14  16
ATOM     16  O   UNL     1       2.071  10.715  17.443  0.00  0.00    +0.000 OA
ATOM     17  H   UNL     1       1.625  10.839  16.585  0.00  0.00    +0.000 HD
ENDBRANCH  14  16
ENDBRANCH  12  14
ENDBRANCH   3   8
BRANCH   6  18
ATOM     18  N   UNL     1       3.962   2.381  19.313  0.00  0.00    +0.000 N 
ATOM     19  O   UNL     1       3.303   1.464  18.813  0.00  0.00    +0.000 OA
ATOM     20  O   UNL     1       4.815   2.265  20.199  0.00  0.00    +0.000 OA
ENDBRANCH   6  18
BRANCH   1  21
ATOM     21  C   UNL     1       5.179   5.569  15.734  0.00  0.00    +0.000 C 
BRANCH  21  22
ATOM     22  CA  UNL     1       6.684   5.248  15.716  0.00  0.00    +0.000 C 
BRANCH  22  23
ATOM     23  N   UNL     1       7.549   6.346  16.242  0.00  0.00    +0.000 NA
ATOM     24  H1  UNL     1       8.036   5.997  17.072  0.00  0.00    +0.000 HD
ATOM     25  H2  UNL     1       6.950   7.095  16.595  0.00  0.00    +0.000 HD
ENDBRANCH  22  23
BRANCH  22  26
ATOM     26  C   UNL     1       7.189   4.852  14.321  0.00  0.00    +0.000 C 
ATOM     27  O   UNL     1       7.986   5.482  13.644  0.00  0.00    +0.000 OA
BRANCH  26  28
ATOM     28  OXT UNL     1       6.595   3.702  13.897  0.00  0.00    +0.000 OA
ATOM     29  HXT UNL     1       5.624   3.825  14.033  0.00  0.00    +0.000 HD
ENDBRANCH  26  28
ENDBRANCH  22  26
ENDBRANCH  21  22
ENDBRANCH   1  21
TORSDOF 9
ENDMDL
MODEL 6
REMARK VINA RESULT:      -8.2      1.814      4.265
REMARK  Name = 
REMARK  9 active torsions:
REMARK  status: ('A' for Active; 'I' for Inactive)
REMARK    1  A    between atoms: N_1  and  CA_2
REMARK    2  A    between atoms: CA_2  and  C_3
REMARK    3  A    between atoms: CA_2  and  C_23
REMARK    4  A    between atoms: C_3  and  C_4
REMARK    5  A    between atoms: C_6  and  C_7
REMARK    6  A    between atoms: C_11  and  C_12
REMARK    7  A    between atoms: C_12  and  O_14
REMARK    8  A    between atoms: C_18  and  N_19
REMARK    9  A    between atoms: C_23  and  OXT_25
REMARK                            x       y       z     vdW  Elec       q    Type
REMARK                         _______ _______ _______ _____ _____    ______ ____
ROOT
ATOM      1  C   UNL     1       2.951   3.469  18.283  0.00  0.00    +0.000 A 
ATOM      2  C   UNL     1       2.457   4.757  18.560  0.00  0.00    +0.000 A 
ATOM      3  C   UNL     1       3.142   5.954  18.217  0.00  0.00    +0.000 A 
ATOM      4  C   UNL     1       4.393   5.811  17.559  0.00  0.00    +0.000 A 
ATOM      5 CL   UNL     1       5.382   7.187  17.170  0.00  0.00    +0.000 Cl
ATOM      6  C   UNL     1       4.853   4.521  17.245  0.00  0.00    +0.000 A 
ATOM      7  C   UNL     1       4.161   3.362  17.606  0.00  0.00    +0.000 A 
ENDROOT
BRANCH   3   8
ATOM      8  C   UNL     1       2.496   7.261  18.569  0.00  0.00    +0.000 A 
ATOM      9  C   UNL     1       2.235   8.259  17.613  0.00  0.00    +0.000 A 
ATOM     10  C   UNL     1       1.628   9.475  17.952  0.00  0.00    +0.000 A 
ATOM     11  C   UNL     1       1.201   9.707  19.254  0.00  0.00    +0.000 A 
ATOM     12  C   UNL     1       1.407   8.725  20.225  0.00  0.00    +0.000 A 
ATOM     13  C   UNL     1       2.056   7.526  19.883  0.00  0.00    +0.000 A 
BRANCH  12  14
ATOM     14  C   UNL     1       0.895   8.872  21.611  0.00  0.00    +0.000 C 
ATOM     15  O   UNL     1      -0.266   8.653  21.914  0.00  0.00    +0.000 OA
BRANCH  14  16
ATOM     16  O   UNL     1       1.832   9.235  22.513  0.00  0.00    +0.000 OA
ATOM     17  H   UNL     1       2.481   9.889  22.194  0.00  0.00    +0.000 HD
ENDBRANCH  14  16
ENDBRANCH  12  14
ENDBRANCH   3   8
BRANCH   6  18
ATOM     18  N   UNL     1       6.072   4.323  16.479  0.00  0.00    +0.000 N 
ATOM     19  O   UNL     1       5.965   4.180  15.257  0.00  0.00    +0.000 OA
ATOM     20  O   UNL     1       7.131   4.394  17.114  0.00  0.00    +0.000 OA
ENDBRANCH   6  18
BRANCH   1  21
ATOM     21  C   UNL     1       2.186   2.240  18.716  0.00  0.00    +0.000 C 
BRANCH  21  22
ATOM     22  CA  UNL     1       1.640   2.258  20.155  0.00  0.00    +0.000 C 
BRANCH  22  23
ATOM     23  N   UNL     1       0.479   3.177  20.357  0.00  0.00    +0.000 NA
ATOM     24  H1  UNL     1       0.747   3.879  21.052  0.00  0.00    +0.000 HD
ATOM     25  H2  UNL     1      -0.278   2.653  20.803  0.00  0.00    +0.000 HD
ENDBRANCH  22  23
BRANCH  22  26
ATOM     26  C   UNL     1       2.719   2.596  21.195  0.00  0.00    +0.000 C 
ATOM     27  O   UNL     1       3.877   2.211  21.174  0.00  0.00    +0.000 OA
BRANCH  26  28
ATOM     28  OXT UNL     1       2.206   3.365  22.195  0.00  0.00    +0.000 OA
ATOM     29  HXT UNL     1       2.007   4.246  21.794  0.00  0.00    +0.000 HD
ENDBRANCH  26  28
ENDBRANCH  22  26
ENDBRANCH  21  22
ENDBRANCH   1  21
TORSDOF 9
ENDMDL
MODEL 7
REMARK VINA RESULT:      -8.2      1.171      1.387
REMARK  Name = 
REMARK  9 active torsions:
REMARK  status: ('A' for Active; 'I' for Inactive)
REMARK    1  A    between atoms: N_1  and  CA_2
REMARK    2  A    between atoms: CA_2  and  C_3
REMARK    3  A    between atoms: CA_2  and  C_23
REMARK    4  A    between atoms: C_3  and  C_4
REMARK    5  A    between atoms: C_6  and  C_7
REMARK    6  A    between atoms: C_11  and  C_12
REMARK    7  A    between atoms: C_12  and  O_14
REMARK    8  A    between atoms: C_18  and  N_19
REMARK    9  A    between atoms: C_23  and  OXT_25
REMARK                            x       y       z     vdW  Elec       q    Type
REMARK                         _______ _______ _______ _____ _____    ______ ____
ROOT
ATOM      1  C   UNL     1       5.135   4.909  18.720  0.00  0.00    +0.000 A 
ATOM      2  C   UNL     1       4.347   6.075  18.735  0.00  0.00    +0.000 A 
ATOM      3  C   UNL     1       3.031   6.130  19.269  0.00  0.00    +0.000 A 
ATOM      4  C   UNL     1       2.508   4.926  19.811  0.00  0.00    +0.000 A 
ATOM      5 CL   UNL     1       0.878   4.826  20.408  0.00  0.00    +0.000 Cl
ATOM      6  C   UNL     1       3.322   3.780  19.835  0.00  0.00    +0.000 A 
ATOM      7  C   UNL     1       4.608   3.755  19.291  0.00  0.00    +0.000 A 
ENDROOT
BRANCH   3   8
ATOM      8  C   UNL     1       2.307   7.442  19.222  0.00  0.00    +0.000 A 
ATOM      9  C   UNL     1       2.054   8.126  18.020  0.00  0.00    +0.000 A 
ATOM     10  C   UNL     1       1.373   9.350  17.987  0.00  0.00    +0.000 A 
ATOM     11  C   UNL     1       0.862   9.900  19.157  0.00  0.00    +0.000 A 
ATOM     12  C   UNL     1       1.059   9.233  20.367  0.00  0.00    +0.000 A 
ATOM     13  C   UNL     1       1.781   8.026  20.394  0.00  0.00    +0.000 A 
BRANCH  12  14
ATOM     14  C   UNL     1       0.463   9.719  21.638  0.00  0.00    +0.000 C 
ATOM     15  O   UNL     1      -0.634  10.248  21.694  0.00  0.00    +0.000 OA
BRANCH  14  16
ATOM     16  O   UNL     1       1.225   9.493  22.729  0.00  0.00    +0.000 OA
ATOM     17  H   UNL     1       0.739   9.183  23.516  0.00  0.00    +0.000 HD
ENDBRANCH  14  16
ENDBRANCH  12  14
ENDBRANCH   3   8
BRANCH   6  18
ATOM     18  N   UNL     1       2.874   2.554  20.474  0.00  0.00    +0.000 N 
ATOM     19  O   UNL     1       2.229   1.754  19.789  0.00  0.00    +0.000 OA
ATOM     20  O   UNL     1       3.249   2.379  21.638  0.00  0.00    +0.000 OA
ENDBRANCH   6  18
BRANCH   1  21
ATOM     21  C   UNL     1       6.511   4.916  18.097  0.00  0.00    +0.000 C 
BRANCH  21  22
ATOM     22  CA  UNL     1       6.805   6.072  17.126  0.00  0.00    +0.000 C 
BRANCH  22  23
ATOM     23  N   UNL     1       7.445   5.647  15.844  0.00  0.00    +0.000 NA
ATOM     24  H1  UNL     1       6.732   5.669  15.111  0.00  0.00    +0.000 HD
ATOM     25  H2  UNL     1       7.703   4.660  15.919  0.00  0.00    +0.000 HD
ENDBRANCH  22  23
BRANCH  22  26
ATOM     26  C   UNL     1       7.663   7.176  17.759  0.00  0.00    +0.000 C 
ATOM     27  O   UNL     1       7.853   8.289  17.294  0.00  0.00    +0.000 OA
BRANCH  26  28
ATOM     28  OXT UNL     1       8.240   6.742  18.914  0.00  0.00    +0.000 OA
ATOM     29  HXT UNL     1       8.649   7.537  19.336  0.00  0.00    +0.000 HD
ENDBRANCH  26  28
ENDBRANCH  22  26
ENDBRANCH  21  22
ENDBRANCH   1  21
TORSDOF 9
ENDMDL
MODEL 8
REMARK VINA RESULT:      -8.2      1.420      1.756
REMARK  Name = 
REMARK  9 active torsions:
REMARK  status: ('A' for Active; 'I' for Inactive)
REMARK    1  A    between atoms: N_1  and  CA_2
REMARK    2  A    between atoms: CA_2  and  C_3
REMARK    3  A    between atoms: CA_2  and  C_23
REMARK    4  A    between atoms: C_3  and  C_4
REMARK    5  A    between atoms: C_6  and  C_7
REMARK    6  A    between atoms: C_11  and  C_12
REMARK    7  A    between atoms: C_12  and  O_14
REMARK    8  A    between atoms: C_18  and  N_19
REMARK    9  A    between atoms: C_23  and  OXT_25
REMARK                            x       y       z     vdW  Elec       q    Type
REMARK                         _______ _______ _______ _____ _____    ______ ____
ROOT
ATOM      1  C   UNL     1       5.019   4.984  18.193  0.00  0.00    +0.000 A 
ATOM      2  C   UNL     1       4.246   6.147  18.359  0.00  0.00    +0.000 A 
ATOM      3  C   UNL     1       3.023   6.184  19.082  0.00  0.00    +0.000 A 
ATOM      4  C   UNL     1       2.582   4.963  19.659  0.00  0.00    +0.000 A 
ATOM      5 CL   UNL     1       1.058   4.842  20.486  0.00  0.00    +0.000 Cl
ATOM      6  C   UNL     1       3.387   3.819  19.528  0.00  0.00    +0.000 A 
ATOM      7  C   UNL     1       4.580   3.812  18.800  0.00  0.00    +0.000 A 
ENDROOT
BRANCH   3   8
ATOM      8  C   UNL     1       2.303   7.495  19.182  0.00  0.00    +0.000 A 
ATOM      9  C   UNL     1       2.164   8.369  18.089  0.00  0.00    +0.000 A 
ATOM     10  C   UNL     1       1.486   9.591  18.193  0.00  0.00    +0.000 A 
ATOM     11  C   UNL     1       0.866   9.950  19.384  0.00  0.00    +0.000 A 
ATOM     12  C   UNL     1       0.949   9.092  20.482  0.00  0.00    +0.000 A 
ATOM     13  C   UNL     1       1.668   7.889  20.380  0.00  0.00    +0.000 A 
BRANCH  12  14
ATOM     14  C   UNL     1       0.235   9.374  21.754  0.00  0.00    +0.000 C 
ATOM     15  O   UNL     1      -0.622   8.634  22.209  0.00  0.00    +0.000 OA
BRANCH  14  16
ATOM     16  O   UNL     1       0.639  10.499  22.380  0.00  0.00    +0.000 OA
ATOM     17  H   UNL     1       0.383  11.331  21.940  0.00  0.00    +0.000 HD
ENDBRANCH  14  16
ENDBRANCH  12  14
ENDBRANCH   3   8
BRANCH   6  18
ATOM     18  N   UNL     1       3.036   2.573  20.189  0.00  0.00    +0.000 N 
ATOM     19  O   UNL     1       3.428   2.408  21.348  0.00  0.00    +0.000 OA
ATOM     20  O   UNL     1       2.301   1.809  19.554  0.00  0.00    +0.000 OA
ENDBRANCH   6  18
BRANCH   1  21
ATOM     21  C   UNL     1       6.288   5.011  17.375  0.00  0.00    +0.000 C 
BRANCH  21  22
ATOM     22  CA  UNL     1       7.546   5.522  18.099  0.00  0.00    +0.000 C 
BRANCH  22  23
ATOM     23  N   UNL     1       7.584   5.203  19.558  0.00  0.00    +0.000 NA
ATOM     24  H1  UNL     1       8.354   5.730  19.979  0.00  0.00    +0.000 HD
ATOM     25  H2  UNL     1       7.854   4.223  19.671  0.00  0.00    +0.000 HD
ENDBRANCH  22  23
BRANCH  22  26
ATOM     26  C   UNL     1       7.761   7.033  17.923  0.00  0.00    +0.000 C 
ATOM     27  O   UNL     1       7.358   7.707  16.989  0.00  0.00    +0.000 OA
BRANCH  26  28
ATOM     28  OXT UNL     1       8.511   7.539  18.940  0.00  0.00    +0.000 OA
ATOM     29  HXT UNL     1       8.755   8.459  18.673  0.00  0.00    +0.000 HD
ENDBRANCH  26  28
ENDBRANCH  22  26
ENDBRANCH  21  22
ENDBRANCH   1  21
TORSDOF 9
ENDMDL
MODEL 9
REMARK VINA RESULT:      -8.1      1.697      2.186
REMARK  Name = 
REMARK  9 active torsions:
REMARK  status: ('A' for Active; 'I' for Inactive)
REMARK    1  A    between atoms: N_1  and  CA_2
REMARK    2  A    between atoms: CA_2  and  C_3
REMARK    3  A    between atoms: CA_2  and  C_23
REMARK    4  A    between atoms: C_3  and  C_4
REMARK    5  A    between atoms: C_6  and  C_7
REMARK    6  A    between atoms: C_11  and  C_12
REMARK    7  A    between atoms: C_12  and  O_14
REMARK    8  A    between atoms: C_18  and  N_19
REMARK    9  A    between atoms: C_23  and  OXT_25
REMARK                            x       y       z     vdW  Elec       q    Type
REMARK                         _______ _______ _______ _____ _____    ______ ____
ROOT
ATOM      1  C   UNL     1       4.745   5.275  17.196  0.00  0.00    +0.000 A 
ATOM      2  C   UNL     1       3.933   6.245  17.814  0.00  0.00    +0.000 A 
ATOM      3  C   UNL     1       3.064   5.965  18.903  0.00  0.00    +0.000 A 
ATOM      4  C   UNL     1       3.034   4.626  19.373  0.00  0.00    +0.000 A 
ATOM      5 CL   UNL     1       1.946   4.124  20.633  0.00  0.00    +0.000 Cl
ATOM      6  C   UNL     1       3.885   3.677  18.780  0.00  0.00    +0.000 A 
ATOM      7  C   UNL     1       4.720   3.980  17.702  0.00  0.00    +0.000 A 
ENDROOT
BRANCH   3   8
ATOM      8  C   UNL     1       2.258   7.097  19.468  0.00  0.00    +0.000 A 
ATOM      9  C   UNL     1       1.764   7.092  20.785  0.00  0.00    +0.000 A 
ATOM     10  C   UNL     1       1.014   8.155  21.304  0.00  0.00    +0.000 A 
ATOM     11  C   UNL     1       0.789   9.294  20.539  0.00  0.00    +0.000 A 
ATOM     12  C   UNL     1       1.295   9.354  19.240  0.00  0.00    +0.000 A 
ATOM     13  C   UNL     1       2.009   8.263  18.714  0.00  0.00    +0.000 A 
BRANCH  12  14
ATOM     14  C   UNL     1       1.168  10.575  18.403  0.00  0.00    +0.000 C 
ATOM     15  O   UNL     1       0.345  11.446  18.627  0.00  0.00    +0.000 OA
BRANCH  14  16
ATOM     16  O   UNL     1       2.063  10.652  17.396  0.00  0.00    +0.000 OA
ATOM     17  H   UNL     1       2.839  11.216  17.575  0.00  0.00    +0.000 HD
ENDBRANCH  14  16
ENDBRANCH  12  14
ENDBRANCH   3   8
BRANCH   6  18
ATOM     18  N   UNL     1       3.971   2.320  19.293  0.00  0.00    +0.000 N 
ATOM     19  O   UNL     1       3.288   1.454  18.738  0.00  0.00    +0.000 OA
ATOM     20  O   UNL     1       4.788   2.132  20.201  0.00  0.00    +0.000 OA
ENDBRANCH   6  18
BRANCH   1  21
ATOM     21  C   UNL     1       5.613   5.637  16.014  0.00  0.00    +0.000 C 
BRANCH  21  22
ATOM     22  CA  UNL     1       7.118   5.776  16.302  0.00  0.00    +0.000 C 
BRANCH  22  23
ATOM     23  N   UNL     1       7.785   4.501  16.703  0.00  0.00    +0.000 NA
ATOM     24  H1  UNL     1       7.129   3.734  16.536  0.00  0.00    +0.000 HD
ATOM     25  H2  UNL     1       7.919   4.507  17.717  0.00  0.00    +0.000 HD
ENDBRANCH  22  23
BRANCH  22  26
ATOM     26  C   UNL     1       7.424   6.844  17.363  0.00  0.00    +0.000 C 
ATOM     27  O   UNL     1       7.372   8.052  17.196  0.00  0.00    +0.000 OA
BRANCH  26  28
ATOM     28  OXT UNL     1       7.810   6.268  18.535  0.00  0.00    +0.000 OA
ATOM     29  HXT UNL     1       8.746   5.978  18.406  0.00  0.00    +0.000 HD
ENDBRANCH  26  28
ENDBRANCH  22  26
ENDBRANCH  21  22
ENDBRANCH   1  21
TORSDOF 9
ENDMDL
