MODEL 1
REMARK VINA RESULT:      -7.0      0.000      0.000
REMARK  Name = 
REMARK  2 active torsions:
REMARK  status: ('A' for Active; 'I' for Inactive)
REMARK    1  A    between atoms: C_2  and  C_16
REMARK    2  A    between atoms: C_7  and  C_8
REMARK                            x       y       z     vdW  Elec       q    Type
REMARK                         _______ _______ _______ _____ _____    ______ ____
ROOT
ATOM      1  O   UNL     1       8.000  10.435  17.520  0.00  0.00    +0.000 OA
ATOM      2  C   UNL     1       8.771   9.914  18.324  0.00  0.00    +0.000 C 
ATOM      3  N   UNL     1       8.719   8.590  18.715  0.00  0.00    +0.000 N 
ATOM      4  C   UNL     1       7.805   7.733  18.166  0.00  0.00    +0.000 A 
ATOM      5  N   UNL     1       7.056   7.924  17.112  0.00  0.00    +0.000 NA
ATOM      6  C   UNL     1       6.207   6.855  16.954  0.00  0.00    +0.000 A 
ATOM      7  C   UNL     1       6.308   5.849  17.901  0.00  0.00    +0.000 A 
ATOM      8  S   UNL     1       7.604   6.241  18.973  0.00  0.00    +0.000 S 
ATOM      9  H   UNL     1       9.288   8.263  19.480  0.00  0.00    +0.000 HD
ENDROOT
BRANCH   7  10
ATOM     10  C   UNL     1       5.487   4.638  18.031  0.00  0.00    +0.000 A 
ATOM     11  C   UNL     1       4.846   4.107  16.896  0.00  0.00    +0.000 A 
ATOM     12  C   UNL     1       3.972   3.023  17.004  0.00  0.00    +0.000 A 
ATOM     13  C   UNL     1       3.736   2.457  18.249  0.00  0.00    +0.000 A 
ATOM     14  F   UNL     1       2.885   1.429  18.357  0.00  0.00    +0.000 F 
ATOM     15  C   UNL     1       4.365   2.952  19.385  0.00  0.00    +0.000 A 
ATOM     16  C   UNL     1       5.239   4.038  19.278  0.00  0.00    +0.000 A 
ENDBRANCH   7  10
BRANCH   2  17
ATOM     17  C   UNL     1       9.793  10.726  18.979  0.00  0.00    +0.000 A 
ATOM     18  C   UNL     1       9.827  11.040  20.326  0.00  0.00    +0.000 A 
ATOM     19  C   UNL     1      10.913  11.892  20.670  0.00  0.00    +0.000 A 
ATOM     20  C   UNL     1      11.680  12.204  19.570  0.00  0.00    +0.000 A 
ATOM     21  S   UNL     1      11.101  11.450  18.145  0.00  0.00    +0.000 S 
ENDBRANCH   2  17
TORSDOF 2
ENDMDL
MODEL 2
REMARK VINA RESULT:      -7.0      6.457      7.371
REMARK  Name = 
REMARK  2 active torsions:
REMARK  status: ('A' for Active; 'I' for Inactive)
REMARK    1  A    between atoms: C_2  and  C_16
REMARK    2  A    between atoms: C_7  and  C_8
REMARK                            x       y       z     vdW  Elec       q    Type
REMARK                         _______ _______ _______ _____ _____    ______ ____
ROOT
ATOM      1  O   UNL     1       1.137   8.844  22.359  0.00  0.00    +0.000 OA
ATOM      2  C   UNL     1       0.833   9.598  21.437  0.00  0.00    +0.000 C 
ATOM      3  N   UNL     1       1.109   9.359  20.105  0.00  0.00    +0.000 N 
ATOM      4  C   UNL     1       1.712   8.196  19.712  0.00  0.00    +0.000 A 
ATOM      5  N   UNL     1       1.897   7.110  20.416  0.00  0.00    +0.000 NA
ATOM      6  C   UNL     1       2.626   6.207  19.679  0.00  0.00    +0.000 A 
ATOM      7  C   UNL     1       3.004   6.615  18.411  0.00  0.00    +0.000 A 
ATOM      8  S   UNL     1       2.315   8.171  18.115  0.00  0.00    +0.000 S 
ATOM      9  H   UNL     1       0.959  10.081  19.417  0.00  0.00    +0.000 HD
ENDROOT
BRANCH   7  10
ATOM     10  C   UNL     1       3.844   5.904  17.439  0.00  0.00    +0.000 A 
ATOM     11  C   UNL     1       3.835   4.496  17.411  0.00  0.00    +0.000 A 
ATOM     12  C   UNL     1       4.701   3.787  16.576  0.00  0.00    +0.000 A 
ATOM     13  C   UNL     1       5.580   4.480  15.757  0.00  0.00    +0.000 A 
ATOM     14  F   UNL     1       6.424   3.802  14.969  0.00  0.00    +0.000 F 
ATOM     15  C   UNL     1       5.603   5.870  15.753  0.00  0.00    +0.000 A 
ATOM     16  C   UNL     1       4.737   6.581  16.590  0.00  0.00    +0.000 A 
ENDBRANCH   7  10
BRANCH   2  17
ATOM     17  C   UNL     1       0.183  10.873  21.729  0.00  0.00    +0.000 A 
ATOM     18  C   UNL     1      -0.780  11.078  22.702  0.00  0.00    +0.000 A 
ATOM     19  C   UNL     1      -1.271  12.413  22.722  0.00  0.00    +0.000 A 
ATOM     20  C   UNL     1      -0.664  13.191  21.762  0.00  0.00    +0.000 A 
ATOM     21  S   UNL     1       0.503  12.315  20.866  0.00  0.00    +0.000 S 
ENDBRANCH   2  17
TORSDOF 2
ENDMDL
MODEL 3
REMARK VINA RESULT:      -7.0      6.507      7.457
REMARK  Name = 
REMARK  2 active torsions:
REMARK  status: ('A' for Active; 'I' for Inactive)
REMARK    1  A    between atoms: C_2  and  C_16
REMARK    2  A    between atoms: C_7  and  C_8
REMARK                            x       y       z     vdW  Elec       q    Type
REMARK                         _______ _______ _______ _____ _____    ______ ____
ROOT
ATOM      1  O   UNL     1       0.971   8.801  22.308  0.00  0.00    +0.000 OA
ATOM      2  C   UNL     1       0.688   9.548  21.373  0.00  0.00    +0.000 C 
ATOM      3  N   UNL     1       1.022   9.314  20.054  0.00  0.00    +0.000 N 
ATOM      4  C   UNL     1       1.663   8.162  19.687  0.00  0.00    +0.000 A 
ATOM      5  N   UNL     1       1.842   7.081  20.399  0.00  0.00    +0.000 NA
ATOM      6  C   UNL     1       2.618   6.192  19.694  0.00  0.00    +0.000 A 
ATOM      7  C   UNL     1       3.037   6.606  18.440  0.00  0.00    +0.000 A 
ATOM      8  S   UNL     1       2.329   8.148  18.115  0.00  0.00    +0.000 S 
ATOM      9  H   UNL     1       0.885  10.032  19.359  0.00  0.00    +0.000 HD
ENDROOT
BRANCH   7  10
ATOM     10  C   UNL     1       3.929   5.911  17.504  0.00  0.00    +0.000 A 
ATOM     11  C   UNL     1       4.718   6.659  16.610  0.00  0.00    +0.000 A 
ATOM     12  C   UNL     1       5.495   6.029  15.635  0.00  0.00    +0.000 A 
ATOM     13  C   UNL     1       5.493   4.644  15.550  0.00  0.00    +0.000 A 
ATOM     14  F   UNL     1       6.223   4.039  14.604  0.00  0.00    +0.000 F 
ATOM     15  C   UNL     1       4.735   3.879  16.428  0.00  0.00    +0.000 A 
ATOM     16  C   UNL     1       3.955   4.509  17.403  0.00  0.00    +0.000 A 
ENDBRANCH   7  10
BRANCH   2  17
ATOM     17  C   UNL     1       0.002  10.810  21.637  0.00  0.00    +0.000 A 
ATOM     18  C   UNL     1      -0.781  11.081  22.746  0.00  0.00    +0.000 A 
ATOM     19  C   UNL     1      -1.366  12.378  22.708  0.00  0.00    +0.000 A 
ATOM     20  C   UNL     1      -1.009  13.061  21.567  0.00  0.00    +0.000 A 
ATOM     21  S   UNL     1       0.043  12.148  20.570  0.00  0.00    +0.000 S 
ENDBRANCH   2  17
TORSDOF 2
ENDMDL
MODEL 4
REMARK VINA RESULT:      -6.6      0.738      1.430
REMARK  Name = 
REMARK  2 active torsions:
REMARK  status: ('A' for Active; 'I' for Inactive)
REMARK    1  A    between atoms: C_2  and  C_16
REMARK    2  A    between atoms: C_7  and  C_8
REMARK                            x       y       z     vdW  Elec       q    Type
REMARK                         _______ _______ _______ _____ _____    ______ ____
ROOT
ATOM      1  O   UNL     1       7.955  10.409  17.455  0.00  0.00    +0.000 OA
ATOM      2  C   UNL     1       8.720   9.877  18.257  0.00  0.00    +0.000 C 
ATOM      3  N   UNL     1       8.638   8.560  18.663  0.00  0.00    +0.000 N 
ATOM      4  C   UNL     1       7.698   7.720  18.132  0.00  0.00    +0.000 A 
ATOM      5  N   UNL     1       6.945   7.919  17.082  0.00  0.00    +0.000 NA
ATOM      6  C   UNL     1       6.068   6.869  16.943  0.00  0.00    +0.000 A 
ATOM      7  C   UNL     1       6.152   5.871  17.900  0.00  0.00    +0.000 A 
ATOM      8  S   UNL     1       7.467   6.242  18.956  0.00  0.00    +0.000 S 
ATOM      9  H   UNL     1       9.206   8.226  19.427  0.00  0.00    +0.000 HD
ENDROOT
BRANCH   7  10
ATOM     10  C   UNL     1       5.302   4.683  18.051  0.00  0.00    +0.000 A 
ATOM     11  C   UNL     1       5.158   4.088  19.319  0.00  0.00    +0.000 A 
ATOM     12  C   UNL     1       4.446   2.897  19.478  0.00  0.00    +0.000 A 
ATOM     13  C   UNL     1       3.867   2.294  18.371  0.00  0.00    +0.000 A 
ATOM     14  F   UNL     1       3.200   1.142  18.519  0.00  0.00    +0.000 F 
ATOM     15  C   UNL     1       3.982   2.865  17.110  0.00  0.00    +0.000 A 
ATOM     16  C   UNL     1       4.695   4.057  16.948  0.00  0.00    +0.000 A 
ENDBRANCH   7  10
BRANCH   2  17
ATOM     17  C   UNL     1       9.768  10.671  18.894  0.00  0.00    +0.000 A 
ATOM     18  C   UNL     1      10.951  11.065  18.295  0.00  0.00    +0.000 A 
ATOM     19  C   UNL     1      11.805  11.785  19.176  0.00  0.00    +0.000 A 
ATOM     20  C   UNL     1      11.245  11.922  20.426  0.00  0.00    +0.000 A 
ATOM     21  S   UNL     1       9.692  11.205  20.518  0.00  0.00    +0.000 S 
ENDBRANCH   2  17
TORSDOF 2
ENDMDL
MODEL 5
REMARK VINA RESULT:      -6.6      6.838      7.559
REMARK  Name = 
REMARK  2 active torsions:
REMARK  status: ('A' for Active; 'I' for Inactive)
REMARK    1  A    between atoms: C_2  and  C_16
REMARK    2  A    between atoms: C_7  and  C_8
REMARK                            x       y       z     vdW  Elec       q    Type
REMARK                         _______ _______ _______ _____ _____    ______ ____
ROOT
ATOM      1  O   UNL     1       0.847  10.091  22.167  0.00  0.00    +0.000 OA
ATOM      2  C   UNL     1       0.521  10.676  21.136  0.00  0.00    +0.000 C 
ATOM      3  N   UNL     1       0.765  10.210  19.860  0.00  0.00    +0.000 N 
ATOM      4  C   UNL     1       1.357   8.993  19.660  0.00  0.00    +0.000 A 
ATOM      5  N   UNL     1       1.559   8.044  20.536  0.00  0.00    +0.000 NA
ATOM      6  C   UNL     1       2.269   7.024  19.950  0.00  0.00    +0.000 A 
ATOM      7  C   UNL     1       2.617   7.204  18.621  0.00  0.00    +0.000 A 
ATOM      8  S   UNL     1       1.923   8.689  18.077  0.00  0.00    +0.000 S 
ATOM      9  H   UNL     1       0.600  10.802  19.061  0.00  0.00    +0.000 HD
ENDROOT
BRANCH   7  10
ATOM     10  C   UNL     1       3.433   6.331  17.769  0.00  0.00    +0.000 A 
ATOM     11  C   UNL     1       3.199   4.943  17.769  0.00  0.00    +0.000 A 
ATOM     12  C   UNL     1       4.026   4.074  17.054  0.00  0.00    +0.000 A 
ATOM     13  C   UNL     1       5.091   4.586  16.328  0.00  0.00    +0.000 A 
ATOM     14  F   UNL     1       5.896   3.753  15.657  0.00  0.00    +0.000 F 
ATOM     15  C   UNL     1       5.338   5.953  16.298  0.00  0.00    +0.000 A 
ATOM     16  C   UNL     1       4.512   6.825  17.014  0.00  0.00    +0.000 A 
ENDBRANCH   7  10
BRANCH   2  17
ATOM     17  C   UNL     1      -0.120  11.986  21.218  0.00  0.00    +0.000 A 
ATOM     18  C   UNL     1      -0.611  12.568  22.374  0.00  0.00    +0.000 A 
ATOM     19  C   UNL     1      -1.230  13.827  22.141  0.00  0.00    +0.000 A 
ATOM     20  C   UNL     1      -1.193  14.171  20.808  0.00  0.00    +0.000 A 
ATOM     21  S   UNL     1      -0.392  12.991  19.860  0.00  0.00    +0.000 S 
ENDBRANCH   2  17
TORSDOF 2
ENDMDL
MODEL 6
REMARK VINA RESULT:      -6.6      7.486      8.381
REMARK  Name = 
REMARK  2 active torsions:
REMARK  status: ('A' for Active; 'I' for Inactive)
REMARK    1  A    between atoms: C_2  and  C_16
REMARK    2  A    between atoms: C_7  and  C_8
REMARK                            x       y       z     vdW  Elec       q    Type
REMARK                         _______ _______ _______ _____ _____    ______ ____
ROOT
ATOM      1  O   UNL     1      -0.892  11.749  19.030  0.00  0.00    +0.000 OA
ATOM      2  C   UNL     1      -0.779  11.308  20.172  0.00  0.00    +0.000 C 
ATOM      3  N   UNL     1       0.052  10.266  20.531  0.00  0.00    +0.000 N 
ATOM      4  C   UNL     1       0.875   9.676  19.611  0.00  0.00    +0.000 A 
ATOM      5  N   UNL     1       1.172  10.101  18.411  0.00  0.00    +0.000 NA
ATOM      6  C   UNL     1       1.957   9.167  17.778  0.00  0.00    +0.000 A 
ATOM      7  C   UNL     1       2.249   8.022  18.500  0.00  0.00    +0.000 A 
ATOM      8  S   UNL     1       1.577   8.193  20.081  0.00  0.00    +0.000 S 
ATOM      9  H   UNL     1      -0.008   9.862  21.453  0.00  0.00    +0.000 HD
ENDROOT
BRANCH   7  10
ATOM     10  C   UNL     1       2.989   6.833  18.058  0.00  0.00    +0.000 A 
ATOM     11  C   UNL     1       4.200   6.988  17.357  0.00  0.00    +0.000 A 
ATOM     12  C   UNL     1       4.873   5.884  16.829  0.00  0.00    +0.000 A 
ATOM     13  C   UNL     1       4.342   4.614  17.002  0.00  0.00    +0.000 A 
ATOM     14  F   UNL     1       4.976   3.556  16.481  0.00  0.00    +0.000 F 
ATOM     15  C   UNL     1       3.156   4.429  17.701  0.00  0.00    +0.000 A 
ATOM     16  C   UNL     1       2.480   5.534  18.229  0.00  0.00    +0.000 A 
ENDBRANCH   7  10
BRANCH   2  17
ATOM     17  C   UNL     1      -1.605  11.857  21.245  0.00  0.00    +0.000 A 
ATOM     18  C   UNL     1      -1.456  11.581  22.592  0.00  0.00    +0.000 A 
ATOM     19  C   UNL     1      -2.439  12.218  23.400  0.00  0.00    +0.000 A 
ATOM     20  C   UNL     1      -3.311  12.966  22.642  0.00  0.00    +0.000 A 
ATOM     21  S   UNL     1      -2.924  12.914  20.974  0.00  0.00    +0.000 S 
ENDBRANCH   2  17
TORSDOF 2
ENDMDL
MODEL 7
REMARK VINA RESULT:      -6.6      6.702      8.480
REMARK  Name = 
REMARK  2 active torsions:
REMARK  status: ('A' for Active; 'I' for Inactive)
REMARK    1  A    between atoms: C_2  and  C_16
REMARK    2  A    between atoms: C_7  and  C_8
REMARK                            x       y       z     vdW  Elec       q    Type
REMARK                         _______ _______ _______ _____ _____    ______ ____
ROOT
ATOM      1  O   UNL     1       3.801   5.175  18.989  0.00  0.00    +0.000 OA
ATOM      2  C   UNL     1       4.119   5.843  18.007  0.00  0.00    +0.000 C 
ATOM      3  N   UNL     1       3.612   7.092  17.711  0.00  0.00    +0.000 N 
ATOM      4  C   UNL     1       2.733   7.710  18.558  0.00  0.00    +0.000 A 
ATOM      5  N   UNL     1       2.430   7.377  19.785  0.00  0.00    +0.000 NA
ATOM      6  C   UNL     1       1.433   8.201  20.250  0.00  0.00    +0.000 A 
ATOM      7  C   UNL     1       0.970   9.161  19.365  0.00  0.00    +0.000 A 
ATOM      8  S   UNL     1       1.915   9.068  17.923  0.00  0.00    +0.000 S 
ATOM      9  H   UNL     1       3.807   7.523  16.820  0.00  0.00    +0.000 HD
ENDROOT
BRANCH   7  10
ATOM     10  C   UNL     1      -0.129  10.116  19.554  0.00  0.00    +0.000 A 
ATOM     11  C   UNL     1      -1.005  10.388  18.486  0.00  0.00    +0.000 A 
ATOM     12  C   UNL     1      -1.992  11.369  18.597  0.00  0.00    +0.000 A 
ATOM     13  C   UNL     1      -2.116  12.084  19.780  0.00  0.00    +0.000 A 
ATOM     14  F   UNL     1      -3.050  13.038  19.881  0.00  0.00    +0.000 F 
ATOM     15  C   UNL     1      -1.274  11.828  20.855  0.00  0.00    +0.000 A 
ATOM     16  C   UNL     1      -0.284  10.847  20.745  0.00  0.00    +0.000 A 
ENDBRANCH   7  10
BRANCH   2  17
ATOM     17  C   UNL     1       5.052   5.291  17.027  0.00  0.00    +0.000 A 
ATOM     18  C   UNL     1       4.799   4.214  16.197  0.00  0.00    +0.000 A 
ATOM     19  C   UNL     1       5.914   3.868  15.383  0.00  0.00    +0.000 A 
ATOM     20  C   UNL     1       6.989   4.696  15.617  0.00  0.00    +0.000 A 
ATOM     21  S   UNL     1       6.637   5.893  16.791  0.00  0.00    +0.000 S 
ENDBRANCH   2  17
TORSDOF 2
ENDMDL
MODEL 8
REMARK VINA RESULT:      -6.6      6.484      7.234
REMARK  Name = 
REMARK  2 active torsions:
REMARK  status: ('A' for Active; 'I' for Inactive)
REMARK    1  A    between atoms: C_2  and  C_16
REMARK    2  A    between atoms: C_7  and  C_8
REMARK                            x       y       z     vdW  Elec       q    Type
REMARK                         _______ _______ _______ _____ _____    ______ ____
ROOT
ATOM      1  O   UNL     1       0.427  10.824  18.972  0.00  0.00    +0.000 OA
ATOM      2  C   UNL     1       0.450  10.513  20.161  0.00  0.00    +0.000 C 
ATOM      3  N   UNL     1       0.996   9.344  20.654  0.00  0.00    +0.000 N 
ATOM      4  C   UNL     1       1.619   8.455  19.822  0.00  0.00    +0.000 A 
ATOM      5  N   UNL     1       1.986   8.639  18.581  0.00  0.00    +0.000 NA
ATOM      6  C   UNL     1       2.491   7.464  18.075  0.00  0.00    +0.000 A 
ATOM      7  C   UNL     1       2.498   6.380  18.937  0.00  0.00    +0.000 A 
ATOM      8  S   UNL     1       1.930   6.910  20.479  0.00  0.00    +0.000 S 
ATOM      9  H   UNL     1       0.857   9.085  21.619  0.00  0.00    +0.000 HD
ENDROOT
BRANCH   7  10
ATOM     10  C   UNL     1       2.899   4.996  18.653  0.00  0.00    +0.000 A 
ATOM     11  C   UNL     1       2.131   4.218  17.765  0.00  0.00    +0.000 A 
ATOM     12  C   UNL     1       2.421   2.868  17.557  0.00  0.00    +0.000 A 
ATOM     13  C   UNL     1       3.484   2.285  18.231  0.00  0.00    +0.000 A 
ATOM     14  F   UNL     1       3.752   0.986  18.046  0.00  0.00    +0.000 F 
ATOM     15  C   UNL     1       4.268   3.031  19.103  0.00  0.00    +0.000 A 
ATOM     16  C   UNL     1       3.978   4.383  19.314  0.00  0.00    +0.000 A 
ENDBRANCH   7  10
BRANCH   2  17
ATOM     17  C   UNL     1      -0.182  11.382  21.150  0.00  0.00    +0.000 A 
ATOM     18  C   UNL     1      -0.800  10.957  22.313  0.00  0.00    +0.000 A 
ATOM     19  C   UNL     1      -1.373  12.025  23.058  0.00  0.00    +0.000 A 
ATOM     20  C   UNL     1      -1.174  13.239  22.439  0.00  0.00    +0.000 A 
ATOM     21  S   UNL     1      -0.280  13.083  20.987  0.00  0.00    +0.000 S 
ENDBRANCH   2  17
TORSDOF 2
ENDMDL
MODEL 9
REMARK VINA RESULT:      -6.6      6.684      8.528
REMARK  Name = 
REMARK  2 active torsions:
REMARK  status: ('A' for Active; 'I' for Inactive)
REMARK    1  A    between atoms: C_2  and  C_16
REMARK    2  A    between atoms: C_7  and  C_8
REMARK                            x       y       z     vdW  Elec       q    Type
REMARK                         _______ _______ _______ _____ _____    ______ ____
ROOT
ATOM      1  O   UNL     1       3.699   5.171  18.844  0.00  0.00    +0.000 OA
ATOM      2  C   UNL     1       4.107   5.860  17.911  0.00  0.00    +0.000 C 
ATOM      3  N   UNL     1       3.676   7.143  17.637  0.00  0.00    +0.000 N 
ATOM      4  C   UNL     1       2.774   7.769  18.453  0.00  0.00    +0.000 A 
ATOM      5  N   UNL     1       2.381   7.403  19.645  0.00  0.00    +0.000 NA
ATOM      6  C   UNL     1       1.394   8.254  20.082  0.00  0.00    +0.000 A 
ATOM      7  C   UNL     1       1.031   9.268  19.211  0.00  0.00    +0.000 A 
ATOM      8  S   UNL     1       2.059   9.187  17.826  0.00  0.00    +0.000 S 
ATOM      9  H   UNL     1       3.945   7.598  16.778  0.00  0.00    +0.000 HD
ENDROOT
BRANCH   7  10
ATOM     10  C   UNL     1      -0.034  10.266  19.372  0.00  0.00    +0.000 A 
ATOM     11  C   UNL     1      -0.142  10.979  20.582  0.00  0.00    +0.000 A 
ATOM     12  C   UNL     1      -1.206  11.855  20.808  0.00  0.00    +0.000 A 
ATOM     13  C   UNL     1      -2.168  12.030  19.824  0.00  0.00    +0.000 A 
ATOM     14  F   UNL     1      -3.199  12.856  20.047  0.00  0.00    +0.000 F 
ATOM     15  C   UNL     1      -2.080  11.351  18.615  0.00  0.00    +0.000 A 
ATOM     16  C   UNL     1      -1.016  10.472  18.388  0.00  0.00    +0.000 A 
ENDBRANCH   7  10
BRANCH   2  17
ATOM     17  C   UNL     1       5.074   5.304  16.968  0.00  0.00    +0.000 A 
ATOM     18  C   UNL     1       4.864   4.199  16.161  0.00  0.00    +0.000 A 
ATOM     19  C   UNL     1       6.004   3.856  15.383  0.00  0.00    +0.000 A 
ATOM     20  C   UNL     1       7.055   4.713  15.619  0.00  0.00    +0.000 A 
ATOM     21  S   UNL     1       6.651   5.933  16.752  0.00  0.00    +0.000 S 
ENDBRANCH   2  17
TORSDOF 2
ENDMDL
