MODEL 1
REMARK VINA RESULT:      -8.6      0.000      0.000
REMARK  Name = 
REMARK  5 active torsions:
REMARK  status: ('A' for Active; 'I' for Inactive)
REMARK    1  A    between atoms: C_2  and  C_3
REMARK    2  A    between atoms: C_3  and  C_4
REMARK    3  A    between atoms: N_10  and  C_11
REMARK    4  A    between atoms: C_11  and  C_12
REMARK    5  A    between atoms: N_20  and  C_21
REMARK                            x       y       z     vdW  Elec       q    Type
REMARK                         _______ _______ _______ _____ _____    ______ ____
ROOT
ATOM      1  C   UNL     1       4.640   6.563  17.794  0.00  0.00    +0.000 C 
ATOM      2  C   UNL     1       5.472   6.603  16.489  0.00  0.00    +0.000 C 
ATOM      3  O   UNL     1       5.064   7.123  15.454  0.00  0.00    +0.000 OA
ATOM      4  N   UNL     1       6.762   6.157  16.538  0.00  0.00    +0.000 N 
ATOM      5  C   UNL     1       7.236   5.266  17.575  0.00  0.00    +0.000 C 
ATOM      6  C   UNL     1       6.499   5.496  18.892  0.00  0.00    +0.000 C 
ATOM      7  N   UNL     1       5.023   5.468  18.727  0.00  0.00    +0.000 NA
ATOM      8  H   UNL     1       7.259   6.167  15.656  0.00  0.00    +0.000 HD
ENDROOT
BRANCH   1   9
ATOM      9  C   UNL     1       3.145   6.833  17.571  0.00  0.00    +0.000 C 
BRANCH   9  11
ATOM     10  O   UNL     1       2.326   7.388  19.746  0.00  0.00    +0.000 OA
ATOM     11  C   UNL     1       2.405   7.706  18.564  0.00  0.00    +0.000 C 
ATOM     12  N   UNL     1       1.906   8.886  18.062  0.00  0.00    +0.000 N 
ATOM     13  H   UNL     1       2.252   9.162  17.143  0.00  0.00    +0.000 HD
BRANCH  12  14
ATOM     14  C   UNL     1       1.377   9.960  18.906  0.00  0.00    +0.000 C 
ATOM     15  C   UNL     1       1.817  11.303  18.299  0.00  0.00    +0.000 C 
ATOM     16  C   UNL     1       1.545  12.527  19.167  0.00  0.00    +0.000 C 
ATOM     17  C   UNL     1       0.100  13.018  19.277  0.00  0.00    +0.000 C 
ATOM     18  C   UNL     1      -0.747  12.876  18.013  0.00  0.00    +0.000 C 
ATOM     19  C   UNL     1      -1.644  11.636  17.966  0.00  0.00    +0.000 C 
ATOM     20  C   UNL     1      -1.003  10.243  17.914  0.00  0.00    +0.000 C 
ATOM     21  C   UNL     1      -0.144   9.845  19.119  0.00  0.00    +0.000 C 
ENDBRANCH  12  14
ENDBRANCH   9  11
ENDBRANCH   1   9
BRANCH   7  22
ATOM     22  C   UNL     1       4.491   4.119  18.412  0.00  0.00    +0.000 C 
BRANCH  22  23
ATOM     23  C   UNL     1       3.230   3.878  19.239  0.00  0.00    +0.000 A 
ATOM     24  C   UNL     1       3.151   4.553  20.477  0.00  0.00    +0.000 A 
ATOM     25  C   UNL     1       2.355   4.050  21.500  0.00  0.00    +0.000 A 
ATOM     26  C   UNL     1       1.589   2.916  21.270  0.00  0.00    +0.000 A 
ATOM     27  F   UNL     1       0.923   2.357  22.287  0.00  0.00    +0.000 F 
ATOM     28  C   UNL     1       1.530   2.331  20.010  0.00  0.00    +0.000 A 
ATOM     29  C   UNL     1       2.333   2.827  18.982  0.00  0.00    +0.000 A 
ATOM     30 CL   UNL     1       2.238   2.045  17.447  0.00  0.00    +0.000 Cl
ENDBRANCH  22  23
ENDBRANCH   7  22
TORSDOF 5
ENDMDL
MODEL 2
REMARK VINA RESULT:      -8.5      0.973      1.070
REMARK  Name = 
REMARK  5 active torsions:
REMARK  status: ('A' for Active; 'I' for Inactive)
REMARK    1  A    between atoms: C_2  and  C_3
REMARK    2  A    between atoms: C_3  and  C_4
REMARK    3  A    between atoms: N_10  and  C_11
REMARK    4  A    between atoms: C_11  and  C_12
REMARK    5  A    between atoms: N_20  and  C_21
REMARK                            x       y       z     vdW  Elec       q    Type
REMARK                         _______ _______ _______ _____ _____    ______ ____
ROOT
ATOM      1  C   UNL     1       4.418   6.335  17.727  0.00  0.00    +0.000 C 
ATOM      2  C   UNL     1       5.337   6.515  16.494  0.00  0.00    +0.000 C 
ATOM      3  O   UNL     1       5.058   7.258  15.557  0.00  0.00    +0.000 OA
ATOM      4  N   UNL     1       6.567   5.921  16.520  0.00  0.00    +0.000 N 
ATOM      5  C   UNL     1       6.873   4.809  17.392  0.00  0.00    +0.000 C 
ATOM      6  C   UNL     1       6.077   4.880  18.693  0.00  0.00    +0.000 C 
ATOM      7  N   UNL     1       4.621   5.052  18.455  0.00  0.00    +0.000 NA
ATOM      8  H   UNL     1       7.122   6.035  15.680  0.00  0.00    +0.000 HD
ENDROOT
BRANCH   1   9
ATOM      9  C   UNL     1       2.979   6.812  17.488  0.00  0.00    +0.000 C 
BRANCH   9  11
ATOM     10  O   UNL     1       2.286   7.365  19.707  0.00  0.00    +0.000 OA
ATOM     11  C   UNL     1       2.321   7.697  18.527  0.00  0.00    +0.000 C 
ATOM     12  N   UNL     1       1.845   8.903  18.065  0.00  0.00    +0.000 N 
ATOM     13  H   UNL     1       2.157   9.180  17.134  0.00  0.00    +0.000 HD
BRANCH  12  14
ATOM     14  C   UNL     1       1.399   9.983  18.947  0.00  0.00    +0.000 C 
ATOM     15  C   UNL     1       1.863  11.317  18.340  0.00  0.00    +0.000 C 
ATOM     16  C   UNL     1       1.680  12.538  19.236  0.00  0.00    +0.000 C 
ATOM     17  C   UNL     1       0.262  13.082  19.420  0.00  0.00    +0.000 C 
ATOM     18  C   UNL     1      -0.647  12.994  18.196  0.00  0.00    +0.000 C 
ATOM     19  C   UNL     1      -1.594  11.790  18.174  0.00  0.00    +0.000 C 
ATOM     20  C   UNL     1      -1.012  10.375  18.072  0.00  0.00    +0.000 C 
ATOM     21  C   UNL     1      -0.114   9.925  19.230  0.00  0.00    +0.000 C 
ENDBRANCH  12  14
ENDBRANCH   9  11
ENDBRANCH   1   9
BRANCH   7  22
ATOM     22  C   UNL     1       3.973   3.854  17.867  0.00  0.00    +0.000 C 
BRANCH  22  23
ATOM     23  C   UNL     1       3.035   3.238  18.903  0.00  0.00    +0.000 A 
ATOM     24  C   UNL     1       1.718   3.747  18.940  0.00  0.00    +0.000 A 
ATOM     25  C   UNL     1       0.963   3.655  20.104  0.00  0.00    +0.000 A 
ATOM     26  C   UNL     1       1.493   3.000  21.207  0.00  0.00    +0.000 A 
ATOM     27  F   UNL     1       0.824   3.021  22.366  0.00  0.00    +0.000 F 
ATOM     28  C   UNL     1       2.722   2.355  21.139  0.00  0.00    +0.000 A 
ATOM     29  C   UNL     1       3.488   2.451  19.976  0.00  0.00    +0.000 A 
ATOM     30 CL   UNL     1       5.016   1.652  19.958  0.00  0.00    +0.000 Cl
ENDBRANCH  22  23
ENDBRANCH   7  22
TORSDOF 5
ENDMDL
MODEL 3
REMARK VINA RESULT:      -8.1      2.895      4.860
REMARK  Name = 
REMARK  5 active torsions:
REMARK  status: ('A' for Active; 'I' for Inactive)
REMARK    1  A    between atoms: C_2  and  C_3
REMARK    2  A    between atoms: C_3  and  C_4
REMARK    3  A    between atoms: N_10  and  C_11
REMARK    4  A    between atoms: C_11  and  C_12
REMARK    5  A    between atoms: N_20  and  C_21
REMARK                            x       y       z     vdW  Elec       q    Type
REMARK                         _______ _______ _______ _____ _____    ______ ____
ROOT
ATOM      1  C   UNL     1       2.019   5.604  18.900  0.00  0.00    +0.000 C 
ATOM      2  C   UNL     1       1.493   5.200  20.299  0.00  0.00    +0.000 C 
ATOM      3  O   UNL     1       1.487   5.969  21.257  0.00  0.00    +0.000 OA
ATOM      4  N   UNL     1       0.892   3.980  20.429  0.00  0.00    +0.000 N 
ATOM      5  C   UNL     1       1.112   2.903  19.490  0.00  0.00    +0.000 C 
ATOM      6  C   UNL     1       1.379   3.430  18.083  0.00  0.00    +0.000 C 
ATOM      7  N   UNL     1       2.454   4.456  18.058  0.00  0.00    +0.000 NA
ATOM      8  H   UNL     1       0.594   3.741  21.368  0.00  0.00    +0.000 HD
ENDROOT
BRANCH   1   9
ATOM      9  C   UNL     1       2.900   6.861  18.921  0.00  0.00    +0.000 C 
BRANCH   9  11
ATOM     10  O   UNL     1       2.642   8.379  17.093  0.00  0.00    +0.000 OA
ATOM     11  C   UNL     1       2.383   8.125  18.265  0.00  0.00    +0.000 C 
ATOM     12  N   UNL     1       1.564   8.908  19.047  0.00  0.00    +0.000 N 
ATOM     13  H   UNL     1       1.214   8.475  19.900  0.00  0.00    +0.000 HD
BRANCH  12  14
ATOM     14  C   UNL     1       0.783  10.030  18.521  0.00  0.00    +0.000 C 
ATOM     15  C   UNL     1      -0.692   9.795  18.884  0.00  0.00    +0.000 C 
ATOM     16  C   UNL     1      -1.683  10.751  18.225  0.00  0.00    +0.000 C 
ATOM     17  C   UNL     1      -1.752  12.184  18.755  0.00  0.00    +0.000 C 
ATOM     18  C   UNL     1      -1.546  12.346  20.260  0.00  0.00    +0.000 C 
ATOM     19  C   UNL     1      -0.126  12.733  20.685  0.00  0.00    +0.000 C 
ATOM     20  C   UNL     1       1.027  11.750  20.447  0.00  0.00    +0.000 C 
ATOM     21  C   UNL     1       1.326  11.394  18.987  0.00  0.00    +0.000 C 
ENDBRANCH  12  14
ENDBRANCH   9  11
ENDBRANCH   1   9
BRANCH   7  22
ATOM     22  C   UNL     1       3.801   3.905  18.344  0.00  0.00    +0.000 C 
BRANCH  22  23
ATOM     23  C   UNL     1       4.805   4.521  17.371  0.00  0.00    +0.000 A 
ATOM     24  C   UNL     1       4.532   4.352  15.996  0.00  0.00    +0.000 A 
ATOM     25  C   UNL     1       5.564   4.400  15.065  0.00  0.00    +0.000 A 
ATOM     26  C   UNL     1       6.853   4.681  15.495  0.00  0.00    +0.000 A 
ATOM     27  F   UNL     1       7.867   4.602  14.624  0.00  0.00    +0.000 F 
ATOM     28  C   UNL     1       7.116   5.007  16.820  0.00  0.00    +0.000 A 
ATOM     29  C   UNL     1       6.085   4.951  17.760  0.00  0.00    +0.000 A 
ATOM     30 CL   UNL     1       6.474   5.341  19.395  0.00  0.00    +0.000 Cl
ENDBRANCH  22  23
ENDBRANCH   7  22
TORSDOF 5
ENDMDL
MODEL 4
REMARK VINA RESULT:      -8.1      2.658      4.597
REMARK  Name = 
REMARK  5 active torsions:
REMARK  status: ('A' for Active; 'I' for Inactive)
REMARK    1  A    between atoms: C_2  and  C_3
REMARK    2  A    between atoms: C_3  and  C_4
REMARK    3  A    between atoms: N_10  and  C_11
REMARK    4  A    between atoms: C_11  and  C_12
REMARK    5  A    between atoms: N_20  and  C_21
REMARK                            x       y       z     vdW  Elec       q    Type
REMARK                         _______ _______ _______ _____ _____    ______ ____
ROOT
ATOM      1  C   UNL     1       2.479   5.113  18.650  0.00  0.00    +0.000 C 
ATOM      2  C   UNL     1       1.549   4.406  19.666  0.00  0.00    +0.000 C 
ATOM      3  O   UNL     1       1.021   4.994  20.607  0.00  0.00    +0.000 OA
ATOM      4  N   UNL     1       1.202   3.108  19.422  0.00  0.00    +0.000 N 
ATOM      5  C   UNL     1       1.977   2.248  18.555  0.00  0.00    +0.000 C 
ATOM      6  C   UNL     1       2.653   3.038  17.438  0.00  0.00    +0.000 C 
ATOM      7  N   UNL     1       3.425   4.198  17.953  0.00  0.00    +0.000 NA
ATOM      8  H   UNL     1       0.621   2.673  20.129  0.00  0.00    +0.000 HD
ENDROOT
BRANCH   1   9
ATOM      9  C   UNL     1       3.013   6.462  19.150  0.00  0.00    +0.000 C 
BRANCH   9  11
ATOM     10  O   UNL     1       3.054   7.935  17.268  0.00  0.00    +0.000 OA
ATOM     11  C   UNL     1       2.630   7.721  18.400  0.00  0.00    +0.000 C 
ATOM     12  N   UNL     1       1.737   8.549  19.043  0.00  0.00    +0.000 N 
ATOM     13  H   UNL     1       1.261   8.149  19.851  0.00  0.00    +0.000 HD
BRANCH  12  14
ATOM     14  C   UNL     1       1.071   9.677  18.388  0.00  0.00    +0.000 C 
ATOM     15  C   UNL     1      -0.447   9.448  18.473  0.00  0.00    +0.000 C 
ATOM     16  C   UNL     1      -1.295  10.411  17.649  0.00  0.00    +0.000 C 
ATOM     17  C   UNL     1      -1.455  11.842  18.164  0.00  0.00    +0.000 C 
ATOM     18  C   UNL     1      -1.528  11.997  19.683  0.00  0.00    +0.000 C 
ATOM     19  C   UNL     1      -0.209  12.375  20.363  0.00  0.00    +0.000 C 
ATOM     20  C   UNL     1       0.964  11.387  20.336  0.00  0.00    +0.000 C 
ATOM     21  C   UNL     1       1.525  11.036  18.953  0.00  0.00    +0.000 C 
ENDBRANCH  12  14
ENDBRANCH   9  11
ENDBRANCH   1   9
BRANCH   7  22
ATOM     22  C   UNL     1       4.640   3.808  18.710  0.00  0.00    +0.000 C 
BRANCH  22  23
ATOM     23  C   UNL     1       5.832   4.598  18.175  0.00  0.00    +0.000 A 
ATOM     24  C   UNL     1       6.627   5.263  19.134  0.00  0.00    +0.000 A 
ATOM     25  C   UNL     1       7.382   6.374  18.772  0.00  0.00    +0.000 A 
ATOM     26  C   UNL     1       7.397   6.781  17.446  0.00  0.00    +0.000 A 
ATOM     27  F   UNL     1       8.017   7.921  17.116  0.00  0.00    +0.000 F 
ATOM     28  C   UNL     1       6.749   6.046  16.460  0.00  0.00    +0.000 A 
ATOM     29  C   UNL     1       5.983   4.935  16.819  0.00  0.00    +0.000 A 
ATOM     30 CL   UNL     1       5.181   4.077  15.556  0.00  0.00    +0.000 Cl
ENDBRANCH  22  23
ENDBRANCH   7  22
TORSDOF 5
ENDMDL
MODEL 5
REMARK VINA RESULT:      -8.1      4.004      8.637
REMARK  Name = 
REMARK  5 active torsions:
REMARK  status: ('A' for Active; 'I' for Inactive)
REMARK    1  A    between atoms: C_2  and  C_3
REMARK    2  A    between atoms: C_3  and  C_4
REMARK    3  A    between atoms: N_10  and  C_11
REMARK    4  A    between atoms: C_11  and  C_12
REMARK    5  A    between atoms: N_20  and  C_21
REMARK                            x       y       z     vdW  Elec       q    Type
REMARK                         _______ _______ _______ _____ _____    ______ ____
ROOT
ATOM      1  C   UNL     1       0.881  11.505  19.217  0.00  0.00    +0.000 C 
ATOM      2  C   UNL     1       1.081  12.511  20.376  0.00  0.00    +0.000 C 
ATOM      3  O   UNL     1       1.799  12.278  21.345  0.00  0.00    +0.000 OA
ATOM      4  N   UNL     1       0.538  13.758  20.243  0.00  0.00    +0.000 N 
ATOM      5  C   UNL     1      -0.548  14.038  19.331  0.00  0.00    +0.000 C 
ATOM      6  C   UNL     1      -0.492  13.138  18.098  0.00  0.00    +0.000 C 
ATOM      7  N   UNL     1      -0.383  11.700  18.453  0.00  0.00    +0.000 NA
ATOM      8  H   UNL     1       0.662  14.373  21.039  0.00  0.00    +0.000 HD
ENDROOT
BRANCH   1   9
ATOM      9  C   UNL     1       1.295  10.072  19.577  0.00  0.00    +0.000 C 
BRANCH   9  11
ATOM     10  O   UNL     1       1.682   9.488  17.291  0.00  0.00    +0.000 OA
ATOM     11  C   UNL     1       1.650   9.112  18.459  0.00  0.00    +0.000 C 
ATOM     12  N   UNL     1       1.994   7.840  18.855  0.00  0.00    +0.000 N 
ATOM     13  H   UNL     1       2.182   7.717  19.849  0.00  0.00    +0.000 HD
BRANCH  12  14
ATOM     14  C   UNL     1       2.592   6.851  17.954  0.00  0.00    +0.000 C 
ATOM     15  C   UNL     1       4.064   7.238  17.732  0.00  0.00    +0.000 C 
ATOM     16  C   UNL     1       4.786   6.448  16.646  0.00  0.00    +0.000 C 
ATOM     17  C   UNL     1       5.183   5.004  16.958  0.00  0.00    +0.000 C 
ATOM     18  C   UNL     1       5.611   4.729  18.399  0.00  0.00    +0.000 C 
ATOM     19  C   UNL     1       4.518   4.152  19.304  0.00  0.00    +0.000 C 
ATOM     20  C   UNL     1       3.287   5.004  19.637  0.00  0.00    +0.000 C 
ATOM     21  C   UNL     1       2.400   5.407  18.455  0.00  0.00    +0.000 C 
ENDBRANCH  12  14
ENDBRANCH   9  11
ENDBRANCH   1   9
BRANCH   7  22
ATOM     22  C   UNL     1      -1.614  11.149  19.069  0.00  0.00    +0.000 C 
BRANCH  22  23
ATOM     23  C   UNL     1      -2.546  10.659  17.963  0.00  0.00    +0.000 A 
ATOM     24  C   UNL     1      -1.975   9.810  16.990  0.00  0.00    +0.000 A 
ATOM     25  C   UNL     1      -2.536   9.721  15.721  0.00  0.00    +0.000 A 
ATOM     26  C   UNL     1      -3.700  10.423  15.442  0.00  0.00    +0.000 A 
ATOM     27  F   UNL     1      -4.171  10.441  14.189  0.00  0.00    +0.000 F 
ATOM     28  C   UNL     1      -4.365  11.136  16.432  0.00  0.00    +0.000 A 
ATOM     29  C   UNL     1      -3.801  11.236  17.706  0.00  0.00    +0.000 A 
ATOM     30 CL   UNL     1      -4.658  12.156  18.887  0.00  0.00    +0.000 Cl
ENDBRANCH  22  23
ENDBRANCH   7  22
TORSDOF 5
ENDMDL
MODEL 6
REMARK VINA RESULT:      -8.0      4.307      5.804
REMARK  Name = 
REMARK  5 active torsions:
REMARK  status: ('A' for Active; 'I' for Inactive)
REMARK    1  A    between atoms: C_2  and  C_3
REMARK    2  A    between atoms: C_3  and  C_4
REMARK    3  A    between atoms: N_10  and  C_11
REMARK    4  A    between atoms: C_11  and  C_12
REMARK    5  A    between atoms: N_20  and  C_21
REMARK                            x       y       z     vdW  Elec       q    Type
REMARK                         _______ _______ _______ _____ _____    ______ ____
ROOT
ATOM      1  C   UNL     1       6.479   6.257  17.665  0.00  0.00    +0.000 C 
ATOM      2  C   UNL     1       6.943   5.483  16.408  0.00  0.00    +0.000 C 
ATOM      3  O   UNL     1       7.665   5.980  15.547  0.00  0.00    +0.000 OA
ATOM      4  N   UNL     1       6.642   4.153  16.328  0.00  0.00    +0.000 N 
ATOM      5  C   UNL     1       5.572   3.552  17.093  0.00  0.00    +0.000 C 
ATOM      6  C   UNL     1       5.374   4.259  18.431  0.00  0.00    +0.000 C 
ATOM      7  N   UNL     1       5.229   5.729  18.279  0.00  0.00    +0.000 NA
ATOM      8  H   UNL     1       6.933   3.692  15.473  0.00  0.00    +0.000 HD
ENDROOT
BRANCH   1   9
ATOM      9  C   UNL     1       6.633   7.779  17.534  0.00  0.00    +0.000 C 
BRANCH   9  11
ATOM     10  O   UNL     1       8.745   7.773  18.654  0.00  0.00    +0.000 OA
ATOM     11  C   UNL     1       7.876   8.437  18.099  0.00  0.00    +0.000 C 
ATOM     12  N   UNL     1       7.982   9.793  17.881  0.00  0.00    +0.000 N 
ATOM     13  H   UNL     1       7.339  10.185  17.194  0.00  0.00    +0.000 HD
BRANCH  12  14
ATOM     14  C   UNL     1       9.206  10.555  18.136  0.00  0.00    +0.000 C 
ATOM     15  C   UNL     1       8.926  12.030  17.805  0.00  0.00    +0.000 C 
ATOM     16  C   UNL     1      10.151  12.938  17.799  0.00  0.00    +0.000 C 
ATOM     17  C   UNL     1      10.758  13.328  19.148  0.00  0.00    +0.000 C 
ATOM     18  C   UNL     1       9.762  13.533  20.289  0.00  0.00    +0.000 C 
ATOM     19  C   UNL     1       9.583  12.331  21.222  0.00  0.00    +0.000 C 
ATOM     20  C   UNL     1       8.970  11.037  20.674  0.00  0.00    +0.000 C 
ATOM     21  C   UNL     1       9.751  10.333  19.559  0.00  0.00    +0.000 C 
ENDBRANCH  12  14
ENDBRANCH   9  11
ENDBRANCH   1   9
BRANCH   7  22
ATOM     22  C   UNL     1       3.958   6.132  17.629  0.00  0.00    +0.000 C 
BRANCH  22  23
ATOM     23  C   UNL     1       2.788   5.586  18.446  0.00  0.00    +0.000 A 
ATOM     24  C   UNL     1       2.549   6.204  19.693  0.00  0.00    +0.000 A 
ATOM     25  C   UNL     1       1.894   5.512  20.705  0.00  0.00    +0.000 A 
ATOM     26  C   UNL     1       1.421   4.232  20.456  0.00  0.00    +0.000 A 
ATOM     27  F   UNL     1       0.906   3.515  21.463  0.00  0.00    +0.000 F 
ATOM     28  C   UNL     1       1.505   3.667  19.189  0.00  0.00    +0.000 A 
ATOM     29  C   UNL     1       2.169   4.355  18.171  0.00  0.00    +0.000 A 
ATOM     30 CL   UNL     1       2.265   3.594  16.626  0.00  0.00    +0.000 Cl
ENDBRANCH  22  23
ENDBRANCH   7  22
TORSDOF 5
ENDMDL
MODEL 7
REMARK VINA RESULT:      -7.9      5.749      7.891
REMARK  Name = 
REMARK  5 active torsions:
REMARK  status: ('A' for Active; 'I' for Inactive)
REMARK    1  A    between atoms: C_2  and  C_3
REMARK    2  A    between atoms: C_3  and  C_4
REMARK    3  A    between atoms: N_10  and  C_11
REMARK    4  A    between atoms: C_11  and  C_12
REMARK    5  A    between atoms: N_20  and  C_21
REMARK                            x       y       z     vdW  Elec       q    Type
REMARK                         _______ _______ _______ _____ _____    ______ ____
ROOT
ATOM      1  C   UNL     1       6.748   6.380  17.900  0.00  0.00    +0.000 C 
ATOM      2  C   UNL     1       6.682   5.416  19.110  0.00  0.00    +0.000 C 
ATOM      3  O   UNL     1       7.415   5.525  20.090  0.00  0.00    +0.000 OA
ATOM      4  N   UNL     1       5.676   4.492  19.139  0.00  0.00    +0.000 N 
ATOM      5  C   UNL     1       4.972   4.075  17.947  0.00  0.00    +0.000 C 
ATOM      6  C   UNL     1       4.890   5.201  16.920  0.00  0.00    +0.000 C 
ATOM      7  N   UNL     1       6.218   5.804  16.634  0.00  0.00    +0.000 NA
ATOM      8  H   UNL     1       5.690   3.859  19.930  0.00  0.00    +0.000 HD
ENDROOT
BRANCH   1   9
ATOM      9  C   UNL     1       8.051   7.188  17.837  0.00  0.00    +0.000 C 
BRANCH   9  11
ATOM     10  O   UNL     1       7.042   9.320  17.452  0.00  0.00    +0.000 OA
ATOM     11  C   UNL     1       7.979   8.698  17.942  0.00  0.00    +0.000 C 
ATOM     12  N   UNL     1       8.983   9.292  18.673  0.00  0.00    +0.000 N 
ATOM     13  H   UNL     1       9.551   8.665  19.242  0.00  0.00    +0.000 HD
BRANCH  12  14
ATOM     14  C   UNL     1       8.954  10.697  19.085  0.00  0.00    +0.000 C 
ATOM     15  C   UNL     1       9.734  10.822  20.405  0.00  0.00    +0.000 C 
ATOM     16  C   UNL     1       9.622  12.176  21.099  0.00  0.00    +0.000 C 
ATOM     17  C   UNL     1      10.394  13.352  20.498  0.00  0.00    +0.000 C 
ATOM     18  C   UNL     1      11.751  13.011  19.884  0.00  0.00    +0.000 C 
ATOM     19  C   UNL     1      11.747  12.818  18.364  0.00  0.00    +0.000 C 
ATOM     20  C   UNL     1      10.970  11.644  17.755  0.00  0.00    +0.000 C 
ATOM     21  C   UNL     1       9.454  11.645  17.978  0.00  0.00    +0.000 C 
ENDBRANCH  12  14
ENDBRANCH   9  11
ENDBRANCH   1   9
BRANCH   7  22
ATOM     22  C   UNL     1       7.128   4.898  15.892  0.00  0.00    +0.000 C 
BRANCH  22  23
ATOM     23  C   UNL     1       6.574   4.680  14.485  0.00  0.00    +0.000 A 
ATOM     24  C   UNL     1       5.342   3.996  14.393  0.00  0.00    +0.000 A 
ATOM     25  C   UNL     1       5.005   3.312  13.231  0.00  0.00    +0.000 A 
ATOM     26  C   UNL     1       5.861   3.364  12.140  0.00  0.00    +0.000 A 
ATOM     27  F   UNL     1       5.603   2.605  11.068  0.00  0.00    +0.000 F 
ATOM     28  C   UNL     1       6.999   4.161  12.155  0.00  0.00    +0.000 A 
ATOM     29  C   UNL     1       7.347   4.843  13.323  0.00  0.00    +0.000 A 
ATOM     30 CL   UNL     1       8.784   5.797  13.291  0.00  0.00    +0.000 Cl
ENDBRANCH  22  23
ENDBRANCH   7  22
TORSDOF 5
ENDMDL
MODEL 8
REMARK VINA RESULT:      -7.9      3.275      5.024
REMARK  Name = 
REMARK  5 active torsions:
REMARK  status: ('A' for Active; 'I' for Inactive)
REMARK    1  A    between atoms: C_2  and  C_3
REMARK    2  A    between atoms: C_3  and  C_4
REMARK    3  A    between atoms: N_10  and  C_11
REMARK    4  A    between atoms: C_11  and  C_12
REMARK    5  A    between atoms: N_20  and  C_21
REMARK                            x       y       z     vdW  Elec       q    Type
REMARK                         _______ _______ _______ _____ _____    ______ ____
ROOT
ATOM      1  C   UNL     1       2.462   4.051  18.759  0.00  0.00    +0.000 C 
ATOM      2  C   UNL     1       2.209   3.986  20.284  0.00  0.00    +0.000 C 
ATOM      3  O   UNL     1       1.424   4.735  20.862  0.00  0.00    +0.000 OA
ATOM      4  N   UNL     1       2.785   2.967  20.987  0.00  0.00    +0.000 N 
ATOM      5  C   UNL     1       3.935   2.239  20.496  0.00  0.00    +0.000 C 
ATOM      6  C   UNL     1       3.940   2.160  18.972  0.00  0.00    +0.000 C 
ATOM      7  N   UNL     1       3.777   3.493  18.336  0.00  0.00    +0.000 NA
ATOM      8  H   UNL     1       2.623   2.982  21.987  0.00  0.00    +0.000 HD
ENDROOT
BRANCH   1   9
ATOM      9  C   UNL     1       1.995   5.365  18.119  0.00  0.00    +0.000 C 
BRANCH   9  11
ATOM     10  O   UNL     1       3.508   7.202  18.342  0.00  0.00    +0.000 OA
ATOM     11  C   UNL     1       2.465   6.675  18.717  0.00  0.00    +0.000 C 
ATOM     12  N   UNL     1       1.615   7.248  19.637  0.00  0.00    +0.000 N 
ATOM     13  H   UNL     1       0.673   6.860  19.676  0.00  0.00    +0.000 HD
BRANCH  12  14
ATOM     14  C   UNL     1       1.777   8.614  20.140  0.00  0.00    +0.000 C 
ATOM     15  C   UNL     1       0.928   9.548  19.263  0.00  0.00    +0.000 C 
ATOM     16  C   UNL     1       1.147  11.039  19.501  0.00  0.00    +0.000 C 
ATOM     17  C   UNL     1       0.559  11.653  20.773  0.00  0.00    +0.000 C 
ATOM     18  C   UNL     1      -0.782  11.080  21.228  0.00  0.00    +0.000 C 
ATOM     19  C   UNL     1      -0.695  10.010  22.321  0.00  0.00    +0.000 C 
ATOM     20  C   UNL     1      -0.019   8.669  22.011  0.00  0.00    +0.000 C 
ATOM     21  C   UNL     1       1.468   8.726  21.645  0.00  0.00    +0.000 C 
ENDBRANCH  12  14
ENDBRANCH   9  11
ENDBRANCH   1   9
BRANCH   7  22
ATOM     22  C   UNL     1       4.953   4.379  18.513  0.00  0.00    +0.000 C 
BRANCH  22  23
ATOM     23  C   UNL     1       5.444   4.831  17.139  0.00  0.00    +0.000 A 
ATOM     24  C   UNL     1       4.776   4.285  16.021  0.00  0.00    +0.000 A 
ATOM     25  C   UNL     1       5.416   4.207  14.790  0.00  0.00    +0.000 A 
ATOM     26  C   UNL     1       6.694   4.730  14.655  0.00  0.00    +0.000 A 
ATOM     27  F   UNL     1       7.363   4.543  13.510  0.00  0.00    +0.000 F 
ATOM     28  C   UNL     1       7.306   5.413  15.699  0.00  0.00    +0.000 A 
ATOM     29  C   UNL     1       6.671   5.487  16.940  0.00  0.00    +0.000 A 
ATOM     30 CL   UNL     1       7.489   6.325  18.207  0.00  0.00    +0.000 Cl
ENDBRANCH  22  23
ENDBRANCH   7  22
TORSDOF 5
ENDMDL
MODEL 9
REMARK VINA RESULT:      -7.8      3.373      5.162
REMARK  Name = 
REMARK  5 active torsions:
REMARK  status: ('A' for Active; 'I' for Inactive)
REMARK    1  A    between atoms: C_2  and  C_3
REMARK    2  A    between atoms: C_3  and  C_4
REMARK    3  A    between atoms: N_10  and  C_11
REMARK    4  A    between atoms: C_11  and  C_12
REMARK    5  A    between atoms: N_20  and  C_21
REMARK                            x       y       z     vdW  Elec       q    Type
REMARK                         _______ _______ _______ _____ _____    ______ ____
ROOT
ATOM      1  C   UNL     1       1.728   4.362  19.494  0.00  0.00    +0.000 C 
ATOM      2  C   UNL     1       1.417   2.915  19.945  0.00  0.00    +0.000 C 
ATOM      3  O   UNL     1       0.946   2.646  21.048  0.00  0.00    +0.000 OA
ATOM      4  N   UNL     1       1.551   1.914  19.024  0.00  0.00    +0.000 N 
ATOM      5  C   UNL     1       2.366   2.056  17.838  0.00  0.00    +0.000 C 
ATOM      6  C   UNL     1       2.394   3.501  17.345  0.00  0.00    +0.000 C 
ATOM      7  N   UNL     1       2.757   4.458  18.421  0.00  0.00    +0.000 NA
ATOM      8  H   UNL     1       1.372   0.979  19.370  0.00  0.00    +0.000 HD
ENDROOT
BRANCH   1   9
ATOM      9  C   UNL     1       1.802   5.360  20.658  0.00  0.00    +0.000 C 
BRANCH   9  11
ATOM     10  O   UNL     1       2.466   7.212  19.302  0.00  0.00    +0.000 OA
ATOM     11  C   UNL     1       1.946   6.836  20.347  0.00  0.00    +0.000 C 
ATOM     12  N   UNL     1       1.397   7.695  21.272  0.00  0.00    +0.000 N 
ATOM     13  H   UNL     1       0.772   7.272  21.958  0.00  0.00    +0.000 HD
BRANCH  12  14
ATOM     14  C   UNL     1       1.225   9.130  21.034  0.00  0.00    +0.000 C 
ATOM     15  C   UNL     1      -0.023   9.320  20.155  0.00  0.00    +0.000 C 
ATOM     16  C   UNL     1      -0.231  10.734  19.621  0.00  0.00    +0.000 C 
ATOM     17  C   UNL     1      -0.723  11.801  20.600  0.00  0.00    +0.000 C 
ATOM     18  C   UNL     1      -1.709  11.322  21.664  0.00  0.00    +0.000 C 
ATOM     19  C   UNL     1      -1.090  10.997  23.027  0.00  0.00    +0.000 C 
ATOM     20  C   UNL     1      -0.107   9.827  23.148  0.00  0.00    +0.000 C 
ATOM     21  C   UNL     1       1.191   9.943  22.342  0.00  0.00    +0.000 C 
ENDBRANCH  12  14
ENDBRANCH   9  11
ENDBRANCH   1   9
BRANCH   7  22
ATOM     22  C   UNL     1       4.171   4.349  18.856  0.00  0.00    +0.000 C 
BRANCH  22  23
ATOM     23  C   UNL     1       5.068   4.971  17.787  0.00  0.00    +0.000 A 
ATOM     24  C   UNL     1       4.583   4.935  16.461  0.00  0.00    +0.000 A 
ATOM     25  C   UNL     1       5.467   4.988  15.390  0.00  0.00    +0.000 A 
ATOM     26  C   UNL     1       6.824   5.142  15.636  0.00  0.00    +0.000 A 
ATOM     27  F   UNL     1       7.689   5.065  14.617  0.00  0.00    +0.000 F 
ATOM     28  C   UNL     1       7.304   5.340  16.926  0.00  0.00    +0.000 A 
ATOM     29  C   UNL     1       6.421   5.279  18.006  0.00  0.00    +0.000 A 
ATOM     30 CL   UNL     1       7.076   5.505  19.585  0.00  0.00    +0.000 Cl
ENDBRANCH  22  23
ENDBRANCH   7  22
TORSDOF 5
ENDMDL
