MODEL 1
REMARK VINA RESULT:      -7.5      0.000      0.000
REMARK  Name = 
REMARK  8 active torsions:
REMARK  status: ('A' for Active; 'I' for Inactive)
REMARK    1  A    between atoms: C_1  and  S_2
REMARK    2  A    between atoms: S_2  and  N_5
REMARK    3  A    between atoms: N_5  and  C_6
REMARK    4  A    between atoms: N_9  and  C_10
REMARK    5  A    between atoms: C_10  and  C_11
REMARK    6  A    between atoms: C_14  and  O_15
REMARK    7  A    between atoms: O_15  and  C_16
REMARK    8  A    between atoms: C_16  and  C_17
REMARK                            x       y       z     vdW  Elec       q    Type
REMARK                         _______ _______ _______ _____ _____    ______ ____
ROOT
ATOM      1  C   UNL     1       6.628   5.093  16.953  0.00  0.00    +0.000 A 
ATOM      2  C   UNL     1       7.190   4.846  18.209  0.00  0.00    +0.000 A 
ATOM      3  C   UNL     1       7.851   5.860  18.902  0.00  0.00    +0.000 A 
ATOM      4  C   UNL     1       7.984   7.128  18.333  0.00  0.00    +0.000 A 
ATOM      5  C   UNL     1       7.370   7.402  17.112  0.00  0.00    +0.000 A 
ATOM      6  C   UNL     1       6.696   6.390  16.423  0.00  0.00    +0.000 A 
ENDROOT
BRANCH   1   7
ATOM      7  C   UNL     1       6.019   3.961  16.159  0.00  0.00    +0.000 C 
BRANCH   7  11
ATOM      8  C   UNL     1       2.474   3.529  18.481  0.00  0.00    +0.000 C 
ATOM      9  C   UNL     1       2.905   2.330  17.636  0.00  0.00    +0.000 C 
ATOM     10  C   UNL     1       4.333   2.495  17.096  0.00  0.00    +0.000 C 
ATOM     11  N   UNL     1       4.566   3.754  16.374  0.00  0.00    +0.000 NA
ATOM     12  C   UNL     1       4.056   4.938  17.094  0.00  0.00    +0.000 C 
ATOM     13  C   UNL     1       2.638   4.783  17.633  0.00  0.00    +0.000 C 
BRANCH   8  14
ATOM     14  N   UNL     1       3.255   3.524  19.768  0.00  0.00    +0.000 NA
ATOM     15  H   UNL     1       3.872   2.709  19.776  0.00  0.00    +0.000 HD
BRANCH  14  17
ATOM     16  C   UNL     1       0.731   3.120  20.619  0.00  0.00    +0.000 C 
ATOM     17  S   UNL     1       2.357   3.538  21.210  0.00  0.00    +0.000 S 
ATOM     18  O   UNL     1       2.340   4.908  21.673  0.00  0.00    +0.000 OA
ATOM     19  O   UNL     1       2.820   2.451  22.044  0.00  0.00    +0.000 OA
ENDBRANCH  14  17
ENDBRANCH   8  14
ENDBRANCH   7  11
ENDBRANCH   1   7
BRANCH   4  20
ATOM     20  O   UNL     1       8.707   8.156  18.881  0.00  0.00    +0.000 OA
BRANCH  20  21
ATOM     21  C   UNL     1       8.478   9.431  18.266  0.00  0.00    +0.000 C 
BRANCH  21  22
ATOM     22  C   UNL     1       9.352  10.512  18.857  0.00  0.00    +0.000 A 
ATOM     23  C   UNL     1      10.113  11.357  18.053  0.00  0.00    +0.000 A 
ATOM     24  C   UNL     1      10.879  12.349  18.659  0.00  0.00    +0.000 A 
ATOM     25  C   UNL     1      10.858  12.480  20.043  0.00  0.00    +0.000 A 
ATOM     26  C   UNL     1      10.064  11.614  20.770  0.00  0.00    +0.000 A 
ATOM     27  N   UNL     1       9.312  10.647  20.210  0.00  0.00    +0.000 NA
ENDBRANCH  21  22
ENDBRANCH  20  21
ENDBRANCH   4  20
TORSDOF 7
ENDMDL
MODEL 2
REMARK VINA RESULT:      -7.5      5.338      7.802
REMARK  Name = 
REMARK  8 active torsions:
REMARK  status: ('A' for Active; 'I' for Inactive)
REMARK    1  A    between atoms: C_1  and  S_2
REMARK    2  A    between atoms: S_2  and  N_5
REMARK    3  A    between atoms: N_5  and  C_6
REMARK    4  A    between atoms: N_9  and  C_10
REMARK    5  A    between atoms: C_10  and  C_11
REMARK    6  A    between atoms: C_14  and  O_15
REMARK    7  A    between atoms: O_15  and  C_16
REMARK    8  A    between atoms: C_16  and  C_17
REMARK                            x       y       z     vdW  Elec       q    Type
REMARK                         _______ _______ _______ _____ _____    ______ ____
ROOT
ATOM      1  C   UNL     1       2.643   5.922  19.210  0.00  0.00    +0.000 A 
ATOM      2  C   UNL     1       2.091   4.978  18.339  0.00  0.00    +0.000 A 
ATOM      3  C   UNL     1       2.901   4.281  17.443  0.00  0.00    +0.000 A 
ATOM      4  C   UNL     1       4.272   4.542  17.385  0.00  0.00    +0.000 A 
ATOM      5  C   UNL     1       4.841   5.431  18.295  0.00  0.00    +0.000 A 
ATOM      6  C   UNL     1       4.032   6.121  19.202  0.00  0.00    +0.000 A 
ENDROOT
BRANCH   1   7
ATOM      7  C   UNL     1       1.745   6.756  20.093  0.00  0.00    +0.000 C 
BRANCH   7  11
ATOM      8  C   UNL     1       0.448  10.747  19.361  0.00  0.00    +0.000 C 
ATOM      9  C   UNL     1       1.469  10.156  18.388  0.00  0.00    +0.000 C 
ATOM     10  C   UNL     1       1.623   8.640  18.573  0.00  0.00    +0.000 C 
ATOM     11  N   UNL     1       1.913   8.223  19.953  0.00  0.00    +0.000 NA
ATOM     12  C   UNL     1       1.030   8.863  20.948  0.00  0.00    +0.000 C 
ATOM     13  C   UNL     1       0.873  10.369  20.774  0.00  0.00    +0.000 C 
BRANCH   8  14
ATOM     14  N   UNL     1      -0.929  10.283  18.964  0.00  0.00    +0.000 NA
ATOM     15  H   UNL     1      -0.859   9.338  18.579  0.00  0.00    +0.000 HD
BRANCH  14  17
ATOM     16  C   UNL     1      -3.310  11.522  18.727  0.00  0.00    +0.000 C 
ATOM     17  S   UNL     1      -1.777  11.256  17.861  0.00  0.00    +0.000 S 
ATOM     18  O   UNL     1      -2.043  10.432  16.702  0.00  0.00    +0.000 OA
ATOM     19  O   UNL     1      -1.098  12.529  17.760  0.00  0.00    +0.000 OA
ENDBRANCH  14  17
ENDBRANCH   8  14
ENDBRANCH   7  11
ENDBRANCH   1   7
BRANCH   4  20
ATOM     20  O   UNL     1       5.132   3.994  16.469  0.00  0.00    +0.000 OA
BRANCH  20  21
ATOM     21  C   UNL     1       6.193   4.868  16.061  0.00  0.00    +0.000 C 
BRANCH  21  22
ATOM     22  C   UNL     1       6.581   4.654  14.617  0.00  0.00    +0.000 A 
ATOM     23  C   UNL     1       5.907   3.745  13.806  0.00  0.00    +0.000 A 
ATOM     24  C   UNL     1       6.299   3.613  12.476  0.00  0.00    +0.000 A 
ATOM     25  C   UNL     1       7.340   4.395  11.989  0.00  0.00    +0.000 A 
ATOM     26  C   UNL     1       7.947   5.288  12.852  0.00  0.00    +0.000 A 
ATOM     27  N   UNL     1       7.587   5.437  14.141  0.00  0.00    +0.000 NA
ENDBRANCH  21  22
ENDBRANCH  20  21
ENDBRANCH   4  20
TORSDOF 7
ENDMDL
MODEL 3
REMARK VINA RESULT:      -7.3      5.935      8.645
REMARK  Name = 
REMARK  8 active torsions:
REMARK  status: ('A' for Active; 'I' for Inactive)
REMARK    1  A    between atoms: C_1  and  S_2
REMARK    2  A    between atoms: S_2  and  N_5
REMARK    3  A    between atoms: N_5  and  C_6
REMARK    4  A    between atoms: N_9  and  C_10
REMARK    5  A    between atoms: C_10  and  C_11
REMARK    6  A    between atoms: C_14  and  O_15
REMARK    7  A    between atoms: O_15  and  C_16
REMARK    8  A    between atoms: C_16  and  C_17
REMARK                            x       y       z     vdW  Elec       q    Type
REMARK                         _______ _______ _______ _____ _____    ______ ____
ROOT
ATOM      1  C   UNL     1       1.822   7.861  19.662  0.00  0.00    +0.000 A 
ATOM      2  C   UNL     1       1.024   8.515  20.604  0.00  0.00    +0.000 A 
ATOM      3  C   UNL     1       0.392   9.717  20.286  0.00  0.00    +0.000 A 
ATOM      4  C   UNL     1       0.576  10.296  19.029  0.00  0.00    +0.000 A 
ATOM      5  C   UNL     1       1.315   9.618  18.061  0.00  0.00    +0.000 A 
ATOM      6  C   UNL     1       1.938   8.408  18.375  0.00  0.00    +0.000 A 
ENDROOT
BRANCH   1   7
ATOM      7  C   UNL     1       2.597   6.624  20.052  0.00  0.00    +0.000 C 
BRANCH   7  11
ATOM      8  C   UNL     1       4.767   3.826  17.684  0.00  0.00    +0.000 C 
ATOM      9  C   UNL     1       4.212   5.060  16.972  0.00  0.00    +0.000 C 
ATOM     10  C   UNL     1       3.727   6.124  17.967  0.00  0.00    +0.000 C 
ATOM     11  N   UNL     1       2.773   5.626  18.969  0.00  0.00    +0.000 NA
ATOM     12  C   UNL     1       3.205   4.364  19.602  0.00  0.00    +0.000 C 
ATOM     13  C   UNL     1       3.688   3.301  18.622  0.00  0.00    +0.000 C 
BRANCH   8  14
ATOM     14  N   UNL     1       6.067   4.191  18.351  0.00  0.00    +0.000 NA
ATOM     15  H   UNL     1       5.899   4.960  19.002  0.00  0.00    +0.000 HD
BRANCH  14  17
ATOM     16  C   UNL     1       7.399   6.385  17.530  0.00  0.00    +0.000 C 
ATOM     17  S   UNL     1       7.358   4.616  17.332  0.00  0.00    +0.000 S 
ATOM     18  O   UNL     1       6.935   4.315  15.982  0.00  0.00    +0.000 OA
ATOM     19  O   UNL     1       8.577   4.078  17.893  0.00  0.00    +0.000 OA
ENDBRANCH  14  17
ENDBRANCH   8  14
ENDBRANCH   7  11
ENDBRANCH   1   7
BRANCH   4  20
ATOM     20  O   UNL     1       0.090  11.523  18.658  0.00  0.00    +0.000 OA
BRANCH  20  21
ATOM     21  C   UNL     1      -1.155  11.876  19.275  0.00  0.00    +0.000 C 
BRANCH  21  22
ATOM     22  C   UNL     1      -2.331  11.647  18.354  0.00  0.00    +0.000 A 
ATOM     23  C   UNL     1      -2.159  11.184  17.052  0.00  0.00    +0.000 A 
ATOM     24  C   UNL     1      -3.286  10.971  16.262  0.00  0.00    +0.000 A 
ATOM     25  C   UNL     1      -4.548  11.213  16.791  0.00  0.00    +0.000 A 
ATOM     26  C   UNL     1      -4.636  11.654  18.098  0.00  0.00    +0.000 A 
ATOM     27  N   UNL     1      -3.564  11.867  18.885  0.00  0.00    +0.000 NA
ENDBRANCH  21  22
ENDBRANCH  20  21
ENDBRANCH   4  20
TORSDOF 7
ENDMDL
MODEL 4
REMARK VINA RESULT:      -7.3      6.259      8.739
REMARK  Name = 
REMARK  8 active torsions:
REMARK  status: ('A' for Active; 'I' for Inactive)
REMARK    1  A    between atoms: C_1  and  S_2
REMARK    2  A    between atoms: S_2  and  N_5
REMARK    3  A    between atoms: N_5  and  C_6
REMARK    4  A    between atoms: N_9  and  C_10
REMARK    5  A    between atoms: C_10  and  C_11
REMARK    6  A    between atoms: C_14  and  O_15
REMARK    7  A    between atoms: O_15  and  C_16
REMARK    8  A    between atoms: C_16  and  C_17
REMARK                            x       y       z     vdW  Elec       q    Type
REMARK                         _______ _______ _______ _____ _____    ______ ____
ROOT
ATOM      1  C   UNL     1       1.787   7.385  20.463  0.00  0.00    +0.000 A 
ATOM      2  C   UNL     1       2.229   7.672  19.169  0.00  0.00    +0.000 A 
ATOM      3  C   UNL     1       2.466   6.645  18.256  0.00  0.00    +0.000 A 
ATOM      4  C   UNL     1       2.294   5.313  18.638  0.00  0.00    +0.000 A 
ATOM      5  C   UNL     1       1.789   5.020  19.904  0.00  0.00    +0.000 A 
ATOM      6  C   UNL     1       1.539   6.050  20.815  0.00  0.00    +0.000 A 
ENDROOT
BRANCH   1   7
ATOM      7  C   UNL     1       1.646   8.494  21.480  0.00  0.00    +0.000 C 
BRANCH   7  11
ATOM      8  C   UNL     1      -1.060  11.764  21.844  0.00  0.00    +0.000 C 
ATOM      9  C   UNL     1      -1.133  10.675  22.916  0.00  0.00    +0.000 C 
ATOM     10  C   UNL     1       0.073   9.728  22.851  0.00  0.00    +0.000 C 
ATOM     11  N   UNL     1       0.311   9.140  21.524  0.00  0.00    +0.000 NA
ATOM     12  C   UNL     1       0.270  10.136  20.434  0.00  0.00    +0.000 C 
ATOM     13  C   UNL     1      -0.925  11.080  20.490  0.00  0.00    +0.000 C 
BRANCH   8  14
ATOM     14  N   UNL     1       0.055  12.715  22.191  0.00  0.00    +0.000 NA
ATOM     15  H   UNL     1       0.503  12.398  23.054  0.00  0.00    +0.000 HD
BRANCH  14  17
ATOM     16  C   UNL     1      -1.357  14.307  23.845  0.00  0.00    +0.000 C 
ATOM     17  S   UNL     1      -0.362  14.352  22.370  0.00  0.00    +0.000 S 
ATOM     18  O   UNL     1      -1.216  14.685  21.251  0.00  0.00    +0.000 OA
ATOM     19  O   UNL     1       0.840  15.098  22.668  0.00  0.00    +0.000 OA
ENDBRANCH  14  17
ENDBRANCH   8  14
ENDBRANCH   7  11
ENDBRANCH   1   7
BRANCH   4  20
ATOM     20  O   UNL     1       2.605   4.231  17.855  0.00  0.00    +0.000 OA
BRANCH  20  21
ATOM     21  C   UNL     1       3.744   3.485  18.306  0.00  0.00    +0.000 C 
BRANCH  21  22
ATOM     22  C   UNL     1       5.018   3.926  17.624  0.00  0.00    +0.000 A 
ATOM     23  C   UNL     1       5.105   4.036  16.239  0.00  0.00    +0.000 A 
ATOM     24  C   UNL     1       6.301   4.472  15.675  0.00  0.00    +0.000 A 
ATOM     25  C   UNL     1       7.370   4.796  16.502  0.00  0.00    +0.000 A 
ATOM     26  C   UNL     1       7.199   4.677  17.868  0.00  0.00    +0.000 A 
ATOM     27  N   UNL     1       6.053   4.261  18.441  0.00  0.00    +0.000 NA
ENDBRANCH  21  22
ENDBRANCH  20  21
ENDBRANCH   4  20
TORSDOF 7
ENDMDL
MODEL 5
REMARK VINA RESULT:      -7.3      0.987      1.458
REMARK  Name = 
REMARK  8 active torsions:
REMARK  status: ('A' for Active; 'I' for Inactive)
REMARK    1  A    between atoms: C_1  and  S_2
REMARK    2  A    between atoms: S_2  and  N_5
REMARK    3  A    between atoms: N_5  and  C_6
REMARK    4  A    between atoms: N_9  and  C_10
REMARK    5  A    between atoms: C_10  and  C_11
REMARK    6  A    between atoms: C_14  and  O_15
REMARK    7  A    between atoms: O_15  and  C_16
REMARK    8  A    between atoms: C_16  and  C_17
REMARK                            x       y       z     vdW  Elec       q    Type
REMARK                         _______ _______ _______ _____ _____    ______ ____
ROOT
ATOM      1  C   UNL     1       6.619   5.310  17.089  0.00  0.00    +0.000 A 
ATOM      2  C   UNL     1       6.749   6.532  16.424  0.00  0.00    +0.000 A 
ATOM      3  C   UNL     1       7.472   7.578  16.996  0.00  0.00    +0.000 A 
ATOM      4  C   UNL     1       8.050   7.424  18.258  0.00  0.00    +0.000 A 
ATOM      5  C   UNL     1       7.984   6.188  18.898  0.00  0.00    +0.000 A 
ATOM      6  C   UNL     1       7.271   5.135  18.320  0.00  0.00    +0.000 A 
ENDROOT
BRANCH   1   7
ATOM      7  C   UNL     1       5.737   4.225  16.517  0.00  0.00    +0.000 C 
BRANCH   7  11
ATOM      8  C   UNL     1       2.199   4.654  18.850  0.00  0.00    +0.000 C 
ATOM      9  C   UNL     1       2.283   3.437  17.927  0.00  0.00    +0.000 C 
ATOM     10  C   UNL     1       3.703   3.231  17.382  0.00  0.00    +0.000 C 
ATOM     11  N   UNL     1       4.282   4.417  16.736  0.00  0.00    +0.000 NA
ATOM     12  C   UNL     1       4.119   5.649  17.535  0.00  0.00    +0.000 C 
ATOM     13  C   UNL     1       2.711   5.863  18.079  0.00  0.00    +0.000 C 
BRANCH   8  14
ATOM     14  N   UNL     1       2.940   4.350  20.125  0.00  0.00    +0.000 NA
ATOM     15  H   UNL     1       3.937   4.269  19.916  0.00  0.00    +0.000 HD
BRANCH  14  17
ATOM     16  C   UNL     1       3.899   1.938  20.850  0.00  0.00    +0.000 C 
ATOM     17  S   UNL     1       2.453   2.969  20.985  0.00  0.00    +0.000 S 
ATOM     18  O   UNL     1       1.385   2.362  20.222  0.00  0.00    +0.000 OA
ATOM     19  O   UNL     1       2.294   3.331  22.376  0.00  0.00    +0.000 OA
ENDBRANCH  14  17
ENDBRANCH   8  14
ENDBRANCH   7  11
ENDBRANCH   1   7
BRANCH   4  20
ATOM     20  O   UNL     1       8.684   8.422  18.952  0.00  0.00    +0.000 OA
BRANCH  20  21
ATOM     21  C   UNL     1       8.608   9.712  18.329  0.00  0.00    +0.000 C 
BRANCH  21  22
ATOM     22  C   UNL     1       9.553  10.705  18.964  0.00  0.00    +0.000 A 
ATOM     23  C   UNL     1      10.502  11.394  18.213  0.00  0.00    +0.000 A 
ATOM     24  C   UNL     1      11.326  12.314  18.855  0.00  0.00    +0.000 A 
ATOM     25  C   UNL     1      11.177  12.531  20.220  0.00  0.00    +0.000 A 
ATOM     26  C   UNL     1      10.200  11.821  20.892  0.00  0.00    +0.000 A 
ATOM     27  N   UNL     1       9.388  10.927  20.296  0.00  0.00    +0.000 NA
ENDBRANCH  21  22
ENDBRANCH  20  21
ENDBRANCH   4  20
TORSDOF 7
ENDMDL
MODEL 6
REMARK VINA RESULT:      -7.2      5.605      8.582
REMARK  Name = 
REMARK  8 active torsions:
REMARK  status: ('A' for Active; 'I' for Inactive)
REMARK    1  A    between atoms: C_1  and  S_2
REMARK    2  A    between atoms: S_2  and  N_5
REMARK    3  A    between atoms: N_5  and  C_6
REMARK    4  A    between atoms: N_9  and  C_10
REMARK    5  A    between atoms: C_10  and  C_11
REMARK    6  A    between atoms: C_14  and  O_15
REMARK    7  A    between atoms: O_15  and  C_16
REMARK    8  A    between atoms: C_16  and  C_17
REMARK                            x       y       z     vdW  Elec       q    Type
REMARK                         _______ _______ _______ _____ _____    ______ ____
ROOT
ATOM      1  C   UNL     1       2.230   7.347  18.990  0.00  0.00    +0.000 A 
ATOM      2  C   UNL     1       2.256   8.137  17.838  0.00  0.00    +0.000 A 
ATOM      3  C   UNL     1       1.682   9.408  17.836  0.00  0.00    +0.000 A 
ATOM      4  C   UNL     1       1.047   9.894  18.981  0.00  0.00    +0.000 A 
ATOM      5  C   UNL     1       1.076   9.141  20.154  0.00  0.00    +0.000 A 
ATOM      6  C   UNL     1       1.662   7.873  20.160  0.00  0.00    +0.000 A 
ENDROOT
BRANCH   1   7
ATOM      7  C   UNL     1       2.748   5.928  18.949  0.00  0.00    +0.000 C 
BRANCH   7  11
ATOM      8  C   UNL     1       6.665   4.860  17.660  0.00  0.00    +0.000 C 
ATOM      9  C   UNL     1       6.108   4.128  18.882  0.00  0.00    +0.000 C 
ATOM     10  C   UNL     1       4.604   4.373  19.059  0.00  0.00    +0.000 C 
ATOM     11  N   UNL     1       4.219   5.792  19.080  0.00  0.00    +0.000 NA
ATOM     12  C   UNL     1       4.831   6.574  17.986  0.00  0.00    +0.000 C 
ATOM     13  C   UNL     1       6.326   6.338  17.804  0.00  0.00    +0.000 C 
BRANCH   8  14
ATOM     14  N   UNL     1       6.133   4.203  16.414  0.00  0.00    +0.000 NA
ATOM     15  H   UNL     1       6.525   3.261  16.345  0.00  0.00    +0.000 HD
BRANCH  14  17
ATOM     16  C   UNL     1       6.153   3.701  13.767  0.00  0.00    +0.000 C 
ATOM     17  S   UNL     1       6.405   5.011  14.945  0.00  0.00    +0.000 S 
ATOM     18  O   UNL     1       7.804   5.379  14.929  0.00  0.00    +0.000 OA
ATOM     19  O   UNL     1       5.352   5.985  14.759  0.00  0.00    +0.000 OA
ENDBRANCH  14  17
ENDBRANCH   8  14
ENDBRANCH   7  11
ENDBRANCH   1   7
BRANCH   4  20
ATOM     20  O   UNL     1       0.360  11.078  19.049  0.00  0.00    +0.000 OA
BRANCH  20  21
ATOM     21  C   UNL     1      -0.961  10.963  19.595  0.00  0.00    +0.000 C 
BRANCH  21  22
ATOM     22  C   UNL     1      -2.017  10.890  18.518  0.00  0.00    +0.000 A 
ATOM     23  C   UNL     1      -1.917   9.996  17.456  0.00  0.00    +0.000 A 
ATOM     24  C   UNL     1      -2.937   9.961  16.510  0.00  0.00    +0.000 A 
ATOM     25  C   UNL     1      -4.031  10.807  16.651  0.00  0.00    +0.000 A 
ATOM     26  C   UNL     1      -4.066  11.654  17.743  0.00  0.00    +0.000 A 
ATOM     27  N   UNL     1      -3.094  11.706  18.674  0.00  0.00    +0.000 NA
ENDBRANCH  21  22
ENDBRANCH  20  21
ENDBRANCH   4  20
TORSDOF 7
ENDMDL
MODEL 7
REMARK VINA RESULT:      -7.2      7.134      8.876
REMARK  Name = 
REMARK  8 active torsions:
REMARK  status: ('A' for Active; 'I' for Inactive)
REMARK    1  A    between atoms: C_1  and  S_2
REMARK    2  A    between atoms: S_2  and  N_5
REMARK    3  A    between atoms: N_5  and  C_6
REMARK    4  A    between atoms: N_9  and  C_10
REMARK    5  A    between atoms: C_10  and  C_11
REMARK    6  A    between atoms: C_14  and  O_15
REMARK    7  A    between atoms: O_15  and  C_16
REMARK    8  A    between atoms: C_16  and  C_17
REMARK                            x       y       z     vdW  Elec       q    Type
REMARK                         _______ _______ _______ _____ _____    ______ ____
ROOT
ATOM      1  C   UNL     1       1.285   9.350  19.564  0.00  0.00    +0.000 A 
ATOM      2  C   UNL     1       1.689   9.094  18.250  0.00  0.00    +0.000 A 
ATOM      3  C   UNL     1       2.253   7.865  17.908  0.00  0.00    +0.000 A 
ATOM      4  C   UNL     1       2.449   6.886  18.884  0.00  0.00    +0.000 A 
ATOM      5  C   UNL     1       1.988   7.106  20.181  0.00  0.00    +0.000 A 
ATOM      6  C   UNL     1       1.411   8.333  20.522  0.00  0.00    +0.000 A 
ENDROOT
BRANCH   1   7
ATOM      7  C   UNL     1       0.786  10.722  19.950  0.00  0.00    +0.000 C 
BRANCH   7  11
ATOM      8  C   UNL     1      -1.983  12.319  22.766  0.00  0.00    +0.000 C 
ATOM      9  C   UNL     1      -1.311  10.993  23.123  0.00  0.00    +0.000 C 
ATOM     10  C   UNL     1      -0.130  10.682  22.194  0.00  0.00    +0.000 C 
ATOM     11  N   UNL     1      -0.456  10.733  20.761  0.00  0.00    +0.000 NA
ATOM     12  C   UNL     1      -1.216  11.942  20.383  0.00  0.00    +0.000 C 
ATOM     13  C   UNL     1      -2.391  12.258  21.300  0.00  0.00    +0.000 C 
BRANCH   8  14
ATOM     14  N   UNL     1      -1.051  13.448  23.120  0.00  0.00    +0.000 NA
ATOM     15  H   UNL     1      -0.233  13.063  23.599  0.00  0.00    +0.000 HD
BRANCH  14  17
ATOM     16  C   UNL     1      -2.030  15.943  22.839  0.00  0.00    +0.000 C 
ATOM     17  S   UNL     1      -1.693  14.702  24.070  0.00  0.00    +0.000 S 
ATOM     18  O   UNL     1      -0.616  15.173  24.914  0.00  0.00    +0.000 OA
ATOM     19  O   UNL     1      -2.958  14.260  24.613  0.00  0.00    +0.000 OA
ENDBRANCH  14  17
ENDBRANCH   8  14
ENDBRANCH   7  11
ENDBRANCH   1   7
BRANCH   4  20
ATOM     20  O   UNL     1       3.092   5.694  18.674  0.00  0.00    +0.000 OA
BRANCH  20  21
ATOM     21  C   UNL     1       3.948   5.681  17.524  0.00  0.00    +0.000 C 
BRANCH  21  22
ATOM     22  C   UNL     1       5.382   5.996  17.879  0.00  0.00    +0.000 A 
ATOM     23  C   UNL     1       6.114   6.954  17.182  0.00  0.00    +0.000 A 
ATOM     24  C   UNL     1       7.423   7.215  17.576  0.00  0.00    +0.000 A 
ATOM     25  C   UNL     1       7.964   6.525  18.656  0.00  0.00    +0.000 A 
ATOM     26  C   UNL     1       7.167   5.602  19.307  0.00  0.00    +0.000 A 
ATOM     27  N   UNL     1       5.897   5.332  18.949  0.00  0.00    +0.000 NA
ENDBRANCH  21  22
ENDBRANCH  20  21
ENDBRANCH   4  20
TORSDOF 7
ENDMDL
MODEL 8
REMARK VINA RESULT:      -7.1      5.937      8.580
REMARK  Name = 
REMARK  8 active torsions:
REMARK  status: ('A' for Active; 'I' for Inactive)
REMARK    1  A    between atoms: C_1  and  S_2
REMARK    2  A    between atoms: S_2  and  N_5
REMARK    3  A    between atoms: N_5  and  C_6
REMARK    4  A    between atoms: N_9  and  C_10
REMARK    5  A    between atoms: C_10  and  C_11
REMARK    6  A    between atoms: C_14  and  O_15
REMARK    7  A    between atoms: O_15  and  C_16
REMARK    8  A    between atoms: C_16  and  C_17
REMARK                            x       y       z     vdW  Elec       q    Type
REMARK                         _______ _______ _______ _____ _____    ______ ____
ROOT
ATOM      1  C   UNL     1       1.866   7.059  20.332  0.00  0.00    +0.000 A 
ATOM      2  C   UNL     1       2.363   7.401  19.071  0.00  0.00    +0.000 A 
ATOM      3  C   UNL     1       2.589   6.419  18.108  0.00  0.00    +0.000 A 
ATOM      4  C   UNL     1       2.350   5.076  18.405  0.00  0.00    +0.000 A 
ATOM      5  C   UNL     1       1.792   4.732  19.635  0.00  0.00    +0.000 A 
ATOM      6  C   UNL     1       1.553   5.718  20.596  0.00  0.00    +0.000 A 
ENDROOT
BRANCH   1   7
ATOM      7  C   UNL     1       1.736   8.113  21.407  0.00  0.00    +0.000 C 
BRANCH   7  11
ATOM      8  C   UNL     1      -0.831  11.505  21.624  0.00  0.00    +0.000 C 
ATOM      9  C   UNL     1      -0.911  10.495  22.770  0.00  0.00    +0.000 C 
ATOM     10  C   UNL     1       0.256   9.498  22.735  0.00  0.00    +0.000 C 
ATOM     11  N   UNL     1       0.429   8.813  21.445  0.00  0.00    +0.000 NA
ATOM     12  C   UNL     1       0.391   9.733  20.291  0.00  0.00    +0.000 C 
ATOM     13  C   UNL     1      -0.766  10.727  20.317  0.00  0.00    +0.000 C 
BRANCH   8  14
ATOM     14  N   UNL     1       0.329  12.433  21.872  0.00  0.00    +0.000 NA
ATOM     15  H   UNL     1       0.898  12.053  22.632  0.00  0.00    +0.000 HD
BRANCH  14  17
ATOM     16  C   UNL     1      -0.836  14.576  20.727  0.00  0.00    +0.000 C 
ATOM     17  S   UNL     1      -0.046  14.049  22.233  0.00  0.00    +0.000 S 
ATOM     18  O   UNL     1       1.214  14.748  22.359  0.00  0.00    +0.000 OA
ATOM     19  O   UNL     1      -1.040  14.063  23.283  0.00  0.00    +0.000 OA
ENDBRANCH  14  17
ENDBRANCH   8  14
ENDBRANCH   7  11
ENDBRANCH   1   7
BRANCH   4  20
ATOM     20  O   UNL     1       2.643   4.028  17.570  0.00  0.00    +0.000 OA
BRANCH  20  21
ATOM     21  C   UNL     1       3.865   3.348  17.885  0.00  0.00    +0.000 C 
BRANCH  21  22
ATOM     22  C   UNL     1       5.056   3.970  17.195  0.00  0.00    +0.000 A 
ATOM     23  C   UNL     1       6.121   4.504  17.916  0.00  0.00    +0.000 A 
ATOM     24  C   UNL     1       7.200   5.041  17.219  0.00  0.00    +0.000 A 
ATOM     25  C   UNL     1       7.196   5.022  15.829  0.00  0.00    +0.000 A 
ATOM     26  C   UNL     1       6.109   4.458  15.187  0.00  0.00    +0.000 A 
ATOM     27  N   UNL     1       5.054   3.930  15.835  0.00  0.00    +0.000 NA
ENDBRANCH  21  22
ENDBRANCH  20  21
ENDBRANCH   4  20
TORSDOF 7
ENDMDL
MODEL 9
REMARK VINA RESULT:      -7.1      6.324      8.505
REMARK  Name = 
REMARK  8 active torsions:
REMARK  status: ('A' for Active; 'I' for Inactive)
REMARK    1  A    between atoms: C_1  and  S_2
REMARK    2  A    between atoms: S_2  and  N_5
REMARK    3  A    between atoms: N_5  and  C_6
REMARK    4  A    between atoms: N_9  and  C_10
REMARK    5  A    between atoms: C_10  and  C_11
REMARK    6  A    between atoms: C_14  and  O_15
REMARK    7  A    between atoms: O_15  and  C_16
REMARK    8  A    between atoms: C_16  and  C_17
REMARK                            x       y       z     vdW  Elec       q    Type
REMARK                         _______ _______ _______ _____ _____    ______ ____
ROOT
ATOM      1  C   UNL     1       1.750   7.916  19.203  0.00  0.00    +0.000 A 
ATOM      2  C   UNL     1       1.632   7.653  20.571  0.00  0.00    +0.000 A 
ATOM      3  C   UNL     1       1.260   8.664  21.457  0.00  0.00    +0.000 A 
ATOM      4  C   UNL     1       1.031   9.959  20.990  0.00  0.00    +0.000 A 
ATOM      5  C   UNL     1       1.080  10.214  19.620  0.00  0.00    +0.000 A 
ATOM      6  C   UNL     1       1.440   9.200  18.730  0.00  0.00    +0.000 A 
ENDROOT
BRANCH   1   7
ATOM      7  C   UNL     1       2.267   6.848  18.268  0.00  0.00    +0.000 C 
BRANCH   7  11
ATOM      8  C   UNL     1       5.729   4.400  17.863  0.00  0.00    +0.000 C 
ATOM      9  C   UNL     1       4.584   3.853  18.717  0.00  0.00    +0.000 C 
ATOM     10  C   UNL     1       3.298   4.671  18.538  0.00  0.00    +0.000 C 
ATOM     11  N   UNL     1       3.464   6.116  18.751  0.00  0.00    +0.000 NA
ATOM     12  C   UNL     1       4.633   6.675  18.043  0.00  0.00    +0.000 C 
ATOM     13  C   UNL     1       5.916   5.869  18.215  0.00  0.00    +0.000 C 
BRANCH   8  14
ATOM     14  N   UNL     1       5.430   4.126  16.413  0.00  0.00    +0.000 NA
ATOM     15  H   UNL     1       5.426   3.114  16.263  0.00  0.00    +0.000 HD
BRANCH  14  17
ATOM     16  C   UNL     1       6.179   3.810  13.843  0.00  0.00    +0.000 C 
ATOM     17  S   UNL     1       6.463   4.838  15.269  0.00  0.00    +0.000 S 
ATOM     18  O   UNL     1       7.814   4.612  15.735  0.00  0.00    +0.000 OA
ATOM     19  O   UNL     1       5.966   6.162  14.968  0.00  0.00    +0.000 OA
ENDBRANCH  14  17
ENDBRANCH   8  14
ENDBRANCH   7  11
ENDBRANCH   1   7
BRANCH   4  20
ATOM     20  O   UNL     1       0.770  11.042  21.789  0.00  0.00    +0.000 OA
BRANCH  20  21
ATOM     21  C   UNL     1       0.084  12.112  21.127  0.00  0.00    +0.000 C 
BRANCH  21  22
ATOM     22  C   UNL     1      -1.332  12.276  21.628  0.00  0.00    +0.000 A 
ATOM     23  C   UNL     1      -1.674  12.006  22.950  0.00  0.00    +0.000 A 
ATOM     24  C   UNL     1      -2.992  12.201  23.355  0.00  0.00    +0.000 A 
ATOM     25  C   UNL     1      -3.927  12.668  22.439  0.00  0.00    +0.000 A 
ATOM     26  C   UNL     1      -3.505  12.930  21.149  0.00  0.00    +0.000 A 
ATOM     27  N   UNL     1      -2.237  12.753  20.732  0.00  0.00    +0.000 NA
ENDBRANCH  21  22
ENDBRANCH  20  21
ENDBRANCH   4  20
TORSDOF 7
ENDMDL
