MODEL 1
REMARK VINA RESULT:      -6.0      0.000      0.000
REMARK  Name = 
REMARK  4 active torsions:
REMARK  status: ('A' for Active; 'I' for Inactive)
REMARK    1  A    between atoms: C_1  and  C_2
REMARK    2  A    between atoms: C_7  and  S_8
REMARK    3  A    between atoms: S_8  and  C_9
REMARK    4  A    between atoms: C_19  and  C_20
REMARK                            x       y       z     vdW  Elec       q    Type
REMARK                         _______ _______ _______ _____ _____    ______ ____
ROOT
ATOM      1  C   UNL     1      -2.206  11.682  23.394  0.00  0.00    +0.000 C 
ATOM      2  C   UNL     1      -2.770  12.943  22.673  0.00  0.00    +0.000 C 
ATOM      3  C   UNL     1      -2.824  12.644  21.167  0.00  0.00    +0.000 C 
ATOM      4  C   UNL     1      -1.413  12.489  20.575  0.00  0.00    +0.000 C 
ATOM      5  C   UNL     1      -0.516  13.730  20.834  0.00  0.00    +0.000 C 
ATOM      6  C   UNL     1      -0.501  14.163  22.339  0.00  0.00    +0.000 C 
ATOM      7  C   UNL     1       0.300  15.488  22.555  0.00  0.00    +0.000 C 
ATOM      8  C   UNL     1       1.715  15.322  21.997  0.00  0.00    +0.000 C 
ATOM      9  C   UNL     1       1.739  14.866  20.556  0.00  0.00    +0.000 C 
ATOM     10  C   UNL     1       2.442  15.572  19.650  0.00  0.00    +0.000 C 
ATOM     11  C   UNL     1       2.561  15.139  18.240  0.00  0.00    +0.000 C 
ATOM     12  O   UNL     1       3.153  15.856  17.438  0.00  0.00    +0.000 OA
ATOM     13  C   UNL     1       2.043  13.773  17.880  0.00  0.00    +0.000 C 
ATOM     14  C   UNL     1       0.776  13.466  18.664  0.00  0.00    +0.000 C 
ATOM     15  C   UNL     1       0.929  13.610  20.208  0.00  0.00    +0.000 C 
ATOM     16  C   UNL     1       1.697  12.377  20.743  0.00  0.00    +0.000 C 
ATOM     17  C   UNL     1      -1.932  14.219  22.888  0.00  0.00    +0.000 C 
ATOM     18  C   UNL     1      -2.130  14.515  24.378  0.00  0.00    +0.000 C 
ATOM     19  C   UNL     1      -3.559  14.024  24.689  0.00  0.00    +0.000 C 
ATOM     20  C   UNL     1      -4.089  13.400  23.367  0.00  0.00    +0.000 C 
ATOM     21  C   UNL     1      -4.962  14.400  22.610  0.00  0.00    +0.000 C 
ATOM     22  C   UNL     1      -6.327  14.186  23.220  0.00  0.00    +0.000 C 
ATOM     23  C   UNL     1      -6.267  12.738  23.597  0.00  0.00    +0.000 C 
ATOM     24  O   UNL     1      -7.230  12.039  23.864  0.00  0.00    +0.000 OA
ATOM     25  O   UNL     1      -4.972  12.309  23.636  0.00  0.00    +0.000 OA
ENDROOT
BRANCH   7  26
ATOM     26  S   UNL     1      -0.510  17.002  21.920  0.00  0.00    +0.000 S 
ATOM     27  C   UNL     1       0.784  18.201  21.693  0.00  0.00    +0.000 C 
ATOM     28  O   UNL     1      -1.077  16.742  20.612  0.00  0.00    +0.000 OA
ATOM     29  O   UNL     1      -1.347  17.542  22.973  0.00  0.00    +0.000 OA
ENDBRANCH   7  26
TORSDOF 1
ENDMDL
MODEL 2
REMARK VINA RESULT:      -5.9      5.939     10.955
REMARK  Name = 
REMARK  4 active torsions:
REMARK  status: ('A' for Active; 'I' for Inactive)
REMARK    1  A    between atoms: C_1  and  C_2
REMARK    2  A    between atoms: C_7  and  S_8
REMARK    3  A    between atoms: S_8  and  C_9
REMARK    4  A    between atoms: C_19  and  C_20
REMARK                            x       y       z     vdW  Elec       q    Type
REMARK                         _______ _______ _______ _____ _____    ______ ____
ROOT
ATOM      1  C   UNL     1       8.730  16.310  17.841  0.00  0.00    +0.000 C 
ATOM      2  C   UNL     1       8.644  14.951  18.598  0.00  0.00    +0.000 C 
ATOM      3  C   UNL     1       7.500  14.134  17.979  0.00  0.00    +0.000 C 
ATOM      4  C   UNL     1       6.133  14.786  18.250  0.00  0.00    +0.000 C 
ATOM      5  C   UNL     1       5.865  15.004  19.764  0.00  0.00    +0.000 C 
ATOM      6  C   UNL     1       7.045  15.736  20.489  0.00  0.00    +0.000 C 
ATOM      7  C   UNL     1       6.811  15.829  22.031  0.00  0.00    +0.000 C 
ATOM      8  C   UNL     1       5.467  16.508  22.301  0.00  0.00    +0.000 C 
ATOM      9  C   UNL     1       4.310  15.851  21.585  0.00  0.00    +0.000 C 
ATOM     10  C   UNL     1       3.229  15.467  22.288  0.00  0.00    +0.000 C 
ATOM     11  C   UNL     1       2.036  14.881  21.635  0.00  0.00    +0.000 C 
ATOM     12  O   UNL     1       1.105  14.481  22.330  0.00  0.00    +0.000 OA
ATOM     13  C   UNL     1       1.975  14.909  20.133  0.00  0.00    +0.000 C 
ATOM     14  C   UNL     1       3.357  14.670  19.545  0.00  0.00    +0.000 C 
ATOM     15  C   UNL     1       4.454  15.644  20.072  0.00  0.00    +0.000 C 
ATOM     16  C   UNL     1       4.269  17.015  19.377  0.00  0.00    +0.000 C 
ATOM     17  C   UNL     1       8.382  15.087  20.112  0.00  0.00    +0.000 C 
ATOM     18  C   UNL     1       9.674  15.728  20.629  0.00  0.00    +0.000 C 
ATOM     19  C   UNL     1      10.782  15.174  19.709  0.00  0.00    +0.000 C 
ATOM     20  C   UNL     1      10.055  14.291  18.655  0.00  0.00    +0.000 C 
ATOM     21  C   UNL     1      10.117  12.817  19.053  0.00  0.00    +0.000 C 
ATOM     22  C   UNL     1      11.436  12.366  18.472  0.00  0.00    +0.000 C 
ATOM     23  C   UNL     1      11.564  13.261  17.279  0.00  0.00    +0.000 C 
ATOM     24  O   UNL     1      12.323  13.081  16.341  0.00  0.00    +0.000 OA
ATOM     25  O   UNL     1      10.732  14.336  17.397  0.00  0.00    +0.000 OA
ENDROOT
BRANCH   7  26
ATOM     26  S   UNL     1       6.970  14.247  22.940  0.00  0.00    +0.000 S 
ATOM     27  C   UNL     1       6.070  14.454  24.460  0.00  0.00    +0.000 C 
ATOM     28  O   UNL     1       6.310  13.189  22.201  0.00  0.00    +0.000 OA
ATOM     29  O   UNL     1       8.355  14.092  23.338  0.00  0.00    +0.000 OA
ENDBRANCH   7  26
TORSDOF 1
ENDMDL
MODEL 3
REMARK VINA RESULT:      -5.8      2.169      7.337
REMARK  Name = 
REMARK  4 active torsions:
REMARK  status: ('A' for Active; 'I' for Inactive)
REMARK    1  A    between atoms: C_1  and  C_2
REMARK    2  A    between atoms: C_7  and  S_8
REMARK    3  A    between atoms: S_8  and  C_9
REMARK    4  A    between atoms: C_19  and  C_20
REMARK                            x       y       z     vdW  Elec       q    Type
REMARK                         _______ _______ _______ _____ _____    ______ ____
ROOT
ATOM      1  C   UNL     1       0.530  17.505  21.058  0.00  0.00    +0.000 C 
ATOM      2  C   UNL     1       0.475  16.150  20.289  0.00  0.00    +0.000 C 
ATOM      3  C   UNL     1      -0.766  16.169  19.384  0.00  0.00    +0.000 C 
ATOM      4  C   UNL     1      -2.063  16.169  20.209  0.00  0.00    +0.000 C 
ATOM      5  C   UNL     1      -2.147  14.970  21.192  0.00  0.00    +0.000 C 
ATOM      6  C   UNL     1      -0.862  14.820  22.075  0.00  0.00    +0.000 C 
ATOM      7  C   UNL     1      -0.912  13.533  22.962  0.00  0.00    +0.000 C 
ATOM      8  C   UNL     1      -2.187  13.550  23.808  0.00  0.00    +0.000 C 
ATOM      9  C   UNL     1      -3.444  13.732  22.992  0.00  0.00    +0.000 C 
ATOM     10  C   UNL     1      -4.453  12.851  23.124  0.00  0.00    +0.000 C 
ATOM     11  C   UNL     1      -5.737  13.014  22.404  0.00  0.00    +0.000 C 
ATOM     12  O   UNL     1      -6.597  12.143  22.503  0.00  0.00    +0.000 OA
ATOM     13  C   UNL     1      -5.969  14.306  21.669  0.00  0.00    +0.000 C 
ATOM     14  C   UNL     1      -4.675  14.790  21.033  0.00  0.00    +0.000 C 
ATOM     15  C   UNL     1      -3.484  14.928  22.030  0.00  0.00    +0.000 C 
ATOM     16  C   UNL     1      -3.690  16.214  22.867  0.00  0.00    +0.000 C 
ATOM     17  C   UNL     1       0.395  14.910  21.201  0.00  0.00    +0.000 C 
ATOM     18  C   UNL     1       1.763  14.899  21.889  0.00  0.00    +0.000 C 
ATOM     19  C   UNL     1       2.734  15.483  20.842  0.00  0.00    +0.000 C 
ATOM     20  C   UNL     1       1.855  15.870  19.620  0.00  0.00    +0.000 C 
ATOM     21  C   UNL     1       1.900  14.775  18.554  0.00  0.00    +0.000 C 
ATOM     22  C   UNL     1       3.124  15.140  17.748  0.00  0.00    +0.000 C 
ATOM     23  C   UNL     1       3.151  16.630  17.895  0.00  0.00    +0.000 C 
ATOM     24  O   UNL     1       3.789  17.395  17.191  0.00  0.00    +0.000 OA
ATOM     25  O   UNL     1       2.384  17.019  18.954  0.00  0.00    +0.000 OA
ENDROOT
BRANCH   7  26
ATOM     26  S   UNL     1      -0.716  11.954  22.056  0.00  0.00    +0.000 S 
ATOM     27  C   UNL     1      -1.242  10.673  23.171  0.00  0.00    +0.000 C 
ATOM     28  O   UNL     1      -1.621  11.923  20.924  0.00  0.00    +0.000 OA
ATOM     29  O   UNL     1       0.700  11.723  21.853  0.00  0.00    +0.000 OA
ENDBRANCH   7  26
TORSDOF 1
ENDMDL
MODEL 4
REMARK VINA RESULT:      -5.7      3.499      5.187
REMARK  Name = 
REMARK  4 active torsions:
REMARK  status: ('A' for Active; 'I' for Inactive)
REMARK    1  A    between atoms: C_1  and  C_2
REMARK    2  A    between atoms: C_7  and  S_8
REMARK    3  A    between atoms: S_8  and  C_9
REMARK    4  A    between atoms: C_19  and  C_20
REMARK                            x       y       z     vdW  Elec       q    Type
REMARK                         _______ _______ _______ _____ _____    ______ ____
ROOT
ATOM      1  C   UNL     1      -4.239  12.723  22.867  0.00  0.00    +0.000 C 
ATOM      2  C   UNL     1      -3.351  13.673  22.009  0.00  0.00    +0.000 C 
ATOM      3  C   UNL     1      -4.192  14.169  20.823  0.00  0.00    +0.000 C 
ATOM      4  C   UNL     1      -4.532  13.021  19.857  0.00  0.00    +0.000 C 
ATOM      5  C   UNL     1      -3.267  12.286  19.335  0.00  0.00    +0.000 C 
ATOM      6  C   UNL     1      -2.302  11.848  20.488  0.00  0.00    +0.000 C 
ATOM      7  C   UNL     1      -0.978  11.228  19.935  0.00  0.00    +0.000 C 
ATOM      8  C   UNL     1      -1.314  10.064  19.000  0.00  0.00    +0.000 C 
ATOM      9  C   UNL     1      -2.275  10.442  17.897  0.00  0.00    +0.000 C 
ATOM     10  C   UNL     1      -1.947  10.186  16.617  0.00  0.00    +0.000 C 
ATOM     11  C   UNL     1      -2.874  10.469  15.498  0.00  0.00    +0.000 C 
ATOM     12  O   UNL     1      -2.498  10.285  14.343  0.00  0.00    +0.000 OA
ATOM     13  C   UNL     1      -4.285  10.865  15.839  0.00  0.00    +0.000 C 
ATOM     14  C   UNL     1      -4.300  11.746  17.079  0.00  0.00    +0.000 C 
ATOM     15  C   UNL     1      -3.585  11.122  18.316  0.00  0.00    +0.000 C 
ATOM     16  C   UNL     1      -4.514  10.046  18.929  0.00  0.00    +0.000 C 
ATOM     17  C   UNL     1      -2.071  13.013  21.457  0.00  0.00    +0.000 C 
ATOM     18  C   UNL     1      -1.243  12.758  22.720  0.00  0.00    +0.000 C 
ATOM     19  C   UNL     1      -1.609  13.917  23.670  0.00  0.00    +0.000 C 
ATOM     20  C   UNL     1      -2.693  14.748  22.927  0.00  0.00    +0.000 C 
ATOM     21  C   UNL     1      -2.065  15.959  22.239  0.00  0.00    +0.000 C 
ATOM     22  C   UNL     1      -2.061  17.003  23.330  0.00  0.00    +0.000 C 
ATOM     23  C   UNL     1      -3.261  16.607  24.133  0.00  0.00    +0.000 C 
ATOM     24  O   UNL     1      -3.827  17.314  24.949  0.00  0.00    +0.000 OA
ATOM     25  O   UNL     1      -3.620  15.321  23.851  0.00  0.00    +0.000 OA
ENDROOT
BRANCH   7  26
ATOM     26  S   UNL     1       0.173  12.419  19.153  0.00  0.00    +0.000 S 
ATOM     27  C   UNL     1       1.448  11.447  18.384  0.00  0.00    +0.000 C 
ATOM     28  O   UNL     1      -0.508  13.134  18.092  0.00  0.00    +0.000 OA
ATOM     29  O   UNL     1       0.842  13.158  20.206  0.00  0.00    +0.000 OA
ENDBRANCH   7  26
TORSDOF 1
ENDMDL
MODEL 5
REMARK VINA RESULT:      -5.7      2.269      3.723
REMARK  Name = 
REMARK  4 active torsions:
REMARK  status: ('A' for Active; 'I' for Inactive)
REMARK    1  A    between atoms: C_1  and  C_2
REMARK    2  A    between atoms: C_7  and  S_8
REMARK    3  A    between atoms: S_8  and  C_9
REMARK    4  A    between atoms: C_19  and  C_20
REMARK                            x       y       z     vdW  Elec       q    Type
REMARK                         _______ _______ _______ _____ _____    ______ ____
ROOT
ATOM      1  C   UNL     1      -4.900  15.497  20.594  0.00  0.00    +0.000 C 
ATOM      2  C   UNL     1      -4.060  14.688  21.627  0.00  0.00    +0.000 C 
ATOM      3  C   UNL     1      -3.277  15.689  22.491  0.00  0.00    +0.000 C 
ATOM      4  C   UNL     1      -2.214  16.433  21.664  0.00  0.00    +0.000 C 
ATOM      5  C   UNL     1      -1.228  15.467  20.951  0.00  0.00    +0.000 C 
ATOM      6  C   UNL     1      -1.960  14.346  20.138  0.00  0.00    +0.000 C 
ATOM      7  C   UNL     1      -0.953  13.311  19.539  0.00  0.00    +0.000 C 
ATOM      8  C   UNL     1       0.085  14.047  18.688  0.00  0.00    +0.000 C 
ATOM      9  C   UNL     1       0.783  15.163  19.430  0.00  0.00    +0.000 C 
ATOM     10  C   UNL     1       2.128  15.191  19.469  0.00  0.00    +0.000 C 
ATOM     11  C   UNL     1       2.871  16.294  20.120  0.00  0.00    +0.000 C 
ATOM     12  O   UNL     1       4.096  16.235  20.192  0.00  0.00    +0.000 OA
ATOM     13  C   UNL     1       2.088  17.499  20.566  0.00  0.00    +0.000 C 
ATOM     14  C   UNL     1       0.731  17.075  21.106  0.00  0.00    +0.000 C 
ATOM     15  C   UNL     1      -0.107  16.205  20.120  0.00  0.00    +0.000 C 
ATOM     16  C   UNL     1      -0.700  17.131  19.030  0.00  0.00    +0.000 C 
ATOM     17  C   UNL     1      -3.058  13.703  20.993  0.00  0.00    +0.000 C 
ATOM     18  C   UNL     1      -3.969  12.656  20.343  0.00  0.00    +0.000 C 
ATOM     19  C   UNL     1      -5.207  12.590  21.260  0.00  0.00    +0.000 C 
ATOM     20  C   UNL     1      -4.977  13.663  22.362  0.00  0.00    +0.000 C 
ATOM     21  C   UNL     1      -4.422  13.020  23.632  0.00  0.00    +0.000 C 
ATOM     22  C   UNL     1      -5.670  12.586  24.363  0.00  0.00    +0.000 C 
ATOM     23  C   UNL     1      -6.660  13.613  23.910  0.00  0.00    +0.000 C 
ATOM     24  O   UNL     1      -7.730  13.846  24.447  0.00  0.00    +0.000 OA
ATOM     25  O   UNL     1      -6.216  14.239  22.781  0.00  0.00    +0.000 OA
ENDROOT
BRANCH   7  26
ATOM     26  S   UNL     1      -0.166  12.193  20.757  0.00  0.00    +0.000 S 
ATOM     27  C   UNL     1       1.300  11.558  19.976  0.00  0.00    +0.000 C 
ATOM     28  O   UNL     1       0.269  12.954  21.912  0.00  0.00    +0.000 OA
ATOM     29  O   UNL     1      -1.029  11.042  20.937  0.00  0.00    +0.000 OA
ENDBRANCH   7  26
TORSDOF 1
ENDMDL
MODEL 6
REMARK VINA RESULT:      -5.7      3.362      4.668
REMARK  Name = 
REMARK  4 active torsions:
REMARK  status: ('A' for Active; 'I' for Inactive)
REMARK    1  A    between atoms: C_1  and  C_2
REMARK    2  A    between atoms: C_7  and  S_8
REMARK    3  A    between atoms: S_8  and  C_9
REMARK    4  A    between atoms: C_19  and  C_20
REMARK                            x       y       z     vdW  Elec       q    Type
REMARK                         _______ _______ _______ _____ _____    ______ ____
ROOT
ATOM      1  C   UNL     1      -3.218  14.627  22.790  0.00  0.00    +0.000 C 
ATOM      2  C   UNL     1      -3.941  13.367  22.226  0.00  0.00    +0.000 C 
ATOM      3  C   UNL     1      -3.403  12.137  22.973  0.00  0.00    +0.000 C 
ATOM      4  C   UNL     1      -1.922  11.883  22.642  0.00  0.00    +0.000 C 
ATOM      5  C   UNL     1      -1.667  11.727  21.118  0.00  0.00    +0.000 C 
ATOM      6  C   UNL     1      -2.289  12.894  20.278  0.00  0.00    +0.000 C 
ATOM      7  C   UNL     1      -2.135  12.651  18.742  0.00  0.00    +0.000 C 
ATOM      8  C   UNL     1      -0.657  12.432  18.408  0.00  0.00    +0.000 C 
ATOM      9  C   UNL     1      -0.015  11.338  19.229  0.00  0.00    +0.000 C 
ATOM     10  C   UNL     1       0.632  10.336  18.605  0.00  0.00    +0.000 C 
ATOM     11  C   UNL     1       1.340   9.274  19.355  0.00  0.00    +0.000 C 
ATOM     12  O   UNL     1       1.853   8.342  18.739  0.00  0.00    +0.000 OA
ATOM     13  C   UNL     1       1.495   9.448  20.841  0.00  0.00    +0.000 C 
ATOM     14  C   UNL     1       0.248  10.090  21.429  0.00  0.00    +0.000 C 
ATOM     15  C   UNL     1      -0.159  11.434  20.754  0.00  0.00    +0.000 C 
ATOM     16  C   UNL     1       0.792  12.546  21.260  0.00  0.00    +0.000 C 
ATOM     17  C   UNL     1      -3.737  13.148  20.713  0.00  0.00    +0.000 C 
ATOM     18  C   UNL     1      -4.490  14.327  20.089  0.00  0.00    +0.000 C 
ATOM     19  C   UNL     1      -5.662  14.598  21.054  0.00  0.00    +0.000 C 
ATOM     20  C   UNL     1      -5.482  13.599  22.231  0.00  0.00    +0.000 C 
ATOM     21  C   UNL     1      -6.370  12.371  22.036  0.00  0.00    +0.000 C 
ATOM     22  C   UNL     1      -7.682  12.802  22.647  0.00  0.00    +0.000 C 
ATOM     23  C   UNL     1      -7.224  13.758  23.705  0.00  0.00    +0.000 C 
ATOM     24  O   UNL     1      -7.900  14.146  24.644  0.00  0.00    +0.000 OA
ATOM     25  O   UNL     1      -5.946  14.167  23.458  0.00  0.00    +0.000 OA
ENDROOT
BRANCH   7  26
ATOM     26  S   UNL     1      -3.193  11.325  18.053  0.00  0.00    +0.000 S 
ATOM     27  C   UNL     1      -2.688  11.115  16.360  0.00  0.00    +0.000 C 
ATOM     28  O   UNL     1      -2.916  10.074  18.732  0.00  0.00    +0.000 OA
ATOM     29  O   UNL     1      -4.553  11.821  17.984  0.00  0.00    +0.000 OA
ENDBRANCH   7  26
TORSDOF 1
ENDMDL
MODEL 7
REMARK VINA RESULT:      -5.7      1.964      7.362
REMARK  Name = 
REMARK  4 active torsions:
REMARK  status: ('A' for Active; 'I' for Inactive)
REMARK    1  A    between atoms: C_1  and  C_2
REMARK    2  A    between atoms: C_7  and  S_8
REMARK    3  A    between atoms: S_8  and  C_9
REMARK    4  A    between atoms: C_19  and  C_20
REMARK                            x       y       z     vdW  Elec       q    Type
REMARK                         _______ _______ _______ _____ _____    ______ ____
ROOT
ATOM      1  C   UNL     1       2.557  13.793  17.981  0.00  0.00    +0.000 C 
ATOM      2  C   UNL     1       2.580  14.656  19.278  0.00  0.00    +0.000 C 
ATOM      3  C   UNL     1       2.852  13.721  20.466  0.00  0.00    +0.000 C 
ATOM      4  C   UNL     1       1.680  12.751  20.697  0.00  0.00    +0.000 C 
ATOM      5  C   UNL     1       0.328  13.487  20.904  0.00  0.00    +0.000 C 
ATOM      6  C   UNL     1       0.035  14.543  19.785  0.00  0.00    +0.000 C 
ATOM      7  C   UNL     1      -1.263  15.361  20.083  0.00  0.00    +0.000 C 
ATOM      8  C   UNL     1      -2.436  14.398  20.279  0.00  0.00    +0.000 C 
ATOM      9  C   UNL     1      -2.173  13.340  21.326  0.00  0.00    +0.000 C 
ATOM     10  C   UNL     1      -3.048  13.175  22.335  0.00  0.00    +0.000 C 
ATOM     11  C   UNL     1      -2.881  12.112  23.352  0.00  0.00    +0.000 C 
ATOM     12  O   UNL     1      -3.668  12.050  24.293  0.00  0.00    +0.000 OA
ATOM     13  C   UNL     1      -1.813  11.079  23.118  0.00  0.00    +0.000 C 
ATOM     14  C   UNL     1      -0.589  11.722  22.484  0.00  0.00    +0.000 C 
ATOM     15  C   UNL     1      -0.887  12.515  21.176  0.00  0.00    +0.000 C 
ATOM     16  C   UNL     1      -1.095  11.503  20.023  0.00  0.00    +0.000 C 
ATOM     17  C   UNL     1       1.269  15.421  19.550  0.00  0.00    +0.000 C 
ATOM     18  C   UNL     1       1.227  16.447  18.413  0.00  0.00    +0.000 C 
ATOM     19  C   UNL     1       2.706  16.784  18.133  0.00  0.00    +0.000 C 
ATOM     20  C   UNL     1       3.535  15.873  19.083  0.00  0.00    +0.000 C 
ATOM     21  C   UNL     1       3.950  16.639  20.338  0.00  0.00    +0.000 C 
ATOM     22  C   UNL     1       5.235  17.310  19.915  0.00  0.00    +0.000 C 
ATOM     23  C   UNL     1       5.768  16.337  18.909  0.00  0.00    +0.000 C 
ATOM     24  O   UNL     1       6.917  16.303  18.502  0.00  0.00    +0.000 OA
ATOM     25  O   UNL     1       4.777  15.503  18.480  0.00  0.00    +0.000 OA
ENDROOT
BRANCH   7  26
ATOM     26  S   UNL     1      -1.130  16.562  21.459  0.00  0.00    +0.000 S 
ATOM     27  C   UNL     1      -2.792  16.877  22.006  0.00  0.00    +0.000 C 
ATOM     28  O   UNL     1      -0.429  15.954  22.573  0.00  0.00    +0.000 OA
ATOM     29  O   UNL     1      -0.664  17.821  20.915  0.00  0.00    +0.000 OA
ENDBRANCH   7  26
TORSDOF 1
ENDMDL
MODEL 8
REMARK VINA RESULT:      -5.6      2.977      7.214
REMARK  Name = 
REMARK  4 active torsions:
REMARK  status: ('A' for Active; 'I' for Inactive)
REMARK    1  A    between atoms: C_1  and  C_2
REMARK    2  A    between atoms: C_7  and  S_8
REMARK    3  A    between atoms: S_8  and  C_9
REMARK    4  A    between atoms: C_19  and  C_20
REMARK                            x       y       z     vdW  Elec       q    Type
REMARK                         _______ _______ _______ _____ _____    ______ ____
ROOT
ATOM      1  C   UNL     1      -1.199  12.260  17.539  0.00  0.00    +0.000 C 
ATOM      2  C   UNL     1      -1.121  11.478  18.884  0.00  0.00    +0.000 C 
ATOM      3  C   UNL     1      -2.329  10.532  18.955  0.00  0.00    +0.000 C 
ATOM      4  C   UNL     1      -3.648  11.314  19.068  0.00  0.00    +0.000 C 
ATOM      5  C   UNL     1      -3.667  12.284  20.281  0.00  0.00    +0.000 C 
ATOM      6  C   UNL     1      -2.403  13.208  20.337  0.00  0.00    +0.000 C 
ATOM      7  C   UNL     1      -2.379  14.081  21.633  0.00  0.00    +0.000 C 
ATOM      8  C   UNL     1      -3.678  14.885  21.728  0.00  0.00    +0.000 C 
ATOM      9  C   UNL     1      -4.919  14.029  21.638  0.00  0.00    +0.000 C 
ATOM     10  C   UNL     1      -5.858  14.120  22.598  0.00  0.00    +0.000 C 
ATOM     11  C   UNL     1      -7.126  13.359  22.530  0.00  0.00    +0.000 C 
ATOM     12  O   UNL     1      -7.916  13.422  23.468  0.00  0.00    +0.000 OA
ATOM     13  C   UNL     1      -7.437  12.627  21.254  0.00  0.00    +0.000 C 
ATOM     14  C   UNL     1      -6.166  12.039  20.660  0.00  0.00    +0.000 C 
ATOM     15  C   UNL     1      -5.024  13.076  20.438  0.00  0.00    +0.000 C 
ATOM     16  C   UNL     1      -5.359  13.917  19.183  0.00  0.00    +0.000 C 
ATOM     17  C   UNL     1      -1.131  12.377  20.138  0.00  0.00    +0.000 C 
ATOM     18  C   UNL     1       0.212  13.110  20.047  0.00  0.00    +0.000 C 
ATOM     19  C   UNL     1       1.165  12.100  19.376  0.00  0.00    +0.000 C 
ATOM     20  C   UNL     1       0.298  10.852  19.046  0.00  0.00    +0.000 C 
ATOM     21  C   UNL     1       0.466   9.780  20.122  0.00  0.00    +0.000 C 
ATOM     22  C   UNL     1       1.682   9.018  19.652  0.00  0.00    +0.000 C 
ATOM     23  C   UNL     1       1.584   9.178  18.166  0.00  0.00    +0.000 C 
ATOM     24  O   UNL     1       2.181   8.503  17.344  0.00  0.00    +0.000 OA
ATOM     25  O   UNL     1       0.755  10.214  17.852  0.00  0.00    +0.000 OA
ENDROOT
BRANCH   7  26
ATOM     26  S   UNL     1      -2.027  13.169  23.182  0.00  0.00    +0.000 S 
ATOM     27  C   UNL     1      -2.691  14.158  24.503  0.00  0.00    +0.000 C 
ATOM     28  O   UNL     1      -2.756  11.916  23.188  0.00  0.00    +0.000 OA
ATOM     29  O   UNL     1      -0.593  13.170  23.391  0.00  0.00    +0.000 OA
ENDBRANCH   7  26
TORSDOF 1
ENDMDL
MODEL 9
REMARK VINA RESULT:      -5.6      1.082      1.193
REMARK  Name = 
REMARK  4 active torsions:
REMARK  status: ('A' for Active; 'I' for Inactive)
REMARK    1  A    between atoms: C_1  and  C_2
REMARK    2  A    between atoms: C_7  and  S_8
REMARK    3  A    between atoms: S_8  and  C_9
REMARK    4  A    between atoms: C_19  and  C_20
REMARK                            x       y       z     vdW  Elec       q    Type
REMARK                         _______ _______ _______ _____ _____    ______ ____
ROOT
ATOM      1  C   UNL     1      -1.820  11.960  22.815  0.00  0.00    +0.000 C 
ATOM      2  C   UNL     1      -2.390  13.285  22.226  0.00  0.00    +0.000 C 
ATOM      3  C   UNL     1      -2.294  13.204  20.695  0.00  0.00    +0.000 C 
ATOM      4  C   UNL     1      -0.830  13.199  20.224  0.00  0.00    +0.000 C 
ATOM      5  C   UNL     1      -0.032  14.429  20.738  0.00  0.00    +0.000 C 
ATOM      6  C   UNL     1      -0.175  14.641  22.283  0.00  0.00    +0.000 C 
ATOM      7  C   UNL     1       0.526  15.955  22.757  0.00  0.00    +0.000 C 
ATOM      8  C   UNL     1       1.992  15.934  22.318  0.00  0.00    +0.000 C 
ATOM      9  C   UNL     1       2.169  15.693  20.837  0.00  0.00    +0.000 C 
ATOM     10  C   UNL     1       2.907  16.552  20.109  0.00  0.00    +0.000 C 
ATOM     11  C   UNL     1       3.175  16.332  18.670  0.00  0.00    +0.000 C 
ATOM     12  O   UNL     1       3.792  17.184  18.036  0.00  0.00    +0.000 OA
ATOM     13  C   UNL     1       2.770  15.011  18.075  0.00  0.00    +0.000 C 
ATOM     14  C   UNL     1       1.459  14.538  18.685  0.00  0.00    +0.000 C 
ATOM     15  C   UNL     1       1.467  14.465  20.242  0.00  0.00    +0.000 C 
ATOM     16  C   UNL     1       2.255  13.203  20.670  0.00  0.00    +0.000 C 
ATOM     17  C   UNL     1      -1.649  14.553  22.695  0.00  0.00    +0.000 C 
ATOM     18  C   UNL     1      -1.994  14.622  24.186  0.00  0.00    +0.000 C 
ATOM     19  C   UNL     1      -3.414  14.028  24.288  0.00  0.00    +0.000 C 
ATOM     20  C   UNL     1      -3.789  13.577  22.848  0.00  0.00    +0.000 C 
ATOM     21  C   UNL     1      -4.648  14.637  22.158  0.00  0.00    +0.000 C 
ATOM     22  C   UNL     1      -6.047  14.276  22.599  0.00  0.00    +0.000 C 
ATOM     23  C   UNL     1      -5.937  12.793  22.775  0.00  0.00    +0.000 C 
ATOM     24  O   UNL     1      -6.878  12.021  22.848  0.00  0.00    +0.000 OA
ATOM     25  O   UNL     1      -4.628  12.421  22.877  0.00  0.00    +0.000 OA
ENDROOT
BRANCH   7  26
ATOM     26  S   UNL     1      -0.311  17.507  22.265  0.00  0.00    +0.000 S 
ATOM     27  C   UNL     1      -1.217  18.058  23.693  0.00  0.00    +0.000 C 
ATOM     28  O   UNL     1       0.678  18.526  21.975  0.00  0.00    +0.000 OA
ATOM     29  O   UNL     1      -1.321  17.182  21.278  0.00  0.00    +0.000 OA
ENDBRANCH   7  26
TORSDOF 1
ENDMDL
