MODEL 1
REMARK VINA RESULT:      -7.5      0.000      0.000
REMARK  Name = 
REMARK  5 active torsions:
REMARK  status: ('A' for Active; 'I' for Inactive)
REMARK    1  A    between atoms: C_2  and  C_25
REMARK    2  A    between atoms: N_3  and  C_4
REMARK    3  A    between atoms: C_6  and  S_7
REMARK    4  A    between atoms: S_7  and  N_10
REMARK    5  A    between atoms: C_18  and  N_19
REMARK                            x       y       z     vdW  Elec       q    Type
REMARK                         _______ _______ _______ _____ _____    ______ ____
ROOT
ATOM      1  C   UNL     1       2.602   6.819  18.500  0.00  0.00    +0.000 A 
ATOM      2  C   UNL     1       2.226   8.143  18.203  0.00  0.00    +0.000 A 
ATOM      3  C   UNL     1       1.575   8.927  19.158  0.00  0.00    +0.000 A 
ATOM      4  C   UNL     1       1.234   8.374  20.387  0.00  0.00    +0.000 A 
ATOM      5  C   UNL     1       1.610   7.056  20.673  0.00  0.00    +0.000 A 
ATOM      6  C   UNL     1       2.361   6.260  19.780  0.00  0.00    +0.000 A 
ENDROOT
BRANCH   6   7
ATOM      7  N   UNL     1       2.854   5.026  20.193  0.00  0.00    +0.000 N 
ATOM      8  C   UNL     1       4.270   4.687  19.984  0.00  0.00    +0.000 C 
ATOM      9  C   UNL     1       4.345   3.267  19.426  0.00  0.00    +0.000 C 
ATOM     10  C   UNL     1       3.621   2.271  20.330  0.00  0.00    +0.000 C 
ATOM     11  C   UNL     1       2.200   2.740  20.654  0.00  0.00    +0.000 C 
ATOM     12  C   UNL     1       2.193   4.179  21.190  0.00  0.00    +0.000 C 
ENDBRANCH   6   7
BRANCH   1  15
ATOM     13  O   UNL     1       5.347   7.189  17.958  0.00  0.00    +0.000 OA
ATOM     14  C   UNL     1       4.690   6.374  17.313  0.00  0.00    +0.000 C 
ATOM     15  N   UNL     1       3.341   6.118  17.517  0.00  0.00    +0.000 N 
ATOM     16  H   UNL     1       2.790   5.657  16.810  0.00  0.00    +0.000 HD
BRANCH  14  17
ATOM     17  C   UNL     1       5.379   5.631  16.224  0.00  0.00    +0.000 A 
ATOM     18  C   UNL     1       6.763   5.799  16.119  0.00  0.00    +0.000 A 
ATOM     19  C   UNL     1       7.436   5.124  15.120  0.00  0.00    +0.000 A 
ATOM     20  N   UNL     1       6.826   4.319  14.225  0.00  0.00    +0.000 NA
ATOM     21  C   UNL     1       5.487   4.191  14.329  0.00  0.00    +0.000 A 
ATOM     22  C   UNL     1       4.722   4.820  15.300  0.00  0.00    +0.000 A 
ENDBRANCH  14  17
ENDBRANCH   1  15
BRANCH   3  23
ATOM     23  S   UNL     1       1.350  10.676  18.872  0.00  0.00    +0.000 S 
ATOM     24  O   UNL     1       1.419  11.333  20.161  0.00  0.00    +0.000 OA
ATOM     25  O   UNL     1       2.256  11.053  17.800  0.00  0.00    +0.000 OA
BRANCH  23  26
ATOM     26  N   UNL     1      -0.252  10.801  18.292  0.00  0.00    +0.000 NA
ATOM     27  C   UNL     1      -0.726   9.639  17.498  0.00  0.00    +0.000 C 
ATOM     28  C   UNL     1      -2.080   9.923  16.858  0.00  0.00    +0.000 C 
ATOM     29  C   UNL     1      -3.095  10.365  17.902  0.00  0.00    +0.000 C 
ATOM     30  C   UNL     1      -2.578  11.602  18.621  0.00  0.00    +0.000 C 
ATOM     31  C   UNL     1      -1.228  11.331  19.279  0.00  0.00    +0.000 C 
ENDBRANCH  23  26
ENDBRANCH   3  23
TORSDOF 5
ENDMDL
MODEL 2
REMARK VINA RESULT:      -7.5      2.657      7.475
REMARK  Name = 
REMARK  5 active torsions:
REMARK  status: ('A' for Active; 'I' for Inactive)
REMARK    1  A    between atoms: C_2  and  C_25
REMARK    2  A    between atoms: N_3  and  C_4
REMARK    3  A    between atoms: C_6  and  S_7
REMARK    4  A    between atoms: S_7  and  N_10
REMARK    5  A    between atoms: C_18  and  N_19
REMARK                            x       y       z     vdW  Elec       q    Type
REMARK                         _______ _______ _______ _____ _____    ______ ____
ROOT
ATOM      1  C   UNL     1       4.037   5.380  18.684  0.00  0.00    +0.000 A 
ATOM      2  C   UNL     1       4.860   5.966  17.703  0.00  0.00    +0.000 A 
ATOM      3  C   UNL     1       5.545   5.170  16.784  0.00  0.00    +0.000 A 
ATOM      4  C   UNL     1       5.469   3.785  16.880  0.00  0.00    +0.000 A 
ATOM      5  C   UNL     1       4.651   3.211  17.860  0.00  0.00    +0.000 A 
ATOM      6  C   UNL     1       3.857   3.975  18.743  0.00  0.00    +0.000 A 
ENDROOT
BRANCH   6   7
ATOM      7  N   UNL     1       2.933   3.346  19.572  0.00  0.00    +0.000 N 
ATOM      8  C   UNL     1       1.528   3.219  19.153  0.00  0.00    +0.000 C 
ATOM      9  C   UNL     1       0.640   3.603  20.335  0.00  0.00    +0.000 C 
ATOM     10  C   UNL     1       0.969   2.774  21.576  0.00  0.00    +0.000 C 
ATOM     11  C   UNL     1       2.468   2.803  21.886  0.00  0.00    +0.000 C 
ATOM     12  C   UNL     1       3.304   2.429  20.654  0.00  0.00    +0.000 C 
ENDBRANCH   6   7
BRANCH   1  15
ATOM     13  O   UNL     1       2.198   7.325  17.787  0.00  0.00    +0.000 OA
ATOM     14  C   UNL     1       2.424   7.188  18.989  0.00  0.00    +0.000 C 
ATOM     15  N   UNL     1       3.301   6.253  19.520  0.00  0.00    +0.000 N 
ATOM     16  H   UNL     1       3.654   6.352  20.458  0.00  0.00    +0.000 HD
BRANCH  14  17
ATOM     17  C   UNL     1       1.730   8.104  19.934  0.00  0.00    +0.000 A 
ATOM     18  C   UNL     1       1.220   9.293  19.405  0.00  0.00    +0.000 A 
ATOM     19  C   UNL     1       0.568  10.167  20.254  0.00  0.00    +0.000 A 
ATOM     20  N   UNL     1       0.410   9.940  21.574  0.00  0.00    +0.000 NA
ATOM     21  C   UNL     1       0.931   8.798  22.067  0.00  0.00    +0.000 A 
ATOM     22  C   UNL     1       1.595   7.855  21.298  0.00  0.00    +0.000 A 
ENDBRANCH  14  17
ENDBRANCH   1  15
BRANCH   3  23
ATOM     23  S   UNL     1       6.361   5.923  15.384  0.00  0.00    +0.000 S 
ATOM     24  O   UNL     1       5.522   7.016  14.937  0.00  0.00    +0.000 OA
ATOM     25  O   UNL     1       7.740   6.162  15.773  0.00  0.00    +0.000 OA
BRANCH  23  26
ATOM     26  N   UNL     1       6.342   4.707  14.185  0.00  0.00    +0.000 NA
ATOM     27  C   UNL     1       4.992   4.316  13.707  0.00  0.00    +0.000 C 
ATOM     28  C   UNL     1       5.061   3.097  12.795  0.00  0.00    +0.000 C 
ATOM     29  C   UNL     1       6.037   3.326  11.650  0.00  0.00    +0.000 C 
ATOM     30  C   UNL     1       7.414   3.647  12.213  0.00  0.00    +0.000 C 
ATOM     31  C   UNL     1       7.365   4.874  13.120  0.00  0.00    +0.000 C 
ENDBRANCH  23  26
ENDBRANCH   3  23
TORSDOF 5
ENDMDL
MODEL 3
REMARK VINA RESULT:      -7.4      6.681      9.386
REMARK  Name = 
REMARK  5 active torsions:
REMARK  status: ('A' for Active; 'I' for Inactive)
REMARK    1  A    between atoms: C_2  and  C_25
REMARK    2  A    between atoms: N_3  and  C_4
REMARK    3  A    between atoms: C_6  and  S_7
REMARK    4  A    between atoms: S_7  and  N_10
REMARK    5  A    between atoms: C_18  and  N_19
REMARK                            x       y       z     vdW  Elec       q    Type
REMARK                         _______ _______ _______ _____ _____    ______ ____
ROOT
ATOM      1  C   UNL     1      -3.661  12.641  19.797  0.00  0.00    +0.000 A 
ATOM      2  C   UNL     1      -4.048  13.130  21.059  0.00  0.00    +0.000 A 
ATOM      3  C   UNL     1      -5.278  12.770  21.613  0.00  0.00    +0.000 A 
ATOM      4  C   UNL     1      -6.157  11.979  20.882  0.00  0.00    +0.000 A 
ATOM      5  C   UNL     1      -5.766  11.499  19.627  0.00  0.00    +0.000 A 
ATOM      6  C   UNL     1      -4.491  11.748  19.072  0.00  0.00    +0.000 A 
ENDROOT
BRANCH   6   7
ATOM      7  N   UNL     1      -4.099  11.098  17.906  0.00  0.00    +0.000 N 
ATOM      8  C   UNL     1      -3.450   9.780  17.976  0.00  0.00    +0.000 C 
ATOM      9  C   UNL     1      -2.244   9.790  17.040  0.00  0.00    +0.000 C 
ATOM     10  C   UNL     1      -2.641  10.184  15.618  0.00  0.00    +0.000 C 
ATOM     11  C   UNL     1      -3.453  11.482  15.604  0.00  0.00    +0.000 C 
ATOM     12  C   UNL     1      -4.636  11.414  16.580  0.00  0.00    +0.000 C 
ENDBRANCH   6   7
BRANCH   1  15
ATOM     13  O   UNL     1      -1.302  11.235  20.451  0.00  0.00    +0.000 OA
ATOM     14  C   UNL     1      -1.255  12.228  19.725  0.00  0.00    +0.000 C 
ATOM     15  N   UNL     1      -2.362  12.972  19.343  0.00  0.00    +0.000 N 
ATOM     16  H   UNL     1      -2.256  13.908  18.983  0.00  0.00    +0.000 HD
BRANCH  14  17
ATOM     17  C   UNL     1       0.080  12.675  19.246  0.00  0.00    +0.000 A 
ATOM     18  C   UNL     1       0.971  11.681  18.833  0.00  0.00    +0.000 A 
ATOM     19  C   UNL     1       2.221  12.060  18.381  0.00  0.00    +0.000 A 
ATOM     20  N   UNL     1       2.635  13.343  18.332  0.00  0.00    +0.000 NA
ATOM     21  C   UNL     1       1.768  14.284  18.759  0.00  0.00    +0.000 A 
ATOM     22  C   UNL     1       0.491  14.007  19.222  0.00  0.00    +0.000 A 
ENDBRANCH  14  17
ENDBRANCH   1  15
BRANCH   3  23
ATOM     23  S   UNL     1      -5.641  13.169  23.316  0.00  0.00    +0.000 S 
ATOM     24  O   UNL     1      -7.048  13.505  23.388  0.00  0.00    +0.000 OA
ATOM     25  O   UNL     1      -5.095  12.095  24.130  0.00  0.00    +0.000 OA
BRANCH  23  26
ATOM     26  N   UNL     1      -4.734  14.585  23.616  0.00  0.00    +0.000 NA
ATOM     27  C   UNL     1      -5.541  15.799  23.900  0.00  0.00    +0.000 C 
ATOM     28  C   UNL     1      -4.664  17.044  23.955  0.00  0.00    +0.000 C 
ATOM     29  C   UNL     1      -3.520  16.864  24.942  0.00  0.00    +0.000 C 
ATOM     30  C   UNL     1      -2.693  15.649  24.546  0.00  0.00    +0.000 C 
ATOM     31  C   UNL     1      -3.555  14.390  24.499  0.00  0.00    +0.000 C 
ENDBRANCH  23  26
ENDBRANCH   3  23
TORSDOF 5
ENDMDL
MODEL 4
REMARK VINA RESULT:      -7.4      4.349      8.002
REMARK  Name = 
REMARK  5 active torsions:
REMARK  status: ('A' for Active; 'I' for Inactive)
REMARK    1  A    between atoms: C_2  and  C_25
REMARK    2  A    between atoms: N_3  and  C_4
REMARK    3  A    between atoms: C_6  and  S_7
REMARK    4  A    between atoms: S_7  and  N_10
REMARK    5  A    between atoms: C_18  and  N_19
REMARK                            x       y       z     vdW  Elec       q    Type
REMARK                         _______ _______ _______ _____ _____    ______ ____
ROOT
ATOM      1  C   UNL     1      -1.115  12.611  21.318  0.00  0.00    +0.000 A 
ATOM      2  C   UNL     1      -2.435  12.374  21.748  0.00  0.00    +0.000 A 
ATOM      3  C   UNL     1      -3.341  13.428  21.870  0.00  0.00    +0.000 A 
ATOM      4  C   UNL     1      -2.919  14.731  21.633  0.00  0.00    +0.000 A 
ATOM      5  C   UNL     1      -1.605  14.959  21.210  0.00  0.00    +0.000 A 
ATOM      6  C   UNL     1      -0.682  13.916  20.969  0.00  0.00    +0.000 A 
ENDROOT
BRANCH   6   7
ATOM      7  N   UNL     1       0.547  14.194  20.381  0.00  0.00    +0.000 N 
ATOM      8  C   UNL     1       0.631  14.484  18.941  0.00  0.00    +0.000 C 
ATOM      9  C   UNL     1       1.799  13.690  18.360  0.00  0.00    +0.000 C 
ATOM     10  C   UNL     1       3.101  13.985  19.104  0.00  0.00    +0.000 C 
ATOM     11  C   UNL     1       2.929  13.827  20.616  0.00  0.00    +0.000 C 
ATOM     12  C   UNL     1       1.728  14.630  21.132  0.00  0.00    +0.000 C 
ENDBRANCH   6   7
BRANCH   1  15
ATOM     13  O   UNL     1      -0.819  11.200  18.892  0.00  0.00    +0.000 OA
ATOM     14  C   UNL     1      -0.206  10.845  19.898  0.00  0.00    +0.000 C 
ATOM     15  N   UNL     1      -0.281  11.484  21.127  0.00  0.00    +0.000 N 
ATOM     16  H   UNL     1       0.013  11.016  21.970  0.00  0.00    +0.000 HD
BRANCH  14  17
ATOM     17  C   UNL     1       0.653   9.634  19.796  0.00  0.00    +0.000 A 
ATOM     18  C   UNL     1       0.734   8.818  20.928  0.00  0.00    +0.000 A 
ATOM     19  C   UNL     1       1.522   7.685  20.870  0.00  0.00    +0.000 A 
ATOM     20  N   UNL     1       2.233   7.330  19.780  0.00  0.00    +0.000 NA
ATOM     21  C   UNL     1       2.159   8.145  18.708  0.00  0.00    +0.000 A 
ATOM     22  C   UNL     1       1.392   9.299  18.663  0.00  0.00    +0.000 A 
ENDBRANCH  14  17
ENDBRANCH   1  15
BRANCH   3  23
ATOM     23  S   UNL     1      -5.073  13.087  22.147  0.00  0.00    +0.000 S 
ATOM     24  O   UNL     1      -5.169  12.323  23.373  0.00  0.00    +0.000 OA
ATOM     25  O   UNL     1      -5.783  14.347  22.004  0.00  0.00    +0.000 OA
BRANCH  23  26
ATOM     26  N   UNL     1      -5.512  12.072  20.846  0.00  0.00    +0.000 NA
ATOM     27  C   UNL     1      -6.891  11.525  20.913  0.00  0.00    +0.000 C 
ATOM     28  C   UNL     1      -7.124  10.480  19.827  0.00  0.00    +0.000 C 
ATOM     29  C   UNL     1      -6.788  11.038  18.452  0.00  0.00    +0.000 C 
ATOM     30  C   UNL     1      -5.341  11.508  18.434  0.00  0.00    +0.000 C 
ATOM     31  C   UNL     1      -5.093  12.565  19.508  0.00  0.00    +0.000 C 
ENDBRANCH  23  26
ENDBRANCH   3  23
TORSDOF 5
ENDMDL
MODEL 5
REMARK VINA RESULT:      -7.3      1.867      2.506
REMARK  Name = 
REMARK  5 active torsions:
REMARK  status: ('A' for Active; 'I' for Inactive)
REMARK    1  A    between atoms: C_2  and  C_25
REMARK    2  A    between atoms: N_3  and  C_4
REMARK    3  A    between atoms: C_6  and  S_7
REMARK    4  A    between atoms: S_7  and  N_10
REMARK    5  A    between atoms: C_18  and  N_19
REMARK                            x       y       z     vdW  Elec       q    Type
REMARK                         _______ _______ _______ _____ _____    ______ ____
ROOT
ATOM      1  C   UNL     1       2.461   6.185  19.200  0.00  0.00    +0.000 A 
ATOM      2  C   UNL     1       2.153   7.462  19.708  0.00  0.00    +0.000 A 
ATOM      3  C   UNL     1       1.240   7.607  20.754  0.00  0.00    +0.000 A 
ATOM      4  C   UNL     1       0.577   6.490  21.250  0.00  0.00    +0.000 A 
ATOM      5  C   UNL     1       0.887   5.226  20.738  0.00  0.00    +0.000 A 
ATOM      6  C   UNL     1       1.880   5.017  19.754  0.00  0.00    +0.000 A 
ENDROOT
BRANCH   6   7
ATOM      7  N   UNL     1       2.265   3.723  19.416  0.00  0.00    +0.000 N 
ATOM      8  C   UNL     1       2.993   2.890  20.385  0.00  0.00    +0.000 C 
ATOM      9  C   UNL     1       4.160   2.222  19.661  0.00  0.00    +0.000 C 
ATOM     10  C   UNL     1       3.685   1.438  18.438  0.00  0.00    +0.000 C 
ATOM     11  C   UNL     1       2.797   2.295  17.534  0.00  0.00    +0.000 C 
ATOM     12  C   UNL     1       1.659   2.954  18.326  0.00  0.00    +0.000 C 
ENDBRANCH   6   7
BRANCH   1  15
ATOM     13  O   UNL     1       5.166   5.527  19.667  0.00  0.00    +0.000 OA
ATOM     14  C   UNL     1       4.775   5.785  18.529  0.00  0.00    +0.000 C 
ATOM     15  N   UNL     1       3.465   6.107  18.205  0.00  0.00    +0.000 N 
ATOM     16  H   UNL     1       3.247   6.565  17.334  0.00  0.00    +0.000 HD
BRANCH  14  17
ATOM     17  C   UNL     1       5.780   5.777  17.432  0.00  0.00    +0.000 A 
ATOM     18  C   UNL     1       5.709   4.724  16.516  0.00  0.00    +0.000 A 
ATOM     19  C   UNL     1       6.626   4.684  15.483  0.00  0.00    +0.000 A 
ATOM     20  N   UNL     1       7.599   5.604  15.318  0.00  0.00    +0.000 NA
ATOM     21  C   UNL     1       7.663   6.598  16.228  0.00  0.00    +0.000 A 
ATOM     22  C   UNL     1       6.787   6.730  17.294  0.00  0.00    +0.000 A 
ENDBRANCH  14  17
ENDBRANCH   1  15
BRANCH   3  23
ATOM     23  S   UNL     1       1.063   9.187  21.570  0.00  0.00    +0.000 S 
ATOM     24  O   UNL     1      -0.128   9.114  22.391  0.00  0.00    +0.000 OA
ATOM     25  O   UNL     1       2.351   9.507  22.162  0.00  0.00    +0.000 OA
BRANCH  23  26
ATOM     26  N   UNL     1       0.769  10.285  20.295  0.00  0.00    +0.000 NA
ATOM     27  C   UNL     1      -0.546  10.131  19.623  0.00  0.00    +0.000 C 
ATOM     28  C   UNL     1      -0.638  11.010  18.381  0.00  0.00    +0.000 C 
ATOM     29  C   UNL     1      -0.323  12.461  18.715  0.00  0.00    +0.000 C 
ATOM     30  C   UNL     1       1.067  12.552  19.328  0.00  0.00    +0.000 C 
ATOM     31  C   UNL     1       1.172  11.686  20.581  0.00  0.00    +0.000 C 
ENDBRANCH  23  26
ENDBRANCH   3  23
TORSDOF 5
ENDMDL
MODEL 6
REMARK VINA RESULT:      -7.3      4.644      8.283
REMARK  Name = 
REMARK  5 active torsions:
REMARK  status: ('A' for Active; 'I' for Inactive)
REMARK    1  A    between atoms: C_2  and  C_25
REMARK    2  A    between atoms: N_3  and  C_4
REMARK    3  A    between atoms: C_6  and  S_7
REMARK    4  A    between atoms: S_7  and  N_10
REMARK    5  A    between atoms: C_18  and  N_19
REMARK                            x       y       z     vdW  Elec       q    Type
REMARK                         _______ _______ _______ _____ _____    ______ ____
ROOT
ATOM      1  C   UNL     1      -1.163  12.548  21.721  0.00  0.00    +0.000 A 
ATOM      2  C   UNL     1      -2.393  12.266  22.344  0.00  0.00    +0.000 A 
ATOM      3  C   UNL     1      -3.101  13.273  23.003  0.00  0.00    +0.000 A 
ATOM      4  C   UNL     1      -2.554  14.547  23.104  0.00  0.00    +0.000 A 
ATOM      5  C   UNL     1      -1.329  14.818  22.484  0.00  0.00    +0.000 A 
ATOM      6  C   UNL     1      -0.627  13.861  21.717  0.00  0.00    +0.000 A 
ENDROOT
BRANCH   6   7
ATOM      7  N   UNL     1       0.491  14.241  20.981  0.00  0.00    +0.000 N 
ATOM      8  C   UNL     1       0.331  14.833  19.644  0.00  0.00    +0.000 C 
ATOM      9  C   UNL     1       1.331  14.166  18.703  0.00  0.00    +0.000 C 
ATOM     10  C   UNL     1       2.759  14.274  19.235  0.00  0.00    +0.000 C 
ATOM     11  C   UNL     1       2.852  13.796  20.687  0.00  0.00    +0.000 C 
ATOM     12  C   UNL     1       1.808  14.488  21.574  0.00  0.00    +0.000 C 
ENDBRANCH   6   7
BRANCH   1  15
ATOM     13  O   UNL     1       0.370  10.463  22.849  0.00  0.00    +0.000 OA
ATOM     14  C   UNL     1       0.197  10.521  21.632  0.00  0.00    +0.000 C 
ATOM     15  N   UNL     1      -0.549  11.501  20.992  0.00  0.00    +0.000 N 
ATOM     16  H   UNL     1      -0.443  11.667  20.004  0.00  0.00    +0.000 HD
BRANCH  14  17
ATOM     17  C   UNL     1       0.853   9.487  20.787  0.00  0.00    +0.000 A 
ATOM     18  C   UNL     1       1.067   9.808  19.444  0.00  0.00    +0.000 A 
ATOM     19  C   UNL     1       1.674   8.872  18.630  0.00  0.00    +0.000 A 
ATOM     20  N   UNL     1       2.061   7.653  19.059  0.00  0.00    +0.000 NA
ATOM     21  C   UNL     1       1.823   7.355  20.353  0.00  0.00    +0.000 A 
ATOM     22  C   UNL     1       1.227   8.227  21.252  0.00  0.00    +0.000 A 
ENDBRANCH  14  17
ENDBRANCH   1  15
BRANCH   3  23
ATOM     23  S   UNL     1      -4.776  12.975  23.548  0.00  0.00    +0.000 S 
ATOM     24  O   UNL     1      -4.727  11.896  24.513  0.00  0.00    +0.000 OA
ATOM     25  O   UNL     1      -5.343  14.264  23.909  0.00  0.00    +0.000 OA
BRANCH  23  26
ATOM     26  N   UNL     1      -5.576  12.408  22.150  0.00  0.00    +0.000 NA
ATOM     27  C   UNL     1      -7.044  12.230  22.293  0.00  0.00    +0.000 C 
ATOM     28  C   UNL     1      -7.637  11.537  21.073  0.00  0.00    +0.000 C 
ATOM     29  C   UNL     1      -7.265  12.271  19.793  0.00  0.00    +0.000 C 
ATOM     30  C   UNL     1      -5.750  12.348  19.674  0.00  0.00    +0.000 C 
ATOM     31  C   UNL     1      -5.139  13.052  20.884  0.00  0.00    +0.000 C 
ENDBRANCH  23  26
ENDBRANCH   3  23
TORSDOF 5
ENDMDL
MODEL 7
REMARK VINA RESULT:      -7.3      0.991      1.658
REMARK  Name = 
REMARK  5 active torsions:
REMARK  status: ('A' for Active; 'I' for Inactive)
REMARK    1  A    between atoms: C_2  and  C_25
REMARK    2  A    between atoms: N_3  and  C_4
REMARK    3  A    between atoms: C_6  and  S_7
REMARK    4  A    between atoms: S_7  and  N_10
REMARK    5  A    between atoms: C_18  and  N_19
REMARK                            x       y       z     vdW  Elec       q    Type
REMARK                         _______ _______ _______ _____ _____    ______ ____
ROOT
ATOM      1  C   UNL     1       2.501   6.340  18.523  0.00  0.00    +0.000 A 
ATOM      2  C   UNL     1       2.221   7.718  18.591  0.00  0.00    +0.000 A 
ATOM      3  C   UNL     1       1.499   8.242  19.664  0.00  0.00    +0.000 A 
ATOM      4  C   UNL     1       0.993   7.389  20.637  0.00  0.00    +0.000 A 
ATOM      5  C   UNL     1       1.273   6.020  20.561  0.00  0.00    +0.000 A 
ATOM      6  C   UNL     1       2.088   5.457  19.553  0.00  0.00    +0.000 A 
ENDROOT
BRANCH   6   7
ATOM      7  N   UNL     1       2.475   4.123  19.633  0.00  0.00    +0.000 N 
ATOM      8  C   UNL     1       3.546   3.716  20.556  0.00  0.00    +0.000 C 
ATOM      9  C   UNL     1       4.491   2.778  19.808  0.00  0.00    +0.000 C 
ATOM     10  C   UNL     1       3.740   1.590  19.206  0.00  0.00    +0.000 C 
ATOM     11  C   UNL     1       2.535   2.051  18.382  0.00  0.00    +0.000 C 
ATOM     12  C   UNL     1       1.640   3.006  19.182  0.00  0.00    +0.000 C 
ENDBRANCH   6   7
BRANCH   1  15
ATOM     13  O   UNL     1       5.304   6.024  18.644  0.00  0.00    +0.000 OA
ATOM     14  C   UNL     1       4.694   5.779  17.604  0.00  0.00    +0.000 C 
ATOM     15  N   UNL     1       3.319   5.895  17.456  0.00  0.00    +0.000 N 
ATOM     16  H   UNL     1       2.900   5.948  16.541  0.00  0.00    +0.000 HD
BRANCH  14  17
ATOM     17  C   UNL     1       5.485   5.357  16.417  0.00  0.00    +0.000 A 
ATOM     18  C   UNL     1       4.805   4.650  15.421  0.00  0.00    +0.000 A 
ATOM     19  C   UNL     1       5.509   4.242  14.304  0.00  0.00    +0.000 A 
ATOM     20  N   UNL     1       6.825   4.477  14.129  0.00  0.00    +0.000 NA
ATOM     21  C   UNL     1       7.467   5.138  15.114  0.00  0.00    +0.000 A 
ATOM     22  C   UNL     1       6.850   5.596  16.269  0.00  0.00    +0.000 A 
ENDBRANCH  14  17
ENDBRANCH   1  15
BRANCH   3  23
ATOM     23  S   UNL     1       1.385  10.012  19.883  0.00  0.00    +0.000 S 
ATOM     24  O   UNL     1       1.540  10.280  21.298  0.00  0.00    +0.000 OA
ATOM     25  O   UNL     1       2.282  10.619  18.913  0.00  0.00    +0.000 OA
BRANCH  23  26
ATOM     26  N   UNL     1      -0.221  10.386  19.438  0.00  0.00    +0.000 NA
ATOM     27  C   UNL     1      -0.690  11.734  19.849  0.00  0.00    +0.000 C 
ATOM     28  C   UNL     1      -2.183  11.901  19.591  0.00  0.00    +0.000 C 
ATOM     29  C   UNL     1      -2.525  11.585  18.142  0.00  0.00    +0.000 C 
ATOM     30  C   UNL     1      -2.086  10.165  17.814  0.00  0.00    +0.000 C 
ATOM     31  C   UNL     1      -0.589   9.983  18.056  0.00  0.00    +0.000 C 
ENDBRANCH  23  26
ENDBRANCH   3  23
TORSDOF 5
ENDMDL
MODEL 8
REMARK VINA RESULT:      -7.2      4.348     11.335
REMARK  Name = 
REMARK  5 active torsions:
REMARK  status: ('A' for Active; 'I' for Inactive)
REMARK    1  A    between atoms: C_2  and  C_25
REMARK    2  A    between atoms: N_3  and  C_4
REMARK    3  A    between atoms: C_6  and  S_7
REMARK    4  A    between atoms: S_7  and  N_10
REMARK    5  A    between atoms: C_18  and  N_19
REMARK                            x       y       z     vdW  Elec       q    Type
REMARK                         _______ _______ _______ _____ _____    ______ ____
ROOT
ATOM      1  C   UNL     1      -3.318  12.561  19.894  0.00  0.00    +0.000 A 
ATOM      2  C   UNL     1      -1.947  12.397  20.171  0.00  0.00    +0.000 A 
ATOM      3  C   UNL     1      -1.194  11.444  19.482  0.00  0.00    +0.000 A 
ATOM      4  C   UNL     1      -1.817  10.605  18.565  0.00  0.00    +0.000 A 
ATOM      5  C   UNL     1      -3.180  10.773  18.299  0.00  0.00    +0.000 A 
ATOM      6  C   UNL     1      -3.960  11.791  18.892  0.00  0.00    +0.000 A 
ENDROOT
BRANCH   6   7
ATOM      7  N   UNL     1      -5.261  12.018  18.453  0.00  0.00    +0.000 N 
ATOM      8  C   UNL     1      -5.517  12.378  17.050  0.00  0.00    +0.000 C 
ATOM      9  C   UNL     1      -6.504  13.543  17.028  0.00  0.00    +0.000 C 
ATOM     10  C   UNL     1      -7.780  13.211  17.801  0.00  0.00    +0.000 C 
ATOM     11  C   UNL     1      -7.464  12.688  19.204  0.00  0.00    +0.000 C 
ATOM     12  C   UNL     1      -6.452  11.535  19.158  0.00  0.00    +0.000 C 
ENDBRANCH   6   7
BRANCH   1  15
ATOM     13  O   UNL     1      -4.672  12.309  22.359  0.00  0.00    +0.000 OA
ATOM     14  C   UNL     1      -4.644  13.390  21.771  0.00  0.00    +0.000 C 
ATOM     15  N   UNL     1      -3.995  13.609  20.564  0.00  0.00    +0.000 N 
ATOM     16  H   UNL     1      -4.218  14.410  19.996  0.00  0.00    +0.000 HD
BRANCH  14  17
ATOM     17  C   UNL     1      -5.376  14.532  22.382  0.00  0.00    +0.000 A 
ATOM     18  C   UNL     1      -4.641  15.693  22.635  0.00  0.00    +0.000 A 
ATOM     19  C   UNL     1      -5.289  16.774  23.201  0.00  0.00    +0.000 A 
ATOM     20  N   UNL     1      -6.595  16.764  23.538  0.00  0.00    +0.000 NA
ATOM     21  C   UNL     1      -7.279  15.625  23.307  0.00  0.00    +0.000 A 
ATOM     22  C   UNL     1      -6.723  14.490  22.737  0.00  0.00    +0.000 A 
ENDBRANCH  14  17
ENDBRANCH   1  15
BRANCH   3  23
ATOM     23  S   UNL     1       0.585  11.430  19.640  0.00  0.00    +0.000 S 
ATOM     24  O   UNL     1       1.117  12.247  18.568  0.00  0.00    +0.000 OA
ATOM     25  O   UNL     1       0.892  11.740  21.026  0.00  0.00    +0.000 OA
BRANCH  23  26
ATOM     26  N   UNL     1       1.018   9.805  19.342  0.00  0.00    +0.000 NA
ATOM     27  C   UNL     1       1.865   9.590  18.142  0.00  0.00    +0.000 C 
ATOM     28  C   UNL     1       2.032   8.104  17.844  0.00  0.00    +0.000 C 
ATOM     29  C   UNL     1       2.555   7.359  19.063  0.00  0.00    +0.000 C 
ATOM     30  C   UNL     1       1.600   7.561  20.230  0.00  0.00    +0.000 C 
ATOM     31  C   UNL     1       1.431   9.044  20.550  0.00  0.00    +0.000 C 
ENDBRANCH  23  26
ENDBRANCH   3  23
TORSDOF 5
ENDMDL
MODEL 9
REMARK VINA RESULT:      -7.2      4.306      7.941
REMARK  Name = 
REMARK  5 active torsions:
REMARK  status: ('A' for Active; 'I' for Inactive)
REMARK    1  A    between atoms: C_2  and  C_25
REMARK    2  A    between atoms: N_3  and  C_4
REMARK    3  A    between atoms: C_6  and  S_7
REMARK    4  A    between atoms: S_7  and  N_10
REMARK    5  A    between atoms: C_18  and  N_19
REMARK                            x       y       z     vdW  Elec       q    Type
REMARK                         _______ _______ _______ _____ _____    ______ ____
ROOT
ATOM      1  C   UNL     1      -1.107  12.432  21.221  0.00  0.00    +0.000 A 
ATOM      2  C   UNL     1      -2.353  12.196  21.833  0.00  0.00    +0.000 A 
ATOM      3  C   UNL     1      -3.007  13.217  22.525  0.00  0.00    +0.000 A 
ATOM      4  C   UNL     1      -2.392  14.455  22.670  0.00  0.00    +0.000 A 
ATOM      5  C   UNL     1      -1.153  14.680  22.061  0.00  0.00    +0.000 A 
ATOM      6  C   UNL     1      -0.502  13.714  21.263  0.00  0.00    +0.000 A 
ENDROOT
BRANCH   6   7
ATOM      7  N   UNL     1       0.637  14.058  20.541  0.00  0.00    +0.000 N 
ATOM      8  C   UNL     1       0.534  14.405  19.115  0.00  0.00    +0.000 C 
ATOM      9  C   UNL     1       1.645  13.676  18.363  0.00  0.00    +0.000 C 
ATOM     10  C   UNL     1       3.019  13.988  18.954  0.00  0.00    +0.000 C 
ATOM     11  C   UNL     1       3.040  13.766  20.469  0.00  0.00    +0.000 C 
ATOM     12  C   UNL     1       1.887  14.506  21.161  0.00  0.00    +0.000 C 
ENDBRANCH   6   7
BRANCH   1  15
ATOM     13  O   UNL     1       1.065  10.816  22.022  0.00  0.00    +0.000 OA
ATOM     14  C   UNL     1       0.529  10.641  20.929  0.00  0.00    +0.000 C 
ATOM     15  N   UNL     1      -0.549  11.379  20.457  0.00  0.00    +0.000 N 
ATOM     16  H   UNL     1      -0.777  11.389  19.476  0.00  0.00    +0.000 HD
BRANCH  14  17
ATOM     17  C   UNL     1       1.089   9.587  20.041  0.00  0.00    +0.000 A 
ATOM     18  C   UNL     1       1.451   8.379  20.642  0.00  0.00    +0.000 A 
ATOM     19  C   UNL     1       1.974   7.377  19.848  0.00  0.00    +0.000 A 
ATOM     20  N   UNL     1       2.170   7.508  18.520  0.00  0.00    +0.000 NA
ATOM     21  C   UNL     1       1.838   8.691  17.965  0.00  0.00    +0.000 A 
ATOM     22  C   UNL     1       1.299   9.755  18.674  0.00  0.00    +0.000 A 
ENDBRANCH  14  17
ENDBRANCH   1  15
BRANCH   3  23
ATOM     23  S   UNL     1      -4.697  12.991  23.059  0.00  0.00    +0.000 S 
ATOM     24  O   UNL     1      -4.693  11.951  24.067  0.00  0.00    +0.000 OA
ATOM     25  O   UNL     1      -5.229  14.310  23.359  0.00  0.00    +0.000 OA
BRANCH  23  26
ATOM     26  N   UNL     1      -5.496  12.391  21.673  0.00  0.00    +0.000 NA
ATOM     27  C   UNL     1      -6.951  12.148  21.842  0.00  0.00    +0.000 C 
ATOM     28  C   UNL     1      -7.535  11.430  20.631  0.00  0.00    +0.000 C 
ATOM     29  C   UNL     1      -7.219  12.182  19.346  0.00  0.00    +0.000 C 
ATOM     30  C   UNL     1      -5.711  12.328  19.201  0.00  0.00    +0.000 C 
ATOM     31  C   UNL     1      -5.111  13.056  20.401  0.00  0.00    +0.000 C 
ENDBRANCH  23  26
ENDBRANCH   3  23
TORSDOF 5
ENDMDL
