MODEL 1
REMARK VINA RESULT:      -8.9      0.000      0.000
REMARK  Name = 
REMARK  7 active torsions:
REMARK  status: ('A' for Active; 'I' for Inactive)
REMARK    1  A    between atoms: C_1  and  O_2
REMARK    2  A    between atoms: O_2  and  C_3
REMARK    3  A    between atoms: C_3  and  C_4
REMARK    4  A    between atoms: C_9  and  N_10
REMARK    5  A    between atoms: C_12  and  C_13
REMARK    6  A    between atoms: C_16  and  N_17
REMARK    7  A    between atoms: C_18  and  C_19
REMARK                            x       y       z     vdW  Elec       q    Type
REMARK                         _______ _______ _______ _____ _____    ______ ____
ROOT
ATOM      1  C   UNL     1       1.743   8.385  19.308  0.00  0.00    +0.000 A 
ATOM      2  C   UNL     1       2.124   8.979  18.091  0.00  0.00    +0.000 A 
ATOM      3  N   UNL     1       1.859  10.271  17.880  0.00  0.00    +0.000 NA
ATOM      4  C   UNL     1       1.256  11.115  18.800  0.00  0.00    +0.000 A 
ATOM      5  C   UNL     1       0.788  10.553  20.045  0.00  0.00    +0.000 A 
ATOM      6  C   UNL     1       1.089   9.172  20.264  0.00  0.00    +0.000 A 
ENDROOT
BRANCH   5   7
ATOM      7  C   UNL     1       0.101  11.421  21.099  0.00  0.00    +0.000 A 
ATOM      8  N   UNL     1      -0.957  10.946  21.851  0.00  0.00    +0.000 NA
ATOM      9  C   UNL     1      -1.336  12.007  22.573  0.00  0.00    +0.000 A 
ATOM     10  C   UNL     1      -2.473  12.127  23.337  0.00  0.00    +0.000 A 
ATOM     11  C   UNL     1      -2.805  13.430  23.733  0.00  0.00    +0.000 A 
ATOM     12  C   UNL     1      -1.904  14.507  23.710  0.00  0.00    +0.000 A 
ATOM     13  C   UNL     1      -0.728  14.320  22.953  0.00  0.00    +0.000 A 
ATOM     14  C   UNL     1      -0.521  13.082  22.323  0.00  0.00    +0.000 A 
ATOM     15  O   UNL     1       0.351  12.699  21.405  0.00  0.00    +0.000 OA
ENDBRANCH   5   7
BRANCH   1  18
ATOM     16  N   UNL     1       2.866   4.870  19.276  0.00  0.00    +0.000 N 
ATOM     17  C   UNL     1       2.785   6.099  18.689  0.00  0.00    +0.000 A 
ATOM     18  C   UNL     1       2.113   6.943  19.535  0.00  0.00    +0.000 A 
ATOM     19  C   UNL     1       1.822   6.155  20.647  0.00  0.00    +0.000 A 
ATOM     20  N   UNL     1       2.283   4.903  20.443  0.00  0.00    +0.000 NA
BRANCH  16  26
ATOM     21  C   UNL     1       7.017   4.518  16.552  0.00  0.00    +0.000 C 
ATOM     22  O   UNL     1       8.082   4.232  17.076  0.00  0.00    +0.000 OA
ATOM     23  N   UNL     1       5.876   4.636  17.317  0.00  0.00    +0.000 N 
ATOM     24  C   UNL     1       5.922   4.485  18.766  0.00  0.00    +0.000 C 
ATOM     25  C   UNL     1       4.924   3.402  19.207  0.00  0.00    +0.000 C 
ATOM     26  C   UNL     1       3.491   3.681  18.666  0.00  0.00    +0.000 C 
ATOM     27  C   UNL     1       3.582   3.823  17.133  0.00  0.00    +0.000 C 
ATOM     28  C   UNL     1       4.563   4.938  16.741  0.00  0.00    +0.000 C 
BRANCH  21  29
ATOM     29  C   UNL     1       7.017   4.781  15.068  0.00  0.00    +0.000 C 
BRANCH  29  31
ATOM     30  C   UNL     1       6.250   3.923  13.074  0.00  0.00    +0.000 C 
ATOM     31  O   UNL     1       6.487   3.643  14.430  0.00  0.00    +0.000 OA
ENDBRANCH  29  31
ENDBRANCH  21  29
ENDBRANCH  16  26
ENDBRANCH   1  18
BRANCH   4  32
ATOM     32  N   UNL     1       1.089  12.437  18.421  0.00  0.00    +0.000 N 
ATOM     33  H   UNL     1       1.885  13.098  18.494  0.00  0.00    +0.000 HD
ATOM     34  H   UNL     1       0.196  12.845  18.139  0.00  0.00    +0.000 HD
ENDBRANCH   4  32
TORSDOF 6
ENDMDL
MODEL 2
REMARK VINA RESULT:      -8.9      0.844      1.201
REMARK  Name = 
REMARK  7 active torsions:
REMARK  status: ('A' for Active; 'I' for Inactive)
REMARK    1  A    between atoms: C_1  and  O_2
REMARK    2  A    between atoms: O_2  and  C_3
REMARK    3  A    between atoms: C_3  and  C_4
REMARK    4  A    between atoms: C_9  and  N_10
REMARK    5  A    between atoms: C_12  and  C_13
REMARK    6  A    between atoms: C_16  and  N_17
REMARK    7  A    between atoms: C_18  and  C_19
REMARK                            x       y       z     vdW  Elec       q    Type
REMARK                         _______ _______ _______ _____ _____    ______ ____
ROOT
ATOM      1  C   UNL     1       1.788   8.424  19.148  0.00  0.00    +0.000 A 
ATOM      2  C   UNL     1       2.323   9.002  17.983  0.00  0.00    +0.000 A 
ATOM      3  N   UNL     1       2.085  10.289  17.720  0.00  0.00    +0.000 NA
ATOM      4  C   UNL     1       1.366  11.144  18.540  0.00  0.00    +0.000 A 
ATOM      5  C   UNL     1       0.741  10.600  19.722  0.00  0.00    +0.000 A 
ATOM      6  C   UNL     1       1.012   9.223  19.999  0.00  0.00    +0.000 A 
ENDROOT
BRANCH   5   7
ATOM      7  C   UNL     1      -0.079  11.480  20.664  0.00  0.00    +0.000 A 
ATOM      8  N   UNL     1       0.319  12.765  20.986  0.00  0.00    +0.000 NA
ATOM      9  C   UNL     1      -0.586  13.162  21.888  0.00  0.00    +0.000 A 
ATOM     10  C   UNL     1      -0.534  14.290  22.673  0.00  0.00    +0.000 A 
ATOM     11  C   UNL     1      -1.426  14.320  23.753  0.00  0.00    +0.000 A 
ATOM     12  C   UNL     1      -2.553  13.488  23.859  0.00  0.00    +0.000 A 
ATOM     13  C   UNL     1      -2.587  12.371  22.999  0.00  0.00    +0.000 A 
ATOM     14  C   UNL     1      -1.536  12.192  22.085  0.00  0.00    +0.000 A 
ATOM     15  O   UNL     1      -1.197  11.162  21.327  0.00  0.00    +0.000 OA
ENDBRANCH   5   7
BRANCH   1  18
ATOM     16  N   UNL     1       2.866   4.898  19.295  0.00  0.00    +0.000 N 
ATOM     17  C   UNL     1       2.830   6.106  18.663  0.00  0.00    +0.000 A 
ATOM     18  C   UNL     1       2.127   6.988  19.444  0.00  0.00    +0.000 A 
ATOM     19  C   UNL     1       1.771   6.242  20.566  0.00  0.00    +0.000 A 
ATOM     20  N   UNL     1       2.225   4.979  20.429  0.00  0.00    +0.000 NA
BRANCH  16  26
ATOM     21  C   UNL     1       6.855   4.451  16.352  0.00  0.00    +0.000 C 
ATOM     22  O   UNL     1       7.963   4.258  16.831  0.00  0.00    +0.000 OA
ATOM     23  N   UNL     1       5.760   4.596  17.175  0.00  0.00    +0.000 N 
ATOM     24  C   UNL     1       5.900   4.586  18.627  0.00  0.00    +0.000 C 
ATOM     25  C   UNL     1       4.980   3.512  19.230  0.00  0.00    +0.000 C 
ATOM     26  C   UNL     1       3.506   3.683  18.759  0.00  0.00    +0.000 C 
ATOM     27  C   UNL     1       3.498   3.681  17.217  0.00  0.00    +0.000 C 
ATOM     28  C   UNL     1       4.401   4.791  16.661  0.00  0.00    +0.000 C 
BRANCH  21  29
ATOM     29  C   UNL     1       6.754   4.571  14.854  0.00  0.00    +0.000 C 
BRANCH  29  31
ATOM     30  C   UNL     1       7.975   5.320  13.052  0.00  0.00    +0.000 C 
ATOM     31  O   UNL     1       7.740   5.481  14.428  0.00  0.00    +0.000 OA
ENDBRANCH  29  31
ENDBRANCH  21  29
ENDBRANCH  16  26
ENDBRANCH   1  18
BRANCH   4  32
ATOM     32  N   UNL     1       1.248  12.460  18.122  0.00  0.00    +0.000 N 
ATOM     33  H   UNL     1       2.013  12.898  17.576  0.00  0.00    +0.000 HD
ATOM     34  H   UNL     1       0.477  13.079  18.383  0.00  0.00    +0.000 HD
ENDBRANCH   4  32
TORSDOF 6
ENDMDL
MODEL 3
REMARK VINA RESULT:      -8.6      2.204     10.763
REMARK  Name = 
REMARK  7 active torsions:
REMARK  status: ('A' for Active; 'I' for Inactive)
REMARK    1  A    between atoms: C_1  and  O_2
REMARK    2  A    between atoms: O_2  and  C_3
REMARK    3  A    between atoms: C_3  and  C_4
REMARK    4  A    between atoms: C_9  and  N_10
REMARK    5  A    between atoms: C_12  and  C_13
REMARK    6  A    between atoms: C_16  and  N_17
REMARK    7  A    between atoms: C_18  and  C_19
REMARK                            x       y       z     vdW  Elec       q    Type
REMARK                         _______ _______ _______ _____ _____    ______ ____
ROOT
ATOM      1  C   UNL     1       3.042   6.819  18.531  0.00  0.00    +0.000 A 
ATOM      2  C   UNL     1       3.242   6.045  19.688  0.00  0.00    +0.000 A 
ATOM      3  N   UNL     1       4.069   4.997  19.642  0.00  0.00    +0.000 NA
ATOM      4  C   UNL     1       4.802   4.616  18.528  0.00  0.00    +0.000 A 
ATOM      5  C   UNL     1       4.597   5.333  17.292  0.00  0.00    +0.000 A 
ATOM      6  C   UNL     1       3.719   6.459  17.357  0.00  0.00    +0.000 A 
ENDROOT
BRANCH   5   7
ATOM      7  C   UNL     1       5.359   4.958  16.021  0.00  0.00    +0.000 A 
ATOM      8  N   UNL     1       6.536   5.590  15.669  0.00  0.00    +0.000 NA
ATOM      9  C   UNL     1       6.836   5.064  14.476  0.00  0.00    +0.000 A 
ATOM     10  C   UNL     1       7.805   5.493  13.600  0.00  0.00    +0.000 A 
ATOM     11  C   UNL     1       7.712   4.988  12.296  0.00  0.00    +0.000 A 
ATOM     12  C   UNL     1       6.957   3.856  11.948  0.00  0.00    +0.000 A 
ATOM     13  C   UNL     1       6.010   3.422  12.899  0.00  0.00    +0.000 A 
ATOM     14  C   UNL     1       5.917   4.109  14.120  0.00  0.00    +0.000 A 
ATOM     15  O   UNL     1       5.011   4.069  15.084  0.00  0.00    +0.000 OA
ENDBRANCH   5   7
BRANCH   1  18
ATOM     16  N   UNL     1       0.750   9.585  19.375  0.00  0.00    +0.000 N 
ATOM     17  C   UNL     1       1.470   8.484  19.735  0.00  0.00    +0.000 A 
ATOM     18  C   UNL     1       2.151   8.028  18.636  0.00  0.00    +0.000 A 
ATOM     19  C   UNL     1       1.809   8.923  17.625  0.00  0.00    +0.000 A 
ATOM     20  N   UNL     1       0.947   9.842  18.110  0.00  0.00    +0.000 NA
BRANCH  16  26
ATOM     21  C   UNL     1       0.243  14.507  19.906  0.00  0.00    +0.000 C 
ATOM     22  O   UNL     1      -0.628  15.112  19.299  0.00  0.00    +0.000 OA
ATOM     23  N   UNL     1       0.391  13.148  19.736  0.00  0.00    +0.000 N 
ATOM     24  C   UNL     1      -0.438  12.412  18.789  0.00  0.00    +0.000 C 
ATOM     25  C   UNL     1      -1.145  11.253  19.509  0.00  0.00    +0.000 C 
ATOM     26  C   UNL     1      -0.137  10.346  20.274  0.00  0.00    +0.000 C 
ATOM     27  C   UNL     1       0.673  11.240  21.233  0.00  0.00    +0.000 C 
ATOM     28  C   UNL     1       1.390  12.361  20.465  0.00  0.00    +0.000 C 
BRANCH  21  29
ATOM     29  C   UNL     1       1.160  15.309  20.793  0.00  0.00    +0.000 C 
BRANCH  29  31
ATOM     30  C   UNL     1       3.072  15.655  19.559  0.00  0.00    +0.000 C 
ATOM     31  O   UNL     1       1.857  16.221  19.978  0.00  0.00    +0.000 OA
ENDBRANCH  29  31
ENDBRANCH  21  29
ENDBRANCH  16  26
ENDBRANCH   1  18
BRANCH   4  32
ATOM     32  N   UNL     1       5.636   3.519  18.674  0.00  0.00    +0.000 N 
ATOM     33  H   UNL     1       6.260   3.453  19.500  0.00  0.00    +0.000 HD
ATOM     34  H   UNL     1       5.749   2.785  17.971  0.00  0.00    +0.000 HD
ENDBRANCH   4  32
TORSDOF 6
ENDMDL
MODEL 4
REMARK VINA RESULT:      -8.6      1.987     10.943
REMARK  Name = 
REMARK  7 active torsions:
REMARK  status: ('A' for Active; 'I' for Inactive)
REMARK    1  A    between atoms: C_1  and  O_2
REMARK    2  A    between atoms: O_2  and  C_3
REMARK    3  A    between atoms: C_3  and  C_4
REMARK    4  A    between atoms: C_9  and  N_10
REMARK    5  A    between atoms: C_12  and  C_13
REMARK    6  A    between atoms: C_16  and  N_17
REMARK    7  A    between atoms: C_18  and  C_19
REMARK                            x       y       z     vdW  Elec       q    Type
REMARK                         _______ _______ _______ _____ _____    ______ ____
ROOT
ATOM      1  C   UNL     1       3.108   6.826  18.510  0.00  0.00    +0.000 A 
ATOM      2  C   UNL     1       3.344   6.076  19.676  0.00  0.00    +0.000 A 
ATOM      3  N   UNL     1       4.187   5.041  19.632  0.00  0.00    +0.000 NA
ATOM      4  C   UNL     1       4.903   4.652  18.510  0.00  0.00    +0.000 A 
ATOM      5  C   UNL     1       4.661   5.344  17.266  0.00  0.00    +0.000 A 
ATOM      6  C   UNL     1       3.766   6.457  17.330  0.00  0.00    +0.000 A 
ENDROOT
BRANCH   5   7
ATOM      7  C   UNL     1       5.403   4.959  15.986  0.00  0.00    +0.000 A 
ATOM      8  N   UNL     1       6.590   5.569  15.625  0.00  0.00    +0.000 NA
ATOM      9  C   UNL     1       6.867   5.040  14.427  0.00  0.00    +0.000 A 
ATOM     10  C   UNL     1       7.836   5.453  13.542  0.00  0.00    +0.000 A 
ATOM     11  C   UNL     1       7.720   4.956  12.238  0.00  0.00    +0.000 A 
ATOM     12  C   UNL     1       6.939   3.840  11.894  0.00  0.00    +0.000 A 
ATOM     13  C   UNL     1       5.993   3.421  12.853  0.00  0.00    +0.000 A 
ATOM     14  C   UNL     1       5.926   4.106  14.077  0.00  0.00    +0.000 A 
ATOM     15  O   UNL     1       5.029   4.080  15.049  0.00  0.00    +0.000 OA
ENDBRANCH   5   7
BRANCH   1  18
ATOM     16  N   UNL     1       0.728   9.526  19.324  0.00  0.00    +0.000 N 
ATOM     17  C   UNL     1       1.425   8.408  19.677  0.00  0.00    +0.000 A 
ATOM     18  C   UNL     1       2.200   8.023  18.613  0.00  0.00    +0.000 A 
ATOM     19  C   UNL     1       1.935   8.977  17.632  0.00  0.00    +0.000 A 
ATOM     20  N   UNL     1       1.028   9.860  18.098  0.00  0.00    +0.000 NA
BRANCH  16  26
ATOM     21  C   UNL     1       0.372  14.371  20.404  0.00  0.00    +0.000 C 
ATOM     22  O   UNL     1      -0.380  15.096  19.770  0.00  0.00    +0.000 OA
ATOM     23  N   UNL     1       0.481  13.035  20.083  0.00  0.00    +0.000 N 
ATOM     24  C   UNL     1      -0.243  12.470  18.951  0.00  0.00    +0.000 C 
ATOM     25  C   UNL     1      -1.093  11.278  19.421  0.00  0.00    +0.000 C 
ATOM     26  C   UNL     1      -0.239  10.227  20.189  0.00  0.00    +0.000 C 
ATOM     27  C   UNL     1       0.472  10.949  21.350  0.00  0.00    +0.000 C 
ATOM     28  C   UNL     1       1.336  12.108  20.830  0.00  0.00    +0.000 C 
BRANCH  21  29
ATOM     29  C   UNL     1       1.194  15.003  21.497  0.00  0.00    +0.000 C 
BRANCH  29  31
ATOM     30  C   UNL     1       0.086  16.166  23.145  0.00  0.00    +0.000 C 
ATOM     31  O   UNL     1       0.470  14.891  22.699  0.00  0.00    +0.000 OA
ENDBRANCH  29  31
ENDBRANCH  21  29
ENDBRANCH  16  26
ENDBRANCH   1  18
BRANCH   4  32
ATOM     32  N   UNL     1       5.758   3.571  18.657  0.00  0.00    +0.000 N 
ATOM     33  H   UNL     1       5.371   2.610  18.706  0.00  0.00    +0.000 HD
ATOM     34  H   UNL     1       6.766   3.653  18.805  0.00  0.00    +0.000 HD
ENDBRANCH   4  32
TORSDOF 6
ENDMDL
MODEL 5
REMARK VINA RESULT:      -8.5      1.146      1.341
REMARK  Name = 
REMARK  7 active torsions:
REMARK  status: ('A' for Active; 'I' for Inactive)
REMARK    1  A    between atoms: C_1  and  O_2
REMARK    2  A    between atoms: O_2  and  C_3
REMARK    3  A    between atoms: C_3  and  C_4
REMARK    4  A    between atoms: C_9  and  N_10
REMARK    5  A    between atoms: C_12  and  C_13
REMARK    6  A    between atoms: C_16  and  N_17
REMARK    7  A    between atoms: C_18  and  C_19
REMARK                            x       y       z     vdW  Elec       q    Type
REMARK                         _______ _______ _______ _____ _____    ______ ____
ROOT
ATOM      1  C   UNL     1       1.802   8.475  19.158  0.00  0.00    +0.000 A 
ATOM      2  C   UNL     1       2.314   9.115  18.015  0.00  0.00    +0.000 A 
ATOM      3  N   UNL     1       1.898  10.348  17.712  0.00  0.00    +0.000 NA
ATOM      4  C   UNL     1       1.006  11.091  18.470  0.00  0.00    +0.000 A 
ATOM      5  C   UNL     1       0.400  10.469  19.623  0.00  0.00    +0.000 A 
ATOM      6  C   UNL     1       0.862   9.154  19.944  0.00  0.00    +0.000 A 
ENDROOT
BRANCH   5   7
ATOM      7  C   UNL     1      -0.603  11.223  20.496  0.00  0.00    +0.000 A 
ATOM      8  N   UNL     1      -0.567  11.141  21.876  0.00  0.00    +0.000 NA
ATOM      9  C   UNL     1      -1.638  11.844  22.264  0.00  0.00    +0.000 A 
ATOM     10  C   UNL     1      -2.173  11.911  23.529  0.00  0.00    +0.000 A 
ATOM     11  C   UNL     1      -3.464  12.448  23.616  0.00  0.00    +0.000 A 
ATOM     12  C   UNL     1      -4.061  13.214  22.602  0.00  0.00    +0.000 A 
ATOM     13  C   UNL     1      -3.449  13.154  21.332  0.00  0.00    +0.000 A 
ATOM     14  C   UNL     1      -2.285  12.384  21.181  0.00  0.00    +0.000 A 
ATOM     15  O   UNL     1      -1.634  11.979  20.102  0.00  0.00    +0.000 OA
ENDBRANCH   5   7
BRANCH   1  18
ATOM     16  N   UNL     1       3.554   5.253  19.566  0.00  0.00    +0.000 N 
ATOM     17  C   UNL     1       3.468   6.500  19.019  0.00  0.00    +0.000 A 
ATOM     18  C   UNL     1       2.339   7.112  19.503  0.00  0.00    +0.000 A 
ATOM     19  C   UNL     1       1.784   6.172  20.369  0.00  0.00    +0.000 A 
ATOM     20  N   UNL     1       2.542   5.055  20.367  0.00  0.00    +0.000 NA
BRANCH  16  26
ATOM     21  C   UNL     1       6.368   4.760  15.491  0.00  0.00    +0.000 C 
ATOM     22  O   UNL     1       7.475   5.274  15.433  0.00  0.00    +0.000 OA
ATOM     23  N   UNL     1       5.586   4.921  16.614  0.00  0.00    +0.000 N 
ATOM     24  C   UNL     1       6.028   5.751  17.728  0.00  0.00    +0.000 C 
ATOM     25  C   UNL     1       6.004   4.932  19.029  0.00  0.00    +0.000 C 
ATOM     26  C   UNL     1       4.615   4.272  19.270  0.00  0.00    +0.000 C 
ATOM     27  C   UNL     1       4.265   3.431  18.026  0.00  0.00    +0.000 C 
ATOM     28  C   UNL     1       4.267   4.298  16.758  0.00  0.00    +0.000 C 
BRANCH  21  29
ATOM     29  C   UNL     1       5.887   4.001  14.281  0.00  0.00    +0.000 C 
BRANCH  29  31
ATOM     30  C   UNL     1       6.468   3.433  12.127  0.00  0.00    +0.000 C 
ATOM     31  O   UNL     1       6.909   4.042  13.314  0.00  0.00    +0.000 OA
ENDBRANCH  29  31
ENDBRANCH  21  29
ENDBRANCH  16  26
ENDBRANCH   1  18
BRANCH   4  32
ATOM     32  N   UNL     1       0.713  12.368  18.018  0.00  0.00    +0.000 N 
ATOM     33  H   UNL     1       1.313  12.808  17.295  0.00  0.00    +0.000 HD
ATOM     34  H   UNL     1      -0.023  12.960  18.408  0.00  0.00    +0.000 HD
ENDBRANCH   4  32
TORSDOF 6
ENDMDL
MODEL 6
REMARK VINA RESULT:      -8.5      3.096     10.946
REMARK  Name = 
REMARK  7 active torsions:
REMARK  status: ('A' for Active; 'I' for Inactive)
REMARK    1  A    between atoms: C_1  and  O_2
REMARK    2  A    between atoms: O_2  and  C_3
REMARK    3  A    between atoms: C_3  and  C_4
REMARK    4  A    between atoms: C_9  and  N_10
REMARK    5  A    between atoms: C_12  and  C_13
REMARK    6  A    between atoms: C_16  and  N_17
REMARK    7  A    between atoms: C_18  and  C_19
REMARK                            x       y       z     vdW  Elec       q    Type
REMARK                         _______ _______ _______ _____ _____    ______ ____
ROOT
ATOM      1  C   UNL     1       0.724   9.967  20.409  0.00  0.00    +0.000 A 
ATOM      2  C   UNL     1       1.111  10.612  19.220  0.00  0.00    +0.000 A 
ATOM      3  N   UNL     1       1.810   9.936  18.304  0.00  0.00    +0.000 NA
ATOM      4  C   UNL     1       2.165   8.600  18.408  0.00  0.00    +0.000 A 
ATOM      5  C   UNL     1       1.849   7.897  19.629  0.00  0.00    +0.000 A 
ATOM      6  C   UNL     1       1.091   8.628  20.597  0.00  0.00    +0.000 A 
ENDROOT
BRANCH   5   7
ATOM      7  C   UNL     1       2.224   6.428  19.819  0.00  0.00    +0.000 A 
ATOM      8  N   UNL     1       1.512   5.602  20.669  0.00  0.00    +0.000 NA
ATOM      9  C   UNL     1       2.191   4.450  20.636  0.00  0.00    +0.000 A 
ATOM     10  C   UNL     1       2.017   3.361  21.458  0.00  0.00    +0.000 A 
ATOM     11  C   UNL     1       3.049   2.413  21.439  0.00  0.00    +0.000 A 
ATOM     12  C   UNL     1       4.014   2.330  20.422  0.00  0.00    +0.000 A 
ATOM     13  C   UNL     1       4.123   3.450  19.572  0.00  0.00    +0.000 A 
ATOM     14  C   UNL     1       3.250   4.533  19.768  0.00  0.00    +0.000 A 
ATOM     15  O   UNL     1       3.255   5.764  19.284  0.00  0.00    +0.000 OA
ENDBRANCH   5   7
BRANCH   1  18
ATOM     16  N   UNL     1      -1.357  12.303  22.366  0.00  0.00    +0.000 N 
ATOM     17  C   UNL     1      -0.744  11.945  21.201  0.00  0.00    +0.000 A 
ATOM     18  C   UNL     1      -0.114  10.741  21.391  0.00  0.00    +0.000 A 
ATOM     19  C   UNL     1      -0.403  10.408  22.712  0.00  0.00    +0.000 A 
ATOM     20  N   UNL     1      -1.145  11.387  23.271  0.00  0.00    +0.000 NA
BRANCH  16  26
ATOM     21  C   UNL     1      -6.235  12.966  23.091  0.00  0.00    +0.000 C 
ATOM     22  O   UNL     1      -6.690  13.052  24.222  0.00  0.00    +0.000 OA
ATOM     23  N   UNL     1      -4.886  12.760  22.900  0.00  0.00    +0.000 N 
ATOM     24  C   UNL     1      -3.984  12.578  24.030  0.00  0.00    +0.000 C 
ATOM     25  C   UNL     1      -2.839  13.601  23.951  0.00  0.00    +0.000 C 
ATOM     26  C   UNL     1      -2.114  13.551  22.574  0.00  0.00    +0.000 C 
ATOM     27  C   UNL     1      -3.173  13.751  21.472  0.00  0.00    +0.000 C 
ATOM     28  C   UNL     1      -4.276  12.687  21.569  0.00  0.00    +0.000 C 
BRANCH  21  29
ATOM     29  C   UNL     1      -7.206  13.044  21.941  0.00  0.00    +0.000 C 
BRANCH  29  31
ATOM     30  C   UNL     1      -7.511  11.380  20.379  0.00  0.00    +0.000 C 
ATOM     31  O   UNL     1      -7.714  11.750  21.719  0.00  0.00    +0.000 OA
ENDBRANCH  29  31
ENDBRANCH  21  29
ENDBRANCH  16  26
ENDBRANCH   1  18
BRANCH   4  32
ATOM     32  N   UNL     1       2.863   8.054  17.343  0.00  0.00    +0.000 N 
ATOM     33  H   UNL     1       3.861   8.299  17.201  0.00  0.00    +0.000 HD
ATOM     34  H   UNL     1       2.440   7.471  16.617  0.00  0.00    +0.000 HD
ENDBRANCH   4  32
TORSDOF 6
ENDMDL
MODEL 7
REMARK VINA RESULT:      -8.5      1.102      1.300
REMARK  Name = 
REMARK  7 active torsions:
REMARK  status: ('A' for Active; 'I' for Inactive)
REMARK    1  A    between atoms: C_1  and  O_2
REMARK    2  A    between atoms: O_2  and  C_3
REMARK    3  A    between atoms: C_3  and  C_4
REMARK    4  A    between atoms: C_9  and  N_10
REMARK    5  A    between atoms: C_12  and  C_13
REMARK    6  A    between atoms: C_16  and  N_17
REMARK    7  A    between atoms: C_18  and  C_19
REMARK                            x       y       z     vdW  Elec       q    Type
REMARK                         _______ _______ _______ _____ _____    ______ ____
ROOT
ATOM      1  C   UNL     1       1.877   8.251  19.204  0.00  0.00    +0.000 A 
ATOM      2  C   UNL     1       2.404   8.887  18.066  0.00  0.00    +0.000 A 
ATOM      3  N   UNL     1       2.003  10.124  17.761  0.00  0.00    +0.000 NA
ATOM      4  C   UNL     1       1.113  10.875  18.513  0.00  0.00    +0.000 A 
ATOM      5  C   UNL     1       0.491  10.258  19.661  0.00  0.00    +0.000 A 
ATOM      6  C   UNL     1       0.937   8.938  19.984  0.00  0.00    +0.000 A 
ENDROOT
BRANCH   5   7
ATOM      7  C   UNL     1      -0.511  11.021  20.527  0.00  0.00    +0.000 A 
ATOM      8  N   UNL     1      -1.529  11.769  19.967  0.00  0.00    +0.000 NA
ATOM      9  C   UNL     1      -2.116  12.347  21.022  0.00  0.00    +0.000 A 
ATOM     10  C   UNL     1      -3.060  13.347  21.002  0.00  0.00    +0.000 A 
ATOM     11  C   UNL     1      -3.281  14.000  22.222  0.00  0.00    +0.000 A 
ATOM     12  C   UNL     1      -2.891  13.480  23.468  0.00  0.00    +0.000 A 
ATOM     13  C   UNL     1      -1.959  12.421  23.437  0.00  0.00    +0.000 A 
ATOM     14  C   UNL     1      -1.526  11.939  22.192  0.00  0.00    +0.000 A 
ATOM     15  O   UNL     1      -0.533  11.129  21.860  0.00  0.00    +0.000 OA
ENDBRANCH   5   7
BRANCH   1  18
ATOM     16  N   UNL     1       3.595   5.012  19.624  0.00  0.00    +0.000 N 
ATOM     17  C   UNL     1       3.526   6.261  19.080  0.00  0.00    +0.000 A 
ATOM     18  C   UNL     1       2.398   6.882  19.552  0.00  0.00    +0.000 A 
ATOM     19  C   UNL     1       1.823   5.944  20.407  0.00  0.00    +0.000 A 
ATOM     20  N   UNL     1       2.571   4.820  20.411  0.00  0.00    +0.000 NA
BRANCH  16  26
ATOM     21  C   UNL     1       6.484   4.531  15.600  0.00  0.00    +0.000 C 
ATOM     22  O   UNL     1       7.597   5.034  15.570  0.00  0.00    +0.000 OA
ATOM     23  N   UNL     1       5.681   4.688  16.709  0.00  0.00    +0.000 N 
ATOM     24  C   UNL     1       6.110   5.502  17.841  0.00  0.00    +0.000 C 
ATOM     25  C   UNL     1       6.051   4.669  19.132  0.00  0.00    +0.000 C 
ATOM     26  C   UNL     1       4.650   4.022  19.338  0.00  0.00    +0.000 C 
ATOM     27  C   UNL     1       4.317   3.198  18.079  0.00  0.00    +0.000 C 
ATOM     28  C   UNL     1       4.353   4.079  16.821  0.00  0.00    +0.000 C 
BRANCH  21  29
ATOM     29  C   UNL     1       6.019   3.790  14.373  0.00  0.00    +0.000 C 
BRANCH  29  31
ATOM     30  C   UNL     1       6.458   3.504  12.131  0.00  0.00    +0.000 C 
ATOM     31  O   UNL     1       6.797   4.231  13.285  0.00  0.00    +0.000 OA
ENDBRANCH  29  31
ENDBRANCH  21  29
ENDBRANCH  16  26
ENDBRANCH   1  18
BRANCH   4  32
ATOM     32  N   UNL     1       0.837  12.155  18.061  0.00  0.00    +0.000 N 
ATOM     33  H   UNL     1       0.400  12.845  18.701  0.00  0.00    +0.000 HD
ATOM     34  H   UNL     1       0.960  12.462  17.094  0.00  0.00    +0.000 HD
ENDBRANCH   4  32
TORSDOF 6
ENDMDL
MODEL 8
REMARK VINA RESULT:      -8.3      2.499     10.903
REMARK  Name = 
REMARK  7 active torsions:
REMARK  status: ('A' for Active; 'I' for Inactive)
REMARK    1  A    between atoms: C_1  and  O_2
REMARK    2  A    between atoms: O_2  and  C_3
REMARK    3  A    between atoms: C_3  and  C_4
REMARK    4  A    between atoms: C_9  and  N_10
REMARK    5  A    between atoms: C_12  and  C_13
REMARK    6  A    between atoms: C_16  and  N_17
REMARK    7  A    between atoms: C_18  and  C_19
REMARK                            x       y       z     vdW  Elec       q    Type
REMARK                         _______ _______ _______ _____ _____    ______ ____
ROOT
ATOM      1  C   UNL     1       1.239   8.812  19.988  0.00  0.00    +0.000 A 
ATOM      2  C   UNL     1       0.844   8.064  21.112  0.00  0.00    +0.000 A 
ATOM      3  N   UNL     1       1.298   6.817  21.264  0.00  0.00    +0.000 NA
ATOM      4  C   UNL     1       2.184   6.188  20.403  0.00  0.00    +0.000 A 
ATOM      5  C   UNL     1       2.582   6.880  19.200  0.00  0.00    +0.000 A 
ATOM      6  C   UNL     1       2.099   8.218  19.055  0.00  0.00    +0.000 A 
ENDROOT
BRANCH   5   7
ATOM      7  C   UNL     1       3.544   6.241  18.198  0.00  0.00    +0.000 A 
ATOM      8  N   UNL     1       4.187   6.992  17.232  0.00  0.00    +0.000 NA
ATOM      9  C   UNL     1       4.849   6.080  16.509  0.00  0.00    +0.000 A 
ATOM     10  C   UNL     1       5.487   6.278  15.307  0.00  0.00    +0.000 A 
ATOM     11  C   UNL     1       5.825   5.118  14.599  0.00  0.00    +0.000 A 
ATOM     12  C   UNL     1       5.879   3.838  15.176  0.00  0.00    +0.000 A 
ATOM     13  C   UNL     1       5.254   3.694  16.432  0.00  0.00    +0.000 A 
ATOM     14  C   UNL     1       4.669   4.823  17.028  0.00  0.00    +0.000 A 
ATOM     15  O   UNL     1       3.854   4.947  18.063  0.00  0.00    +0.000 OA
ENDBRANCH   5   7
BRANCH   1  18
ATOM     16  N   UNL     1      -0.056  12.249  20.344  0.00  0.00    +0.000 N 
ATOM     17  C   UNL     1       0.332  11.061  20.890  0.00  0.00    +0.000 A 
ATOM     18  C   UNL     1       0.758  10.234  19.882  0.00  0.00    +0.000 A 
ATOM     19  C   UNL     1       0.615  11.000  18.727  0.00  0.00    +0.000 A 
ATOM     20  N   UNL     1       0.106  12.208  19.049  0.00  0.00    +0.000 NA
BRANCH  16  26
ATOM     21  C   UNL     1      -4.427  12.695  22.681  0.00  0.00    +0.000 C 
ATOM     22  O   UNL     1      -4.520  12.458  23.877  0.00  0.00    +0.000 OA
ATOM     23  N   UNL     1      -3.218  12.547  22.037  0.00  0.00    +0.000 N 
ATOM     24  C   UNL     1      -2.043  12.049  22.744  0.00  0.00    +0.000 C 
ATOM     25  C   UNL     1      -0.885  13.049  22.595  0.00  0.00    +0.000 C 
ATOM     26  C   UNL     1      -0.603  13.389  21.102  0.00  0.00    +0.000 C 
ATOM     27  C   UNL     1      -1.917  13.897  20.475  0.00  0.00    +0.000 C 
ATOM     28  C   UNL     1      -3.034  12.852  20.616  0.00  0.00    +0.000 C 
BRANCH  21  29
ATOM     29  C   UNL     1      -5.681  13.099  21.950  0.00  0.00    +0.000 C 
BRANCH  29  31
ATOM     30  C   UNL     1      -6.755  11.743  20.432  0.00  0.00    +0.000 C 
ATOM     31  O   UNL     1      -6.477  11.948  21.794  0.00  0.00    +0.000 OA
ENDBRANCH  29  31
ENDBRANCH  21  29
ENDBRANCH  16  26
ENDBRANCH   1  18
BRANCH   4  32
ATOM     32  N   UNL     1       2.573   4.901  20.737  0.00  0.00    +0.000 N 
ATOM     33  H   UNL     1       3.048   4.306  20.031  0.00  0.00    +0.000 HD
ATOM     34  H   UNL     1       2.354   4.447  21.626  0.00  0.00    +0.000 HD
ENDBRANCH   4  32
TORSDOF 6
ENDMDL
MODEL 9
REMARK VINA RESULT:      -8.3      2.560     10.944
REMARK  Name = 
REMARK  7 active torsions:
REMARK  status: ('A' for Active; 'I' for Inactive)
REMARK    1  A    between atoms: C_1  and  O_2
REMARK    2  A    between atoms: O_2  and  C_3
REMARK    3  A    between atoms: C_3  and  C_4
REMARK    4  A    between atoms: C_9  and  N_10
REMARK    5  A    between atoms: C_12  and  C_13
REMARK    6  A    between atoms: C_16  and  N_17
REMARK    7  A    between atoms: C_18  and  C_19
REMARK                            x       y       z     vdW  Elec       q    Type
REMARK                         _______ _______ _______ _____ _____    ______ ____
ROOT
ATOM      1  C   UNL     1       1.049   9.067  20.095  0.00  0.00    +0.000 A 
ATOM      2  C   UNL     1       0.761   8.323  21.254  0.00  0.00    +0.000 A 
ATOM      3  N   UNL     1       1.246   7.085  21.376  0.00  0.00    +0.000 NA
ATOM      4  C   UNL     1       2.066   6.461  20.449  0.00  0.00    +0.000 A 
ATOM      5  C   UNL     1       2.351   7.148  19.211  0.00  0.00    +0.000 A 
ATOM      6  C   UNL     1       1.837   8.477  19.097  0.00  0.00    +0.000 A 
ENDROOT
BRANCH   5   7
ATOM      7  C   UNL     1       3.235   6.514  18.137  0.00  0.00    +0.000 A 
ATOM      8  N   UNL     1       3.230   5.151  17.907  0.00  0.00    +0.000 NA
ATOM      9  C   UNL     1       4.183   4.982  16.982  0.00  0.00    +0.000 A 
ATOM     10  C   UNL     1       4.717   3.790  16.550  0.00  0.00    +0.000 A 
ATOM     11  C   UNL     1       5.909   3.887  15.821  0.00  0.00    +0.000 A 
ATOM     12  C   UNL     1       6.366   5.075  15.225  0.00  0.00    +0.000 A 
ATOM     13  C   UNL     1       5.755   6.268  15.664  0.00  0.00    +0.000 A 
ATOM     14  C   UNL     1       4.723   6.187  16.613  0.00  0.00    +0.000 A 
ATOM     15  O   UNL     1       4.129   7.116  17.346  0.00  0.00    +0.000 OA
ENDBRANCH   5   7
BRANCH   1  18
ATOM     16  N   UNL     1      -0.328  12.464  20.520  0.00  0.00    +0.000 N 
ATOM     17  C   UNL     1       0.076  11.270  21.041  0.00  0.00    +0.000 A 
ATOM     18  C   UNL     1       0.539  10.481  20.019  0.00  0.00    +0.000 A 
ATOM     19  C   UNL     1       0.402  11.276  18.883  0.00  0.00    +0.000 A 
ATOM     20  N   UNL     1      -0.140  12.463  19.228  0.00  0.00    +0.000 NA
BRANCH  16  26
ATOM     21  C   UNL     1      -4.680  12.689  22.924  0.00  0.00    +0.000 C 
ATOM     22  O   UNL     1      -4.745  12.435  24.118  0.00  0.00    +0.000 OA
ATOM     23  N   UNL     1      -3.474  12.602  22.261  0.00  0.00    +0.000 N 
ATOM     24  C   UNL     1      -2.269  12.150  22.945  0.00  0.00    +0.000 C 
ATOM     25  C   UNL     1      -1.159  13.202  22.791  0.00  0.00    +0.000 C 
ATOM     26  C   UNL     1      -0.914  13.571  21.299  0.00  0.00    +0.000 C 
ATOM     27  C   UNL     1      -2.258  14.026  20.696  0.00  0.00    +0.000 C 
ATOM     28  C   UNL     1      -3.325  12.930  20.841  0.00  0.00    +0.000 C 
BRANCH  21  29
ATOM     29  C   UNL     1      -5.961  13.044  22.215  0.00  0.00    +0.000 C 
BRANCH  29  31
ATOM     30  C   UNL     1      -7.345  12.042  20.672  0.00  0.00    +0.000 C 
ATOM     31  O   UNL     1      -6.593  11.842  21.842  0.00  0.00    +0.000 OA
ENDBRANCH  29  31
ENDBRANCH  21  29
ENDBRANCH  16  26
ENDBRANCH   1  18
BRANCH   4  32
ATOM     32  N   UNL     1       2.501   5.182  20.759  0.00  0.00    +0.000 N 
ATOM     33  H   UNL     1       2.682   4.501  19.998  0.00  0.00    +0.000 HD
ATOM     34  H   UNL     1       2.586   4.820  21.711  0.00  0.00    +0.000 HD
ENDBRANCH   4  32
TORSDOF 6
ENDMDL
