MODEL 1
REMARK VINA RESULT:      -7.7      0.000      0.000
REMARK  Name = 
REMARK  3 active torsions:
REMARK  status: ('A' for Active; 'I' for Inactive)
REMARK    1  A    between atoms: C_2  and  C_12
REMARK    2  A    between atoms: N_3  and  C_4
REMARK    3  A    between atoms: C_4  and  C_5
REMARK                            x       y       z     vdW  Elec       q    Type
REMARK                         _______ _______ _______ _____ _____    ______ ____
ROOT
ATOM      1  O   UNL     1       2.993   4.436  17.211  0.00  0.00    +0.000 OA
ATOM      2  C   UNL     1       4.084   3.900  17.359  0.00  0.00    +0.000 C 
ATOM      3  N   UNL     1       4.208   2.587  17.769  0.00  0.00    +0.000 N 
ATOM      4  H   UNL     1       5.113   2.146  17.849  0.00  0.00    +0.000 HD
ENDROOT
BRANCH   2   5
ATOM      5  C   UNL     1       5.360   4.646  17.102  0.00  0.00    +0.000 A 
ATOM      6  C   UNL     1       5.902   5.440  18.128  0.00  0.00    +0.000 A 
ATOM      7  C   UNL     1       7.061   6.181  17.911  0.00  0.00    +0.000 A 
ATOM      8  C   UNL     1       7.674   6.154  16.663  0.00  0.00    +0.000 A 
ATOM      9  C   UNL     1       7.151   5.387  15.615  0.00  0.00    +0.000 A 
ATOM     10  C   UNL     1       5.993   4.612  15.834  0.00  0.00    +0.000 A 
ATOM     11  C   UNL     1       5.457   3.762  14.700  0.00  0.00    +0.000 C 
ATOM     12  C   UNL     1       6.428   3.623  13.529  0.00  0.00    +0.000 C 
ATOM     13  C   UNL     1       7.051   4.966  13.201  0.00  0.00    +0.000 C 
ATOM     14  N   UNL     1       7.730   5.518  14.356  0.00  0.00    +0.000 N 
ATOM     15  H   UNL     1       8.742   5.572  14.328  0.00  0.00    +0.000 HD
ENDBRANCH   2   5
BRANCH   3  16
ATOM     16  C   UNL     1       3.049   1.764  18.046  0.00  0.00    +0.000 C 
BRANCH  16  17
ATOM     17  C   UNL     1       2.449   2.152  19.360  0.00  0.00    +0.000 A 
ATOM     18  C   UNL     1       3.158   2.323  20.492  0.00  0.00    +0.000 A 
ATOM     19  C   UNL     1       2.525   2.744  21.721  0.00  0.00    +0.000 A 
ATOM     20  C   UNL     1       1.214   2.999  21.738  0.00  0.00    +0.000 A 
ATOM     21  N   UNL     1       0.468   2.849  20.598  0.00  0.00    +0.000 N 
ATOM     22  C   UNL     1       0.983   2.439  19.388  0.00  0.00    +0.000 A 
ATOM     23  O   UNL     1       0.273   2.317  18.394  0.00  0.00    +0.000 OA
ATOM     24  H   UNL     1      -0.525   3.042  20.610  0.00  0.00    +0.000 HD
ENDBRANCH  16  17
ENDBRANCH   3  16
TORSDOF 3
ENDMDL
MODEL 2
REMARK VINA RESULT:      -7.5      2.486      6.982
REMARK  Name = 
REMARK  3 active torsions:
REMARK  status: ('A' for Active; 'I' for Inactive)
REMARK    1  A    between atoms: C_2  and  C_12
REMARK    2  A    between atoms: N_3  and  C_4
REMARK    3  A    between atoms: C_4  and  C_5
REMARK                            x       y       z     vdW  Elec       q    Type
REMARK                         _______ _______ _______ _____ _____    ______ ____
ROOT
ATOM      1  O   UNL     1       6.572   4.829  18.527  0.00  0.00    +0.000 OA
ATOM      2  C   UNL     1       5.616   5.189  17.851  0.00  0.00    +0.000 C 
ATOM      3  N   UNL     1       5.739   5.494  16.509  0.00  0.00    +0.000 N 
ATOM      4  H   UNL     1       4.934   5.751  15.955  0.00  0.00    +0.000 HD
ENDROOT
BRANCH   2   5
ATOM      5  C   UNL     1       4.246   5.321  18.447  0.00  0.00    +0.000 A 
ATOM      6  C   UNL     1       3.860   6.555  18.998  0.00  0.00    +0.000 A 
ATOM      7  C   UNL     1       2.612   6.702  19.599  0.00  0.00    +0.000 A 
ATOM      8  C   UNL     1       1.750   5.612  19.676  0.00  0.00    +0.000 A 
ATOM      9  C   UNL     1       2.110   4.365  19.151  0.00  0.00    +0.000 A 
ATOM     10  C   UNL     1       3.361   4.214  18.517  0.00  0.00    +0.000 A 
ATOM     11  C   UNL     1       3.724   2.868  17.927  0.00  0.00    +0.000 C 
ATOM     12  C   UNL     1       2.543   1.904  17.834  0.00  0.00    +0.000 C 
ATOM     13  C   UNL     1       1.731   1.943  19.113  0.00  0.00    +0.000 C 
ATOM     14  N   UNL     1       1.264   3.287  19.390  0.00  0.00    +0.000 N 
ATOM     15  H   UNL     1       0.269   3.468  19.309  0.00  0.00    +0.000 HD
ENDBRANCH   2   5
BRANCH   3  16
ATOM     16  C   UNL     1       7.010   5.402  15.822  0.00  0.00    +0.000 C 
BRANCH  16  17
ATOM     17  C   UNL     1       6.823   4.752  14.488  0.00  0.00    +0.000 A 
ATOM     18  C   UNL     1       5.828   3.893  14.199  0.00  0.00    +0.000 A 
ATOM     19  C   UNL     1       5.674   3.334  12.876  0.00  0.00    +0.000 A 
ATOM     20  C   UNL     1       6.516   3.693  11.902  0.00  0.00    +0.000 A 
ATOM     21  N   UNL     1       7.529   4.580  12.161  0.00  0.00    +0.000 N 
ATOM     22  C   UNL     1       7.760   5.150  13.393  0.00  0.00    +0.000 A 
ATOM     23  O   UNL     1       8.683   5.937  13.576  0.00  0.00    +0.000 OA
ATOM     24  H   UNL     1       8.167   4.853  11.425  0.00  0.00    +0.000 HD
ENDBRANCH  16  17
ENDBRANCH   3  16
TORSDOF 3
ENDMDL
MODEL 3
REMARK VINA RESULT:      -7.4      1.160      1.503
REMARK  Name = 
REMARK  3 active torsions:
REMARK  status: ('A' for Active; 'I' for Inactive)
REMARK    1  A    between atoms: C_2  and  C_12
REMARK    2  A    between atoms: N_3  and  C_4
REMARK    3  A    between atoms: C_4  and  C_5
REMARK                            x       y       z     vdW  Elec       q    Type
REMARK                         _______ _______ _______ _____ _____    ______ ____
ROOT
ATOM      1  O   UNL     1       3.073   4.415  17.151  0.00  0.00    +0.000 OA
ATOM      2  C   UNL     1       4.183   3.918  17.296  0.00  0.00    +0.000 C 
ATOM      3  N   UNL     1       4.355   2.622  17.741  0.00  0.00    +0.000 N 
ATOM      4  H   UNL     1       5.275   2.212  17.819  0.00  0.00    +0.000 HD
ENDROOT
BRANCH   2   5
ATOM      5  C   UNL     1       5.431   4.696  16.998  0.00  0.00    +0.000 A 
ATOM      6  C   UNL     1       5.958   5.543  17.988  0.00  0.00    +0.000 A 
ATOM      7  C   UNL     1       7.089   6.313  17.731  0.00  0.00    +0.000 A 
ATOM      8  C   UNL     1       7.688   6.263  16.477  0.00  0.00    +0.000 A 
ATOM      9  C   UNL     1       7.179   5.442  15.463  0.00  0.00    +0.000 A 
ATOM     10  C   UNL     1       6.050   4.638  15.723  0.00  0.00    +0.000 A 
ATOM     11  C   UNL     1       5.529   3.732  14.627  0.00  0.00    +0.000 C 
ATOM     12  C   UNL     1       6.491   3.584  13.449  0.00  0.00    +0.000 C 
ATOM     13  C   UNL     1       7.065   4.934  13.067  0.00  0.00    +0.000 C 
ATOM     14  N   UNL     1       7.738   5.549  14.193  0.00  0.00    +0.000 N 
ATOM     15  H   UNL     1       8.748   5.635  14.151  0.00  0.00    +0.000 HD
ENDBRANCH   2   5
BRANCH   3  16
ATOM     16  C   UNL     1       3.227   1.771  18.060  0.00  0.00    +0.000 C 
BRANCH  16  17
ATOM     17  C   UNL     1       2.589   2.225  19.334  0.00  0.00    +0.000 A 
ATOM     18  C   UNL     1       1.280   2.510  19.463  0.00  0.00    +0.000 A 
ATOM     19  C   UNL     1       0.714   2.900  20.734  0.00  0.00    +0.000 A 
ATOM     20  C   UNL     1       1.494   2.954  21.818  0.00  0.00    +0.000 A 
ATOM     21  N   UNL     1       2.828   2.653  21.722  0.00  0.00    +0.000 N 
ATOM     22  C   UNL     1       3.454   2.287  20.551  0.00  0.00    +0.000 A 
ATOM     23  O   UNL     1       4.653   2.030  20.515  0.00  0.00    +0.000 OA
ATOM     24  H   UNL     1       3.419   2.694  22.542  0.00  0.00    +0.000 HD
ENDBRANCH  16  17
ENDBRANCH   3  16
TORSDOF 3
ENDMDL
MODEL 4
REMARK VINA RESULT:      -7.3      2.638      6.841
REMARK  Name = 
REMARK  3 active torsions:
REMARK  status: ('A' for Active; 'I' for Inactive)
REMARK    1  A    between atoms: C_2  and  C_12
REMARK    2  A    between atoms: N_3  and  C_4
REMARK    3  A    between atoms: C_4  and  C_5
REMARK                            x       y       z     vdW  Elec       q    Type
REMARK                         _______ _______ _______ _____ _____    ______ ____
ROOT
ATOM      1  O   UNL     1       5.143   6.965  15.333  0.00  0.00    +0.000 OA
ATOM      2  C   UNL     1       5.130   6.234  16.316  0.00  0.00    +0.000 C 
ATOM      3  N   UNL     1       6.170   5.373  16.605  0.00  0.00    +0.000 N 
ATOM      4  H   UNL     1       6.164   4.804  17.440  0.00  0.00    +0.000 HD
ENDROOT
BRANCH   2   5
ATOM      5  C   UNL     1       3.972   6.232  17.270  0.00  0.00    +0.000 A 
ATOM      6  C   UNL     1       3.534   7.452  17.812  0.00  0.00    +0.000 A 
ATOM      7  C   UNL     1       2.490   7.483  18.733  0.00  0.00    +0.000 A 
ATOM      8  C   UNL     1       1.891   6.294  19.138  0.00  0.00    +0.000 A 
ATOM      9  C   UNL     1       2.314   5.060  18.629  0.00  0.00    +0.000 A 
ATOM     10  C   UNL     1       3.352   5.022  17.676  0.00  0.00    +0.000 A 
ATOM     11  C   UNL     1       3.777   3.682  17.111  0.00  0.00    +0.000 C 
ATOM     12  C   UNL     1       2.808   2.548  17.436  0.00  0.00    +0.000 C 
ATOM     13  C   UNL     1       2.379   2.623  18.888  0.00  0.00    +0.000 C 
ATOM     14  N   UNL     1       1.771   3.905  19.183  0.00  0.00    +0.000 N 
ATOM     15  H   UNL     1       0.776   3.922  19.379  0.00  0.00    +0.000 HD
ENDBRANCH   2   5
BRANCH   3  16
ATOM     16  C   UNL     1       7.343   5.287  15.760  0.00  0.00    +0.000 C 
BRANCH  16  17
ATOM     17  C   UNL     1       6.985   4.657  14.451  0.00  0.00    +0.000 A 
ATOM     18  C   UNL     1       5.986   3.769  14.289  0.00  0.00    +0.000 A 
ATOM     19  C   UNL     1       5.659   3.231  12.989  0.00  0.00    +0.000 A 
ATOM     20  C   UNL     1       6.339   3.637  11.913  0.00  0.00    +0.000 A 
ATOM     21  N   UNL     1       7.351   4.553  12.044  0.00  0.00    +0.000 N 
ATOM     22  C   UNL     1       7.740   5.107  13.243  0.00  0.00    +0.000 A 
ATOM     23  O   UNL     1       8.656   5.921  13.309  0.00  0.00    +0.000 OA
ATOM     24  H   UNL     1       7.867   4.861  11.230  0.00  0.00    +0.000 HD
ENDBRANCH  16  17
ENDBRANCH   3  16
TORSDOF 3
ENDMDL
MODEL 5
REMARK VINA RESULT:      -7.3      5.960      7.581
REMARK  Name = 
REMARK  3 active torsions:
REMARK  status: ('A' for Active; 'I' for Inactive)
REMARK    1  A    between atoms: C_2  and  C_12
REMARK    2  A    between atoms: N_3  and  C_4
REMARK    3  A    between atoms: C_4  and  C_5
REMARK                            x       y       z     vdW  Elec       q    Type
REMARK                         _______ _______ _______ _____ _____    ______ ____
ROOT
ATOM      1  O   UNL     1       1.819   7.870  20.826  0.00  0.00    +0.000 OA
ATOM      2  C   UNL     1       1.958   7.836  19.609  0.00  0.00    +0.000 C 
ATOM      3  N   UNL     1       1.522   8.861  18.792  0.00  0.00    +0.000 N 
ATOM      4  H   UNL     1       1.678   8.837  17.794  0.00  0.00    +0.000 HD
ENDROOT
BRANCH   2   5
ATOM      5  C   UNL     1       2.613   6.668  18.932  0.00  0.00    +0.000 A 
ATOM      6  C   UNL     1       3.545   6.910  17.909  0.00  0.00    +0.000 A 
ATOM      7  C   UNL     1       4.139   5.851  17.229  0.00  0.00    +0.000 A 
ATOM      8  C   UNL     1       3.791   4.542  17.549  0.00  0.00    +0.000 A 
ATOM      9  C   UNL     1       2.854   4.267  18.553  0.00  0.00    +0.000 A 
ATOM     10  C   UNL     1       2.267   5.334  19.264  0.00  0.00    +0.000 A 
ATOM     11  C   UNL     1       1.279   5.020  20.368  0.00  0.00    +0.000 C 
ATOM     12  C   UNL     1       1.265   3.547  20.775  0.00  0.00    +0.000 C 
ATOM     13  C   UNL     1       1.288   2.662  19.544  0.00  0.00    +0.000 C 
ATOM     14  N   UNL     1       2.446   2.947  18.722  0.00  0.00    +0.000 N 
ATOM     15  H   UNL     1       3.171   2.241  18.664  0.00  0.00    +0.000 HD
ENDBRANCH   2   5
BRANCH   3  16
ATOM     16  C   UNL     1       0.877  10.041  19.329  0.00  0.00    +0.000 C 
BRANCH  16  17
ATOM     17  C   UNL     1      -0.242  10.464  18.432  0.00  0.00    +0.000 A 
ATOM     18  C   UNL     1      -0.989   9.614  17.704  0.00  0.00    +0.000 A 
ATOM     19  C   UNL     1      -2.089  10.082  16.892  0.00  0.00    +0.000 A 
ATOM     20  C   UNL     1      -2.396  11.382  16.877  0.00  0.00    +0.000 A 
ATOM     21  N   UNL     1      -1.664  12.271  17.621  0.00  0.00    +0.000 N 
ATOM     22  C   UNL     1      -0.592  11.917  18.412  0.00  0.00    +0.000 A 
ATOM     23  O   UNL     1       0.034  12.751  19.057  0.00  0.00    +0.000 OA
ATOM     24  H   UNL     1      -1.895  13.255  17.611  0.00  0.00    +0.000 HD
ENDBRANCH  16  17
ENDBRANCH   3  16
TORSDOF 3
ENDMDL
MODEL 6
REMARK VINA RESULT:      -7.3      1.560      2.103
REMARK  Name = 
REMARK  3 active torsions:
REMARK  status: ('A' for Active; 'I' for Inactive)
REMARK    1  A    between atoms: C_2  and  C_12
REMARK    2  A    between atoms: N_3  and  C_4
REMARK    3  A    between atoms: C_4  and  C_5
REMARK                            x       y       z     vdW  Elec       q    Type
REMARK                         _______ _______ _______ _____ _____    ______ ____
ROOT
ATOM      1  O   UNL     1       4.134   4.871  19.998  0.00  0.00    +0.000 OA
ATOM      2  C   UNL     1       5.055   4.296  19.429  0.00  0.00    +0.000 C 
ATOM      3  N   UNL     1       5.258   2.936  19.552  0.00  0.00    +0.000 N 
ATOM      4  H   UNL     1       5.998   2.469  19.046  0.00  0.00    +0.000 HD
ENDROOT
BRANCH   2   5
ATOM      5  C   UNL     1       6.024   5.045  18.562  0.00  0.00    +0.000 A 
ATOM      6  C   UNL     1       6.909   5.958  19.162  0.00  0.00    +0.000 A 
ATOM      7  C   UNL     1       7.791   6.702  18.384  0.00  0.00    +0.000 A 
ATOM      8  C   UNL     1       7.782   6.558  17.000  0.00  0.00    +0.000 A 
ATOM      9  C   UNL     1       6.902   5.670  16.370  0.00  0.00    +0.000 A 
ATOM     10  C   UNL     1       6.023   4.892  17.152  0.00  0.00    +0.000 A 
ATOM     11  C   UNL     1       5.100   3.912  16.459  0.00  0.00    +0.000 C 
ATOM     12  C   UNL     1       5.451   3.675  14.992  0.00  0.00    +0.000 C 
ATOM     13  C   UNL     1       5.763   4.992  14.307  0.00  0.00    +0.000 C 
ATOM     14  N   UNL     1       6.845   5.682  14.979  0.00  0.00    +0.000 N 
ATOM     15  H   UNL     1       7.732   5.760  14.493  0.00  0.00    +0.000 HD
ENDBRANCH   2   5
BRANCH   3  16
ATOM     16  C   UNL     1       4.388   2.106  20.359  0.00  0.00    +0.000 C 
BRANCH  16  17
ATOM     17  C   UNL     1       2.960   2.352  19.989  0.00  0.00    +0.000 A 
ATOM     18  C   UNL     1       2.449   2.130  18.763  0.00  0.00    +0.000 A 
ATOM     19  C   UNL     1       1.048   2.343  18.481  0.00  0.00    +0.000 A 
ATOM     20  C   UNL     1       0.228   2.742  19.457  0.00  0.00    +0.000 A 
ATOM     21  N   UNL     1       0.716   2.961  20.719  0.00  0.00    +0.000 N 
ATOM     22  C   UNL     1       2.036   2.797  21.076  0.00  0.00    +0.000 A 
ATOM     23  O   UNL     1       2.425   3.009  22.220  0.00  0.00    +0.000 OA
ATOM     24  H   UNL     1       0.096   3.263  21.460  0.00  0.00    +0.000 HD
ENDBRANCH  16  17
ENDBRANCH   3  16
TORSDOF 3
ENDMDL
MODEL 7
REMARK VINA RESULT:      -7.2      1.051      2.555
REMARK  Name = 
REMARK  3 active torsions:
REMARK  status: ('A' for Active; 'I' for Inactive)
REMARK    1  A    between atoms: C_2  and  C_12
REMARK    2  A    between atoms: N_3  and  C_4
REMARK    3  A    between atoms: C_4  and  C_5
REMARK                            x       y       z     vdW  Elec       q    Type
REMARK                         _______ _______ _______ _____ _____    ______ ____
ROOT
ATOM      1  O   UNL     1       2.637   3.568  16.552  0.00  0.00    +0.000 OA
ATOM      2  C   UNL     1       3.792   3.288  16.851  0.00  0.00    +0.000 C 
ATOM      3  N   UNL     1       4.100   2.230  17.683  0.00  0.00    +0.000 N 
ATOM      4  H   UNL     1       5.058   1.987  17.889  0.00  0.00    +0.000 HD
ENDROOT
BRANCH   2   5
ATOM      5  C   UNL     1       4.948   4.088  16.325  0.00  0.00    +0.000 A 
ATOM      6  C   UNL     1       5.180   4.118  14.940  0.00  0.00    +0.000 A 
ATOM      7  C   UNL     1       6.269   4.814  14.420  0.00  0.00    +0.000 A 
ATOM      8  C   UNL     1       7.146   5.465  15.281  0.00  0.00    +0.000 A 
ATOM      9  C   UNL     1       6.953   5.441  16.668  0.00  0.00    +0.000 A 
ATOM     10  C   UNL     1       5.838   4.761  17.200  0.00  0.00    +0.000 A 
ATOM     11  C   UNL     1       5.624   4.771  18.700  0.00  0.00    +0.000 C 
ATOM     12  C   UNL     1       6.500   5.783  19.435  0.00  0.00    +0.000 C 
ATOM     13  C   UNL     1       7.918   5.736  18.902  0.00  0.00    +0.000 C 
ATOM     14  N   UNL     1       7.945   5.989  17.475  0.00  0.00    +0.000 N 
ATOM     15  H   UNL     1       8.356   6.859  17.157  0.00  0.00    +0.000 HD
ENDBRANCH   2   5
BRANCH   3  16
ATOM     16  C   UNL     1       3.070   1.385  18.251  0.00  0.00    +0.000 C 
BRANCH  16  17
ATOM     17  C   UNL     1       2.471   2.045  19.452  0.00  0.00    +0.000 A 
ATOM     18  C   UNL     1       3.170   2.397  20.547  0.00  0.00    +0.000 A 
ATOM     19  C   UNL     1       2.542   3.076  21.657  0.00  0.00    +0.000 A 
ATOM     20  C   UNL     1       1.245   3.391  21.593  0.00  0.00    +0.000 A 
ATOM     21  N   UNL     1       0.511   3.061  20.484  0.00  0.00    +0.000 N 
ATOM     22  C   UNL     1       1.022   2.402  19.388  0.00  0.00    +0.000 A 
ATOM     23  O   UNL     1       0.322   2.126  18.418  0.00  0.00    +0.000 OA
ATOM     24  H   UNL     1      -0.471   3.299  20.434  0.00  0.00    +0.000 HD
ENDBRANCH  16  17
ENDBRANCH   3  16
TORSDOF 3
ENDMDL
MODEL 8
REMARK VINA RESULT:      -7.2      1.737      3.076
REMARK  Name = 
REMARK  3 active torsions:
REMARK  status: ('A' for Active; 'I' for Inactive)
REMARK    1  A    between atoms: C_2  and  C_12
REMARK    2  A    between atoms: N_3  and  C_4
REMARK    3  A    between atoms: C_4  and  C_5
REMARK                            x       y       z     vdW  Elec       q    Type
REMARK                         _______ _______ _______ _____ _____    ______ ____
ROOT
ATOM      1  O   UNL     1       3.372   2.321  17.297  0.00  0.00    +0.000 OA
ATOM      2  C   UNL     1       3.495   3.518  17.064  0.00  0.00    +0.000 C 
ATOM      3  N   UNL     1       2.500   4.430  17.357  0.00  0.00    +0.000 N 
ATOM      4  H   UNL     1       2.631   5.418  17.194  0.00  0.00    +0.000 HD
ENDROOT
BRANCH   2   5
ATOM      5  C   UNL     1       4.744   4.064  16.438  0.00  0.00    +0.000 A 
ATOM      6  C   UNL     1       4.915   3.950  15.047  0.00  0.00    +0.000 A 
ATOM      7  C   UNL     1       6.081   4.406  14.438  0.00  0.00    +0.000 A 
ATOM      8  C   UNL     1       7.094   4.959  15.214  0.00  0.00    +0.000 A 
ATOM      9  C   UNL     1       6.963   5.073  16.604  0.00  0.00    +0.000 A 
ATOM     10  C   UNL     1       5.775   4.637  17.226  0.00  0.00    +0.000 A 
ATOM     11  C   UNL     1       5.634   4.796  18.725  0.00  0.00    +0.000 C 
ATOM     12  C   UNL     1       6.702   5.694  19.347  0.00  0.00    +0.000 C 
ATOM     13  C   UNL     1       8.066   5.363  18.774  0.00  0.00    +0.000 C 
ATOM     14  N   UNL     1       8.069   5.500  17.332  0.00  0.00    +0.000 N 
ATOM     15  H   UNL     1       8.608   6.260  16.930  0.00  0.00    +0.000 HD
ENDBRANCH   2   5
BRANCH   3  16
ATOM     16  C   UNL     1       1.250   4.022  17.964  0.00  0.00    +0.000 C 
BRANCH  16  17
ATOM     17  C   UNL     1       1.449   3.774  19.425  0.00  0.00    +0.000 A 
ATOM     18  C   UNL     1       1.136   2.620  20.044  0.00  0.00    +0.000 A 
ATOM     19  C   UNL     1       1.397   2.425  21.452  0.00  0.00    +0.000 A 
ATOM     20  C   UNL     1       1.986   3.394  22.158  0.00  0.00    +0.000 A 
ATOM     21  N   UNL     1       2.332   4.575  21.552  0.00  0.00    +0.000 N 
ATOM     22  C   UNL     1       2.109   4.853  20.221  0.00  0.00    +0.000 A 
ATOM     23  O   UNL     1       2.434   5.927  19.725  0.00  0.00    +0.000 OA
ATOM     24  H   UNL     1       2.778   5.309  22.085  0.00  0.00    +0.000 HD
ENDBRANCH  16  17
ENDBRANCH   3  16
TORSDOF 3
ENDMDL
MODEL 9
REMARK VINA RESULT:      -7.2      2.632      7.163
REMARK  Name = 
REMARK  3 active torsions:
REMARK  status: ('A' for Active; 'I' for Inactive)
REMARK    1  A    between atoms: C_2  and  C_12
REMARK    2  A    between atoms: N_3  and  C_4
REMARK    3  A    between atoms: C_4  and  C_5
REMARK                            x       y       z     vdW  Elec       q    Type
REMARK                         _______ _______ _______ _____ _____    ______ ____
ROOT
ATOM      1  O   UNL     1       6.751   5.276  18.415  0.00  0.00    +0.000 OA
ATOM      2  C   UNL     1       5.763   5.479  17.718  0.00  0.00    +0.000 C 
ATOM      3  N   UNL     1       5.837   5.542  16.341  0.00  0.00    +0.000 N 
ATOM      4  H   UNL     1       5.009   5.670  15.777  0.00  0.00    +0.000 HD
ENDROOT
BRANCH   2   5
ATOM      5  C   UNL     1       4.407   5.675  18.328  0.00  0.00    +0.000 A 
ATOM      6  C   UNL     1       3.754   6.907  18.155  0.00  0.00    +0.000 A 
ATOM      7  C   UNL     1       2.514   7.139  18.743  0.00  0.00    +0.000 A 
ATOM      8  C   UNL     1       1.926   6.152  19.527  0.00  0.00    +0.000 A 
ATOM      9  C   UNL     1       2.556   4.919  19.733  0.00  0.00    +0.000 A 
ATOM     10  C   UNL     1       3.800   4.666  19.119  0.00  0.00    +0.000 A 
ATOM     11  C   UNL     1       4.455   3.316  19.325  0.00  0.00    +0.000 C 
ATOM     12  C   UNL     1       3.526   2.274  19.945  0.00  0.00    +0.000 C 
ATOM     13  C   UNL     1       2.741   2.885  21.089  0.00  0.00    +0.000 C 
ATOM     14  N   UNL     1       1.982   4.035  20.642  0.00  0.00    +0.000 N 
ATOM     15  H   UNL     1       0.972   3.954  20.615  0.00  0.00    +0.000 HD
ENDBRANCH   2   5
BRANCH   3  16
ATOM     16  C   UNL     1       7.091   5.366  15.638  0.00  0.00    +0.000 C 
BRANCH  16  17
ATOM     17  C   UNL     1       6.849   4.707  14.317  0.00  0.00    +0.000 A 
ATOM     18  C   UNL     1       5.841   3.848  14.077  0.00  0.00    +0.000 A 
ATOM     19  C   UNL     1       5.632   3.279  12.764  0.00  0.00    +0.000 A 
ATOM     20  C   UNL     1       6.433   3.630  11.755  0.00  0.00    +0.000 A 
ATOM     21  N   UNL     1       7.458   4.516  11.965  0.00  0.00    +0.000 N 
ATOM     22  C   UNL     1       7.740   5.095  13.183  0.00  0.00    +0.000 A 
ATOM     23  O   UNL     1       8.672   5.881  13.321  0.00  0.00    +0.000 OA
ATOM     24  H   UNL     1       8.066   4.782  11.201  0.00  0.00    +0.000 HD
ENDBRANCH  16  17
ENDBRANCH   3  16
TORSDOF 3
ENDMDL
