MODEL 1
REMARK VINA RESULT:      -5.5      0.000      0.000
REMARK  Name = 
REMARK  7 active torsions:
REMARK  status: ('A' for Active; 'I' for Inactive)
REMARK    1  A    between atoms: C_1  and  N_2
REMARK    2  A    between atoms: N_2  and  C_3
REMARK    3  A    between atoms: N_2  and  C_4
REMARK    4  A    between atoms: N_2  and  C_5
REMARK    5  A    between atoms: C_5  and  C_6
REMARK    6  A    between atoms: C_6  and  C_7
REMARK    7  A    between atoms: C_11  and  O_12
REMARK                            x       y       z     vdW  Elec       q    Type
REMARK                         _______ _______ _______ _____ _____    ______ ____
ROOT
ATOM      1  C   UNL     1       4.428   3.490  17.524  0.00  0.00    +0.000 A 
ATOM      2  C   UNL     1       5.334   4.201  18.327  0.00  0.00    +0.000 A 
ATOM      3  C   UNL     1       6.411   4.886  17.749  0.00  0.00    +0.000 A 
ATOM      4  I   UNL     1       7.692   5.950  19.014  0.00  0.00    +0.000 I 
ATOM      5  C   UNL     1       6.609   4.853  16.368  0.00  0.00    +0.000 A 
ATOM      6  C   UNL     1       5.719   4.139  15.563  0.00  0.00    +0.000 A 
ATOM      7  I   UNL     1       5.955   4.018  13.486  0.00  0.00    +0.000 I 
ATOM      8  C   UNL     1       4.632   3.464  16.136  0.00  0.00    +0.000 A 
ENDROOT
BRANCH   5   9
ATOM      9  O   UNL     1       7.665   5.503  15.788  0.00  0.00    +0.000 OA
ATOM     10  H   UNL     1       8.414   5.502  16.411  0.00  0.00    +0.000 HD
ENDBRANCH   5   9
BRANCH   1  11
ATOM     11  C   UNL     1       3.278   2.728  18.142  0.00  0.00    +0.000 C 
BRANCH  11  12
ATOM     12  C   UNL     1       3.314   2.777  19.678  0.00  0.00    +0.000 C 
BRANCH  12  14
ATOM     13  C   UNL     1       0.866   3.034  19.363  0.00  0.00    +0.000 C 
ATOM     14  N   UNL     1       2.024   3.323  20.327  0.00  0.00    +0.000 N 
ATOM     15  C   UNL     1       2.097   4.830  20.542  0.00  0.00    +0.000 C 
ATOM     16  C   UNL     1       1.726   2.627  21.650  0.00  0.00    +0.000 C 
ENDBRANCH  12  14
ENDBRANCH  11  12
ENDBRANCH   1  11
TORSDOF 4
ENDMDL
MODEL 2
REMARK VINA RESULT:      -5.4      0.108      1.127
REMARK  Name = 
REMARK  7 active torsions:
REMARK  status: ('A' for Active; 'I' for Inactive)
REMARK    1  A    between atoms: C_1  and  N_2
REMARK    2  A    between atoms: N_2  and  C_3
REMARK    3  A    between atoms: N_2  and  C_4
REMARK    4  A    between atoms: N_2  and  C_5
REMARK    5  A    between atoms: C_5  and  C_6
REMARK    6  A    between atoms: C_6  and  C_7
REMARK    7  A    between atoms: C_11  and  O_12
REMARK                            x       y       z     vdW  Elec       q    Type
REMARK                         _______ _______ _______ _____ _____    ______ ____
ROOT
ATOM      1  C   UNL     1       4.410   3.545  17.572  0.00  0.00    +0.000 A 
ATOM      2  C   UNL     1       5.335   4.249  18.361  0.00  0.00    +0.000 A 
ATOM      3  C   UNL     1       6.416   4.913  17.767  0.00  0.00    +0.000 A 
ATOM      4  I   UNL     1       7.725   5.966  19.011  0.00  0.00    +0.000 I 
ATOM      5  C   UNL     1       6.599   4.868  16.384  0.00  0.00    +0.000 A 
ATOM      6  C   UNL     1       5.690   4.161  15.594  0.00  0.00    +0.000 A 
ATOM      7  I   UNL     1       5.904   4.023  13.516  0.00  0.00    +0.000 I 
ATOM      8  C   UNL     1       4.600   3.507  16.183  0.00  0.00    +0.000 A 
ENDROOT
BRANCH   5   9
ATOM      9  O   UNL     1       7.659   5.498  15.790  0.00  0.00    +0.000 OA
ATOM     10  H   UNL     1       8.324   5.704  16.471  0.00  0.00    +0.000 HD
ENDBRANCH   5   9
BRANCH   1  11
ATOM     11  C   UNL     1       3.255   2.806  18.207  0.00  0.00    +0.000 C 
BRANCH  11  12
ATOM     12  C   UNL     1       3.254   2.944  19.738  0.00  0.00    +0.000 C 
BRANCH  12  14
ATOM     13  C   UNL     1       1.734   2.667  21.679  0.00  0.00    +0.000 C 
ATOM     14  N   UNL     1       1.901   3.386  20.335  0.00  0.00    +0.000 N 
ATOM     15  C   UNL     1       0.734   2.990  19.437  0.00  0.00    +0.000 C 
ATOM     16  C   UNL     1       1.866   4.888  20.592  0.00  0.00    +0.000 C 
ENDBRANCH  12  14
ENDBRANCH  11  12
ENDBRANCH   1  11
TORSDOF 4
ENDMDL
MODEL 3
REMARK VINA RESULT:      -5.4      0.956      1.481
REMARK  Name = 
REMARK  7 active torsions:
REMARK  status: ('A' for Active; 'I' for Inactive)
REMARK    1  A    between atoms: C_1  and  N_2
REMARK    2  A    between atoms: N_2  and  C_3
REMARK    3  A    between atoms: N_2  and  C_4
REMARK    4  A    between atoms: N_2  and  C_5
REMARK    5  A    between atoms: C_5  and  C_6
REMARK    6  A    between atoms: C_6  and  C_7
REMARK    7  A    between atoms: C_11  and  O_12
REMARK                            x       y       z     vdW  Elec       q    Type
REMARK                         _______ _______ _______ _____ _____    ______ ____
ROOT
ATOM      1  C   UNL     1       3.883   4.746  17.515  0.00  0.00    +0.000 A 
ATOM      2  C   UNL     1       4.935   5.098  18.376  0.00  0.00    +0.000 A 
ATOM      3  C   UNL     1       6.258   5.102  17.915  0.00  0.00    +0.000 A 
ATOM      4  I   UNL     1       7.762   5.673  19.251  0.00  0.00    +0.000 I 
ATOM      5  C   UNL     1       6.549   4.736  16.600  0.00  0.00    +0.000 A 
ATOM      6  C   UNL     1       5.509   4.374  15.741  0.00  0.00    +0.000 A 
ATOM      7  I   UNL     1       5.859   3.790  13.762  0.00  0.00    +0.000 I 
ATOM      8  C   UNL     1       4.183   4.383  16.195  0.00  0.00    +0.000 A 
ENDROOT
BRANCH   5   9
ATOM      9  O   UNL     1       7.838   4.719  16.139  0.00  0.00    +0.000 OA
ATOM     10  H   UNL     1       8.420   5.103  16.819  0.00  0.00    +0.000 HD
ENDBRANCH   5   9
BRANCH   1  11
ATOM     11  C   UNL     1       2.455   4.716  18.011  0.00  0.00    +0.000 C 
BRANCH  11  12
ATOM     12  C   UNL     1       2.377   4.511  19.533  0.00  0.00    +0.000 C 
BRANCH  12  14
ATOM     13  C   UNL     1       3.549   2.461  20.293  0.00  0.00    +0.000 C 
ATOM     14  N   UNL     1       2.169   3.045  19.967  0.00  0.00    +0.000 N 
ATOM     15  C   UNL     1       1.551   2.210  18.851  0.00  0.00    +0.000 C 
ATOM     16  C   UNL     1       1.305   2.949  21.219  0.00  0.00    +0.000 C 
ENDBRANCH  12  14
ENDBRANCH  11  12
ENDBRANCH   1  11
TORSDOF 4
ENDMDL
MODEL 4
REMARK VINA RESULT:      -5.4      0.934      2.944
REMARK  Name = 
REMARK  7 active torsions:
REMARK  status: ('A' for Active; 'I' for Inactive)
REMARK    1  A    between atoms: C_1  and  N_2
REMARK    2  A    between atoms: N_2  and  C_3
REMARK    3  A    between atoms: N_2  and  C_4
REMARK    4  A    between atoms: N_2  and  C_5
REMARK    5  A    between atoms: C_5  and  C_6
REMARK    6  A    between atoms: C_6  and  C_7
REMARK    7  A    between atoms: C_11  and  O_12
REMARK                            x       y       z     vdW  Elec       q    Type
REMARK                         _______ _______ _______ _____ _____    ______ ____
ROOT
ATOM      1  C   UNL     1       3.892   4.619  17.522  0.00  0.00    +0.000 A 
ATOM      2  C   UNL     1       4.192   4.296  16.189  0.00  0.00    +0.000 A 
ATOM      3  C   UNL     1       5.516   4.324  15.732  0.00  0.00    +0.000 A 
ATOM      4  I   UNL     1       5.880   3.794  13.743  0.00  0.00    +0.000 I 
ATOM      5  C   UNL     1       6.552   4.692  16.592  0.00  0.00    +0.000 A 
ATOM      6  C   UNL     1       6.261   5.025  17.916  0.00  0.00    +0.000 A 
ATOM      7  I   UNL     1       7.751   5.612  19.265  0.00  0.00    +0.000 I 
ATOM      8  C   UNL     1       4.939   4.985  18.381  0.00  0.00    +0.000 A 
ENDROOT
BRANCH   5   9
ATOM      9  O   UNL     1       7.849   4.740  16.157  0.00  0.00    +0.000 OA
ATOM     10  H   UNL     1       7.988   4.030  15.505  0.00  0.00    +0.000 HD
ENDBRANCH   5   9
BRANCH   1  11
ATOM     11  C   UNL     1       2.464   4.615  18.017  0.00  0.00    +0.000 C 
BRANCH  11  12
ATOM     12  C   UNL     1       2.382   4.452  19.543  0.00  0.00    +0.000 C 
BRANCH  12  14
ATOM     13  C   UNL     1       1.323   2.990  21.245  0.00  0.00    +0.000 C 
ATOM     14  N   UNL     1       2.245   2.991  20.020  0.00  0.00    +0.000 N 
ATOM     15  C   UNL     1       3.590   2.408  20.439  0.00  0.00    +0.000 C 
ATOM     16  C   UNL     1       1.613   2.109  18.949  0.00  0.00    +0.000 C 
ENDBRANCH  12  14
ENDBRANCH  11  12
ENDBRANCH   1  11
TORSDOF 4
ENDMDL
MODEL 5
REMARK VINA RESULT:      -5.4      1.266      1.706
REMARK  Name = 
REMARK  7 active torsions:
REMARK  status: ('A' for Active; 'I' for Inactive)
REMARK    1  A    between atoms: C_1  and  N_2
REMARK    2  A    between atoms: N_2  and  C_3
REMARK    3  A    between atoms: N_2  and  C_4
REMARK    4  A    between atoms: N_2  and  C_5
REMARK    5  A    between atoms: C_5  and  C_6
REMARK    6  A    between atoms: C_6  and  C_7
REMARK    7  A    between atoms: C_11  and  O_12
REMARK                            x       y       z     vdW  Elec       q    Type
REMARK                         _______ _______ _______ _____ _____    ______ ____
ROOT
ATOM      1  C   UNL     1       4.205   4.875  17.169  0.00  0.00    +0.000 A 
ATOM      2  C   UNL     1       5.151   5.756  17.717  0.00  0.00    +0.000 A 
ATOM      3  C   UNL     1       6.324   6.065  17.015  0.00  0.00    +0.000 A 
ATOM      4  I   UNL     1       7.664   7.413  17.885  0.00  0.00    +0.000 I 
ATOM      5  C   UNL     1       6.576   5.484  15.771  0.00  0.00    +0.000 A 
ATOM      6  C   UNL     1       5.645   4.598  15.225  0.00  0.00    +0.000 A 
ATOM      7  I   UNL     1       5.954   3.665  13.377  0.00  0.00    +0.000 I 
ATOM      8  C   UNL     1       4.464   4.298  15.918  0.00  0.00    +0.000 A 
ENDROOT
BRANCH   5   9
ATOM      9  O   UNL     1       7.724   5.762  15.079  0.00  0.00    +0.000 OA
ATOM     10  H   UNL     1       7.498   6.297  14.297  0.00  0.00    +0.000 HD
ENDBRANCH   5   9
BRANCH   1  11
ATOM     11  C   UNL     1       2.949   4.519  17.931  0.00  0.00    +0.000 C 
BRANCH  11  12
ATOM     12  C   UNL     1       3.213   4.358  19.437  0.00  0.00    +0.000 C 
BRANCH  12  14
ATOM     13  C   UNL     1       4.376   2.245  20.019  0.00  0.00    +0.000 C 
ATOM     14  N   UNL     1       3.002   2.925  19.970  0.00  0.00    +0.000 N 
ATOM     15  C   UNL     1       2.101   2.109  19.049  0.00  0.00    +0.000 C 
ATOM     16  C   UNL     1       2.425   2.932  21.381  0.00  0.00    +0.000 C 
ENDBRANCH  12  14
ENDBRANCH  11  12
ENDBRANCH   1  11
TORSDOF 4
ENDMDL
MODEL 6
REMARK VINA RESULT:      -5.4      0.194      2.562
REMARK  Name = 
REMARK  7 active torsions:
REMARK  status: ('A' for Active; 'I' for Inactive)
REMARK    1  A    between atoms: C_1  and  N_2
REMARK    2  A    between atoms: N_2  and  C_3
REMARK    3  A    between atoms: N_2  and  C_4
REMARK    4  A    between atoms: N_2  and  C_5
REMARK    5  A    between atoms: C_5  and  C_6
REMARK    6  A    between atoms: C_6  and  C_7
REMARK    7  A    between atoms: C_11  and  O_12
REMARK                            x       y       z     vdW  Elec       q    Type
REMARK                         _______ _______ _______ _____ _____    ______ ____
ROOT
ATOM      1  C   UNL     1       4.327   3.572  17.391  0.00  0.00    +0.000 A 
ATOM      2  C   UNL     1       4.554   3.513  16.007  0.00  0.00    +0.000 A 
ATOM      3  C   UNL     1       5.678   4.131  15.444  0.00  0.00    +0.000 A 
ATOM      4  I   UNL     1       5.960   3.966  13.379  0.00  0.00    +0.000 I 
ATOM      5  C   UNL     1       6.577   4.831  16.251  0.00  0.00    +0.000 A 
ATOM      6  C   UNL     1       6.353   4.903  17.627  0.00  0.00    +0.000 A 
ATOM      7  I   UNL     1       7.638   5.950  18.906  0.00  0.00    +0.000 I 
ATOM      8  C   UNL     1       5.237   4.273  18.196  0.00  0.00    +0.000 A 
ENDROOT
BRANCH   5   9
ATOM      9  O   UNL     1       7.672   5.454  15.715  0.00  0.00    +0.000 OA
ATOM     10  H   UNL     1       7.837   5.089  14.827  0.00  0.00    +0.000 HD
ENDBRANCH   5   9
BRANCH   1  11
ATOM     11  C   UNL     1       3.103   2.928  18.003  0.00  0.00    +0.000 C 
BRANCH  11  12
ATOM     12  C   UNL     1       3.264   2.706  19.515  0.00  0.00    +0.000 C 
BRANCH  12  14
ATOM     13  C   UNL     1       0.831   3.186  19.596  0.00  0.00    +0.000 C 
ATOM     14  N   UNL     1       2.145   3.335  20.373  0.00  0.00    +0.000 N 
ATOM     15  C   UNL     1       2.389   4.820  20.614  0.00  0.00    +0.000 C 
ATOM     16  C   UNL     1       1.992   2.615  21.708  0.00  0.00    +0.000 C 
ENDBRANCH  12  14
ENDBRANCH  11  12
ENDBRANCH   1  11
TORSDOF 4
ENDMDL
MODEL 7
REMARK VINA RESULT:      -5.4      1.268      1.579
REMARK  Name = 
REMARK  7 active torsions:
REMARK  status: ('A' for Active; 'I' for Inactive)
REMARK    1  A    between atoms: C_1  and  N_2
REMARK    2  A    between atoms: N_2  and  C_3
REMARK    3  A    between atoms: N_2  and  C_4
REMARK    4  A    between atoms: N_2  and  C_5
REMARK    5  A    between atoms: C_5  and  C_6
REMARK    6  A    between atoms: C_6  and  C_7
REMARK    7  A    between atoms: C_11  and  O_12
REMARK                            x       y       z     vdW  Elec       q    Type
REMARK                         _______ _______ _______ _____ _____    ______ ____
ROOT
ATOM      1  C   UNL     1       4.220   4.920  17.275  0.00  0.00    +0.000 A 
ATOM      2  C   UNL     1       5.179   5.801  17.800  0.00  0.00    +0.000 A 
ATOM      3  C   UNL     1       6.341   6.099  17.076  0.00  0.00    +0.000 A 
ATOM      4  I   UNL     1       7.702   7.448  17.912  0.00  0.00    +0.000 I 
ATOM      5  C   UNL     1       6.570   5.507  15.832  0.00  0.00    +0.000 A 
ATOM      6  C   UNL     1       5.625   4.622  15.309  0.00  0.00    +0.000 A 
ATOM      7  I   UNL     1       5.899   3.673  13.463  0.00  0.00    +0.000 I 
ATOM      8  C   UNL     1       4.455   4.333  16.024  0.00  0.00    +0.000 A 
ENDROOT
BRANCH   5   9
ATOM      9  O   UNL     1       7.707   5.775  15.119  0.00  0.00    +0.000 OA
ATOM     10  H   UNL     1       7.844   6.739  15.098  0.00  0.00    +0.000 HD
ENDBRANCH   5   9
BRANCH   1  11
ATOM     11  C   UNL     1       2.975   4.575  18.061  0.00  0.00    +0.000 C 
BRANCH  11  12
ATOM     12  C   UNL     1       3.271   4.386  19.557  0.00  0.00    +0.000 C 
BRANCH  12  14
ATOM     13  C   UNL     1       2.221   2.197  19.044  0.00  0.00    +0.000 C 
ATOM     14  N   UNL     1       3.099   2.937  20.061  0.00  0.00    +0.000 N 
ATOM     15  C   UNL     1       2.400   2.891  21.414  0.00  0.00    +0.000 C 
ATOM     16  C   UNL     1       4.437   2.212  20.148  0.00  0.00    +0.000 C 
ENDBRANCH  12  14
ENDBRANCH  11  12
ENDBRANCH   1  11
TORSDOF 4
ENDMDL
MODEL 8
REMARK VINA RESULT:      -5.4      1.024      2.776
REMARK  Name = 
REMARK  7 active torsions:
REMARK  status: ('A' for Active; 'I' for Inactive)
REMARK    1  A    between atoms: C_1  and  N_2
REMARK    2  A    between atoms: N_2  and  C_3
REMARK    3  A    between atoms: N_2  and  C_4
REMARK    4  A    between atoms: N_2  and  C_5
REMARK    5  A    between atoms: C_5  and  C_6
REMARK    6  A    between atoms: C_6  and  C_7
REMARK    7  A    between atoms: C_11  and  O_12
REMARK                            x       y       z     vdW  Elec       q    Type
REMARK                         _______ _______ _______ _____ _____    ______ ____
ROOT
ATOM      1  C   UNL     1       4.438   3.958  16.669  0.00  0.00    +0.000 A 
ATOM      2  C   UNL     1       4.766   3.655  15.338  0.00  0.00    +0.000 A 
ATOM      3  C   UNL     1       5.895   4.227  14.737  0.00  0.00    +0.000 A 
ATOM      4  I   UNL     1       6.333   3.696  12.763  0.00  0.00    +0.000 I 
ATOM      5  C   UNL     1       6.697   5.122  15.448  0.00  0.00    +0.000 A 
ATOM      6  C   UNL     1       6.371   5.436  16.769  0.00  0.00    +0.000 A 
ATOM      7  I   UNL     1       7.505   6.784  17.899  0.00  0.00    +0.000 I 
ATOM      8  C   UNL     1       5.250   4.854  17.378  0.00  0.00    +0.000 A 
ENDROOT
BRANCH   5   9
ATOM      9  O   UNL     1       7.794   5.702  14.871  0.00  0.00    +0.000 OA
ATOM     10  H   UNL     1       8.528   5.062  14.879  0.00  0.00    +0.000 HD
ENDBRANCH   5   9
BRANCH   1  11
ATOM     11  C   UNL     1       3.208   3.363  17.317  0.00  0.00    +0.000 C 
BRANCH  11  12
ATOM     12  C   UNL     1       2.622   4.287  18.397  0.00  0.00    +0.000 C 
BRANCH  12  14
ATOM     13  C   UNL     1       0.919   2.585  18.997  0.00  0.00    +0.000 C 
ATOM     14  N   UNL     1       1.964   3.545  19.579  0.00  0.00    +0.000 N 
ATOM     15  C   UNL     1       1.252   4.508  20.522  0.00  0.00    +0.000 C 
ATOM     16  C   UNL     1       2.983   2.721  20.359  0.00  0.00    +0.000 C 
ENDBRANCH  12  14
ENDBRANCH  11  12
ENDBRANCH   1  11
TORSDOF 4
ENDMDL
MODEL 9
REMARK VINA RESULT:      -5.3      0.999      1.363
REMARK  Name = 
REMARK  7 active torsions:
REMARK  status: ('A' for Active; 'I' for Inactive)
REMARK    1  A    between atoms: C_1  and  N_2
REMARK    2  A    between atoms: N_2  and  C_3
REMARK    3  A    between atoms: N_2  and  C_4
REMARK    4  A    between atoms: N_2  and  C_5
REMARK    5  A    between atoms: C_5  and  C_6
REMARK    6  A    between atoms: C_6  and  C_7
REMARK    7  A    between atoms: C_11  and  O_12
REMARK                            x       y       z     vdW  Elec       q    Type
REMARK                         _______ _______ _______ _____ _____    ______ ____
ROOT
ATOM      1  C   UNL     1       3.893   4.906  17.563  0.00  0.00    +0.000 A 
ATOM      2  C   UNL     1       4.949   5.214  18.435  0.00  0.00    +0.000 A 
ATOM      3  C   UNL     1       6.277   5.149  17.993  0.00  0.00    +0.000 A 
ATOM      4  I   UNL     1       7.789   5.659  19.343  0.00  0.00    +0.000 I 
ATOM      5  C   UNL     1       6.567   4.757  16.684  0.00  0.00    +0.000 A 
ATOM      6  C   UNL     1       5.522   4.439  15.815  0.00  0.00    +0.000 A 
ATOM      7  I   UNL     1       5.870   3.820  13.845  0.00  0.00    +0.000 I 
ATOM      8  C   UNL     1       4.192   4.516  16.250  0.00  0.00    +0.000 A 
ENDROOT
BRANCH   5   9
ATOM      9  O   UNL     1       7.860   4.674  16.241  0.00  0.00    +0.000 OA
ATOM     10  H   UNL     1       8.399   4.241  16.927  0.00  0.00    +0.000 HD
ENDBRANCH   5   9
BRANCH   1  11
ATOM     11  C   UNL     1       2.459   4.949  18.040  0.00  0.00    +0.000 C 
BRANCH  11  12
ATOM     12  C   UNL     1       2.337   4.609  19.534  0.00  0.00    +0.000 C 
BRANCH  12  14
ATOM     13  C   UNL     1       1.059   2.643  18.723  0.00  0.00    +0.000 C 
ATOM     14  N   UNL     1       2.010   3.128  19.824  0.00  0.00    +0.000 N 
ATOM     15  C   UNL     1       1.308   2.959  21.166  0.00  0.00    +0.000 C 
ATOM     16  C   UNL     1       3.263   2.261  19.785  0.00  0.00    +0.000 C 
ENDBRANCH  12  14
ENDBRANCH  11  12
ENDBRANCH   1  11
TORSDOF 4
ENDMDL
