MODEL 1
REMARK VINA RESULT:      -8.8      0.000      0.000
REMARK  Name = 
REMARK  2 active torsions:
REMARK  status: ('A' for Active; 'I' for Inactive)
REMARK    1  A    between atoms: C_2  and  C_4
REMARK    2  A    between atoms: C_6  and  C_7
REMARK                            x       y       z     vdW  Elec       q    Type
REMARK                         _______ _______ _______ _____ _____    ______ ____
ROOT
ATOM      1  C   UNL     1       6.522   6.160  17.363  0.00  0.00    +0.000 A 
ATOM      2  C   UNL     1       5.410   5.875  18.179  0.00  0.00    +0.000 A 
ATOM      3  C   UNL     1       4.405   4.964  17.793  0.00  0.00    +0.000 A 
ATOM      4  C   UNL     1       4.532   4.341  16.532  0.00  0.00    +0.000 A 
ATOM      5  C   UNL     1       5.618   4.627  15.681  0.00  0.00    +0.000 A 
ATOM      6  C   UNL     1       6.010   4.176  14.390  0.00  0.00    +0.000 A 
ATOM      7  C   UNL     1       7.190   4.806  14.066  0.00  0.00    +0.000 A 
ATOM      8  N   UNL     1       7.521   5.631  15.106  0.00  0.00    +0.000 N 
ATOM      9  C   UNL     1       6.583   5.530  16.112  0.00  0.00    +0.000 A 
ATOM     10  H   UNL     1       8.325   6.248  15.155  0.00  0.00    +0.000 HD
ENDROOT
BRANCH   3  11
ATOM     11  C   UNL     1       3.257   4.647  18.681  0.00  0.00    +0.000 A 
ATOM     12  C   UNL     1       2.961   5.437  19.810  0.00  0.00    +0.000 A 
ATOM     13  C   UNL     1       1.853   5.174  20.622  0.00  0.00    +0.000 A 
ATOM     14  C   UNL     1       1.020   4.098  20.335  0.00  0.00    +0.000 A 
ATOM     15  C   UNL     1       1.302   3.292  19.236  0.00  0.00    +0.000 A 
ATOM     16 CL   UNL     1       0.283   1.951  18.879  0.00  0.00    +0.000 Cl
ATOM     17  C   UNL     1       2.400   3.563  18.415  0.00  0.00    +0.000 A 
ENDBRANCH   3  11
BRANCH   1  19
ATOM     18  N   UNL     1       8.280   6.808  18.921  0.00  0.00    +0.000 N 
ATOM     19  C   UNL     1       7.604   7.089  17.767  0.00  0.00    +0.000 C 
ATOM     20  O   UNL     1       7.929   8.040  17.063  0.00  0.00    +0.000 OA
ATOM     21  H   UNL     1       9.093   7.379  19.111  0.00  0.00    +0.000 HD
ATOM     22  H   UNL     1       8.246   5.896  19.353  0.00  0.00    +0.000 HD
ENDBRANCH   1  19
TORSDOF 2
ENDMDL
MODEL 2
REMARK VINA RESULT:      -8.8      1.192      1.447
REMARK  Name = 
REMARK  2 active torsions:
REMARK  status: ('A' for Active; 'I' for Inactive)
REMARK    1  A    between atoms: C_2  and  C_4
REMARK    2  A    between atoms: C_6  and  C_7
REMARK                            x       y       z     vdW  Elec       q    Type
REMARK                         _______ _______ _______ _____ _____    ______ ____
ROOT
ATOM      1  C   UNL     1       6.452   5.876  17.228  0.00  0.00    +0.000 A 
ATOM      2  C   UNL     1       5.320   5.456  17.952  0.00  0.00    +0.000 A 
ATOM      3  C   UNL     1       4.395   4.527  17.435  0.00  0.00    +0.000 A 
ATOM      4  C   UNL     1       4.625   4.025  16.134  0.00  0.00    +0.000 A 
ATOM      5  C   UNL     1       5.733   4.447  15.374  0.00  0.00    +0.000 A 
ATOM      6  C   UNL     1       6.219   4.134  14.074  0.00  0.00    +0.000 A 
ATOM      7  C   UNL     1       7.372   4.858  13.872  0.00  0.00    +0.000 A 
ATOM      8  N   UNL     1       7.597   5.606  14.995  0.00  0.00    +0.000 N 
ATOM      9  C   UNL     1       6.616   5.363  15.934  0.00  0.00    +0.000 A 
ATOM     10  H   UNL     1       8.358   6.262  15.141  0.00  0.00    +0.000 HD
ENDROOT
BRANCH   3  11
ATOM     11  C   UNL     1       3.224   4.067  18.226  0.00  0.00    +0.000 A 
ATOM     12  C   UNL     1       1.947   3.947  17.644  0.00  0.00    +0.000 A 
ATOM     13  C   UNL     1       0.850   3.468  18.370  0.00  0.00    +0.000 A 
ATOM     14  C   UNL     1       1.002   3.114  19.706  0.00  0.00    +0.000 A 
ATOM     15  C   UNL     1       2.249   3.241  20.308  0.00  0.00    +0.000 A 
ATOM     16 CL   UNL     1       2.444   2.816  21.964  0.00  0.00    +0.000 Cl
ATOM     17  C   UNL     1       3.348   3.705  19.580  0.00  0.00    +0.000 A 
ENDBRANCH   3  11
BRANCH   1  19
ATOM     18  N   UNL     1       8.054   6.504  18.953  0.00  0.00    +0.000 N 
ATOM     19  C   UNL     1       7.451   6.827  17.771  0.00  0.00    +0.000 C 
ATOM     20  O   UNL     1       7.778   7.836  17.153  0.00  0.00    +0.000 OA
ATOM     21  H   UNL     1       8.820   7.099  19.239  0.00  0.00    +0.000 HD
ATOM     22  H   UNL     1       8.036   5.565  19.325  0.00  0.00    +0.000 HD
ENDBRANCH   1  19
TORSDOF 2
ENDMDL
MODEL 3
REMARK VINA RESULT:      -8.3      2.741      5.761
REMARK  Name = 
REMARK  2 active torsions:
REMARK  status: ('A' for Active; 'I' for Inactive)
REMARK    1  A    between atoms: C_2  and  C_4
REMARK    2  A    between atoms: C_6  and  C_7
REMARK                            x       y       z     vdW  Elec       q    Type
REMARK                         _______ _______ _______ _____ _____    ______ ____
ROOT
ATOM      1  C   UNL     1       6.581   5.439  18.193  0.00  0.00    +0.000 A 
ATOM      2  C   UNL     1       6.942   5.188  16.856  0.00  0.00    +0.000 A 
ATOM      3  C   UNL     1       5.998   4.822  15.875  0.00  0.00    +0.000 A 
ATOM      4  C   UNL     1       4.650   4.693  16.277  0.00  0.00    +0.000 A 
ATOM      5  C   UNL     1       4.261   4.911  17.613  0.00  0.00    +0.000 A 
ATOM      6  C   UNL     1       3.019   4.859  18.304  0.00  0.00    +0.000 A 
ATOM      7  C   UNL     1       3.258   5.185  19.621  0.00  0.00    +0.000 A 
ATOM      8  N   UNL     1       4.598   5.421  19.756  0.00  0.00    +0.000 N 
ATOM      9  C   UNL     1       5.233   5.274  18.539  0.00  0.00    +0.000 A 
ATOM     10  H   UNL     1       5.086   5.660  20.613  0.00  0.00    +0.000 HD
ENDROOT
BRANCH   3  11
ATOM     11  C   UNL     1       6.390   4.595  14.461  0.00  0.00    +0.000 A 
ATOM     12  C   UNL     1       7.431   5.330  13.860  0.00  0.00    +0.000 A 
ATOM     13  C   UNL     1       7.838   5.087  12.543  0.00  0.00    +0.000 A 
ATOM     14  C   UNL     1       7.199   4.112  11.786  0.00  0.00    +0.000 A 
ATOM     15  C   UNL     1       6.156   3.385  12.351  0.00  0.00    +0.000 A 
ATOM     16 CL   UNL     1       5.351   2.184  11.417  0.00  0.00    +0.000 Cl
ATOM     17  C   UNL     1       5.758   3.616  13.670  0.00  0.00    +0.000 A 
ENDBRANCH   3  11
BRANCH   1  19
ATOM     18  N   UNL     1       8.342   6.941  18.956  0.00  0.00    +0.000 N 
ATOM     19  C   UNL     1       7.556   5.857  19.229  0.00  0.00    +0.000 C 
ATOM     20  O   UNL     1       7.615   5.295  20.318  0.00  0.00    +0.000 OA
ATOM     21  H   UNL     1       8.907   7.284  19.722  0.00  0.00    +0.000 HD
ATOM     22  H   UNL     1       8.117   7.594  18.220  0.00  0.00    +0.000 HD
ENDBRANCH   1  19
TORSDOF 2
ENDMDL
MODEL 4
REMARK VINA RESULT:      -8.3      3.708      4.383
REMARK  Name = 
REMARK  2 active torsions:
REMARK  status: ('A' for Active; 'I' for Inactive)
REMARK    1  A    between atoms: C_2  and  C_4
REMARK    2  A    between atoms: C_6  and  C_7
REMARK                            x       y       z     vdW  Elec       q    Type
REMARK                         _______ _______ _______ _____ _____    ______ ____
ROOT
ATOM      1  C   UNL     1       3.990   4.042  18.190  0.00  0.00    +0.000 A 
ATOM      2  C   UNL     1       3.246   5.136  18.670  0.00  0.00    +0.000 A 
ATOM      3  C   UNL     1       3.309   6.412  18.073  0.00  0.00    +0.000 A 
ATOM      4  C   UNL     1       4.170   6.577  16.966  0.00  0.00    +0.000 A 
ATOM      5  C   UNL     1       4.949   5.508  16.480  0.00  0.00    +0.000 A 
ATOM      6  C   UNL     1       5.883   5.367  15.416  0.00  0.00    +0.000 A 
ATOM      7  C   UNL     1       6.323   4.063  15.415  0.00  0.00    +0.000 A 
ATOM      8  N   UNL     1       5.701   3.412  16.445  0.00  0.00    +0.000 N 
ATOM      9  C   UNL     1       4.845   4.270  17.103  0.00  0.00    +0.000 A 
ATOM     10  H   UNL     1       5.837   2.444  16.717  0.00  0.00    +0.000 HD
ENDROOT
BRANCH   3  11
ATOM     11  C   UNL     1       2.490   7.547  18.569  0.00  0.00    +0.000 A 
ATOM     12  C   UNL     1       2.119   8.611  17.723  0.00  0.00    +0.000 A 
ATOM     13  C   UNL     1       1.307   9.659  18.170  0.00  0.00    +0.000 A 
ATOM     14  C   UNL     1       0.859   9.679  19.487  0.00  0.00    +0.000 A 
ATOM     15  C   UNL     1       1.228   8.650  20.347  0.00  0.00    +0.000 A 
ATOM     16 CL   UNL     1       0.688   8.672  21.982  0.00  0.00    +0.000 Cl
ATOM     17  C   UNL     1       2.026   7.595  19.898  0.00  0.00    +0.000 A 
ENDBRANCH   3  11
BRANCH   1  19
ATOM     18  N   UNL     1       4.856   2.346  19.711  0.00  0.00    +0.000 N 
ATOM     19  C   UNL     1       3.910   2.686  18.786  0.00  0.00    +0.000 C 
ATOM     20  O   UNL     1       2.992   1.920  18.512  0.00  0.00    +0.000 OA
ATOM     21  H   UNL     1       4.708   1.470  20.195  0.00  0.00    +0.000 HD
ATOM     22  H   UNL     1       5.427   3.038  20.173  0.00  0.00    +0.000 HD
ENDBRANCH   1  19
TORSDOF 2
ENDMDL
MODEL 5
REMARK VINA RESULT:      -8.3      1.300      1.675
REMARK  Name = 
REMARK  2 active torsions:
REMARK  status: ('A' for Active; 'I' for Inactive)
REMARK    1  A    between atoms: C_2  and  C_4
REMARK    2  A    between atoms: C_6  and  C_7
REMARK                            x       y       z     vdW  Elec       q    Type
REMARK                         _______ _______ _______ _____ _____    ______ ____
ROOT
ATOM      1  C   UNL     1       6.490   6.168  17.347  0.00  0.00    +0.000 A 
ATOM      2  C   UNL     1       5.368   5.952  18.171  0.00  0.00    +0.000 A 
ATOM      3  C   UNL     1       4.337   5.057  17.821  0.00  0.00    +0.000 A 
ATOM      4  C   UNL     1       4.446   4.378  16.587  0.00  0.00    +0.000 A 
ATOM      5  C   UNL     1       5.542   4.594  15.729  0.00  0.00    +0.000 A 
ATOM      6  C   UNL     1       5.922   4.077  14.459  0.00  0.00    +0.000 A 
ATOM      7  C   UNL     1       7.121   4.657  14.113  0.00  0.00    +0.000 A 
ATOM      8  N   UNL     1       7.476   5.515  15.118  0.00  0.00    +0.000 N 
ATOM      9  C   UNL     1       6.533   5.484  16.125  0.00  0.00    +0.000 A 
ATOM     10  H   UNL     1       8.299   6.108  15.143  0.00  0.00    +0.000 HD
ENDROOT
BRANCH   3  11
ATOM     11  C   UNL     1       3.178   4.813  18.718  0.00  0.00    +0.000 A 
ATOM     12  C   UNL     1       2.589   3.538  18.827  0.00  0.00    +0.000 A 
ATOM     13  C   UNL     1       1.529   3.289  19.706  0.00  0.00    +0.000 A 
ATOM     14  C   UNL     1       1.017   4.320  20.487  0.00  0.00    +0.000 A 
ATOM     15  C   UNL     1       1.569   5.592  20.384  0.00  0.00    +0.000 A 
ATOM     16 CL   UNL     1       0.935   6.876  21.338  0.00  0.00    +0.000 Cl
ATOM     17  C   UNL     1       2.638   5.838  19.518  0.00  0.00    +0.000 A 
ENDBRANCH   3  11
BRANCH   1  19
ATOM     18  N   UNL     1       8.267   6.824  18.880  0.00  0.00    +0.000 N 
ATOM     19  C   UNL     1       7.599   7.080  17.716  0.00  0.00    +0.000 C 
ATOM     20  O   UNL     1       7.952   7.992  16.975  0.00  0.00    +0.000 OA
ATOM     21  H   UNL     1       9.096   7.378  19.048  0.00  0.00    +0.000 HD
ATOM     22  H   UNL     1       8.206   5.931  19.348  0.00  0.00    +0.000 HD
ENDBRANCH   1  19
TORSDOF 2
ENDMDL
MODEL 6
REMARK VINA RESULT:      -8.2      1.141      1.656
REMARK  Name = 
REMARK  2 active torsions:
REMARK  status: ('A' for Active; 'I' for Inactive)
REMARK    1  A    between atoms: C_2  and  C_4
REMARK    2  A    between atoms: C_6  and  C_7
REMARK                            x       y       z     vdW  Elec       q    Type
REMARK                         _______ _______ _______ _____ _____    ______ ____
ROOT
ATOM      1  C   UNL     1       6.503   5.729  17.040  0.00  0.00    +0.000 A 
ATOM      2  C   UNL     1       5.377   5.245  17.735  0.00  0.00    +0.000 A 
ATOM      3  C   UNL     1       4.492   4.303  17.173  0.00  0.00    +0.000 A 
ATOM      4  C   UNL     1       4.754   3.856  15.859  0.00  0.00    +0.000 A 
ATOM      5  C   UNL     1       5.857   4.342  15.128  0.00  0.00    +0.000 A 
ATOM      6  C   UNL     1       6.368   4.093  13.825  0.00  0.00    +0.000 A 
ATOM      7  C   UNL     1       7.498   4.863  13.663  0.00  0.00    +0.000 A 
ATOM      8  N   UNL     1       7.684   5.578  14.815  0.00  0.00    +0.000 N 
ATOM      9  C   UNL     1       6.701   5.268  15.732  0.00  0.00    +0.000 A 
ATOM     10  H   UNL     1       8.419   6.254  14.994  0.00  0.00    +0.000 HD
ENDROOT
BRANCH   3  11
ATOM     11  C   UNL     1       3.329   3.776  17.932  0.00  0.00    +0.000 A 
ATOM     12  C   UNL     1       2.878   2.452  17.759  0.00  0.00    +0.000 A 
ATOM     13  C   UNL     1       1.814   1.934  18.506  0.00  0.00    +0.000 A 
ATOM     14  C   UNL     1       1.160   2.736  19.435  0.00  0.00    +0.000 A 
ATOM     15  C   UNL     1       1.575   4.052  19.611  0.00  0.00    +0.000 A 
ATOM     16 CL   UNL     1       0.765   5.056  20.750  0.00  0.00    +0.000 Cl
ATOM     17  C   UNL     1       2.647   4.566  18.876  0.00  0.00    +0.000 A 
ENDBRANCH   3  11
BRANCH   1  19
ATOM     18  N   UNL     1       8.009   6.381  18.842  0.00  0.00    +0.000 N 
ATOM     19  C   UNL     1       7.462   6.694  17.629  0.00  0.00    +0.000 C 
ATOM     20  O   UNL     1       7.806   7.705  17.025  0.00  0.00    +0.000 OA
ATOM     21  H   UNL     1       8.752   6.987  19.164  0.00  0.00    +0.000 HD
ATOM     22  H   UNL     1       7.983   5.443  19.215  0.00  0.00    +0.000 HD
ENDBRANCH   1  19
TORSDOF 2
ENDMDL
MODEL 7
REMARK VINA RESULT:      -7.9      1.810      1.995
REMARK  Name = 
REMARK  2 active torsions:
REMARK  status: ('A' for Active; 'I' for Inactive)
REMARK    1  A    between atoms: C_2  and  C_4
REMARK    2  A    between atoms: C_6  and  C_7
REMARK                            x       y       z     vdW  Elec       q    Type
REMARK                         _______ _______ _______ _____ _____    ______ ____
ROOT
ATOM      1  C   UNL     1       6.635   4.503  17.725  0.00  0.00    +0.000 A 
ATOM      2  C   UNL     1       5.443   4.218  18.417  0.00  0.00    +0.000 A 
ATOM      3  C   UNL     1       4.222   3.985  17.753  0.00  0.00    +0.000 A 
ATOM      4  C   UNL     1       4.216   4.062  16.342  0.00  0.00    +0.000 A 
ATOM      5  C   UNL     1       5.387   4.372  15.622  0.00  0.00    +0.000 A 
ATOM      6  C   UNL     1       5.689   4.519  14.241  0.00  0.00    +0.000 A 
ATOM      7  C   UNL     1       7.029   4.820  14.135  0.00  0.00    +0.000 A 
ATOM      8  N   UNL     1       7.546   4.873  15.400  0.00  0.00    +0.000 N 
ATOM      9  C   UNL     1       6.565   4.589  16.328  0.00  0.00    +0.000 A 
ATOM     10  H   UNL     1       8.503   5.097  15.652  0.00  0.00    +0.000 HD
ENDROOT
BRANCH   3  11
ATOM     11  C   UNL     1       2.980   3.651  18.497  0.00  0.00    +0.000 A 
ATOM     12  C   UNL     1       1.736   3.556  17.843  0.00  0.00    +0.000 A 
ATOM     13  C   UNL     1       0.570   3.194  18.528  0.00  0.00    +0.000 A 
ATOM     14  C   UNL     1       0.618   2.934  19.893  0.00  0.00    +0.000 A 
ATOM     15  C   UNL     1       1.832   3.039  20.565  0.00  0.00    +0.000 A 
ATOM     16 CL   UNL     1       1.899   2.730  22.257  0.00  0.00    +0.000 Cl
ATOM     17  C   UNL     1       2.999   3.386  19.879  0.00  0.00    +0.000 A 
ENDBRANCH   3  11
BRANCH   1  19
ATOM     18  N   UNL     1       7.965   5.607  19.443  0.00  0.00    +0.000 N 
ATOM     19  C   UNL     1       7.935   4.718  18.407  0.00  0.00    +0.000 C 
ATOM     20  O   UNL     1       8.933   4.075  18.100  0.00  0.00    +0.000 OA
ATOM     21  H   UNL     1       8.825   5.644  19.973  0.00  0.00    +0.000 HD
ATOM     22  H   UNL     1       7.123   5.918  19.907  0.00  0.00    +0.000 HD
ENDBRANCH   1  19
TORSDOF 2
ENDMDL
MODEL 8
REMARK VINA RESULT:      -7.9      3.408      4.529
REMARK  Name = 
REMARK  2 active torsions:
REMARK  status: ('A' for Active; 'I' for Inactive)
REMARK    1  A    between atoms: C_2  and  C_4
REMARK    2  A    between atoms: C_6  and  C_7
REMARK                            x       y       z     vdW  Elec       q    Type
REMARK                         _______ _______ _______ _____ _____    ______ ____
ROOT
ATOM      1  C   UNL     1       4.859   4.834  17.733  0.00  0.00    +0.000 A 
ATOM      2  C   UNL     1       4.255   6.083  17.973  0.00  0.00    +0.000 A 
ATOM      3  C   UNL     1       2.929   6.202  18.436  0.00  0.00    +0.000 A 
ATOM      4  C   UNL     1       2.195   5.013  18.644  0.00  0.00    +0.000 A 
ATOM      5  C   UNL     1       2.764   3.749  18.387  0.00  0.00    +0.000 A 
ATOM      6  C   UNL     1       2.293   2.412  18.495  0.00  0.00    +0.000 A 
ATOM      7  C   UNL     1       3.316   1.575  18.109  0.00  0.00    +0.000 A 
ATOM      8  N   UNL     1       4.385   2.355  17.761  0.00  0.00    +0.000 N 
ATOM      9  C   UNL     1       4.077   3.689  17.935  0.00  0.00    +0.000 A 
ATOM     10  H   UNL     1       5.280   2.031  17.411  0.00  0.00    +0.000 HD
ENDROOT
BRANCH   3  11
ATOM     11  C   UNL     1       2.317   7.526  18.718  0.00  0.00    +0.000 A 
ATOM     12  C   UNL     1       2.207   8.513  17.718  0.00  0.00    +0.000 A 
ATOM     13  C   UNL     1       1.588   9.743  17.962  0.00  0.00    +0.000 A 
ATOM     14  C   UNL     1       1.077  10.026  19.225  0.00  0.00    +0.000 A 
ATOM     15  C   UNL     1       1.189   9.075  20.234  0.00  0.00    +0.000 A 
ATOM     16 CL   UNL     1       0.570   9.420  21.802  0.00  0.00    +0.000 Cl
ATOM     17  C   UNL     1       1.794   7.840  19.987  0.00  0.00    +0.000 A 
ENDBRANCH   3  11
BRANCH   1  19
ATOM     18  N   UNL     1       7.194   4.322  18.208  0.00  0.00    +0.000 N 
ATOM     19  C   UNL     1       6.263   4.690  17.278  0.00  0.00    +0.000 C 
ATOM     20  O   UNL     1       6.572   4.830  16.099  0.00  0.00    +0.000 OA
ATOM     21  H   UNL     1       8.117   4.107  17.852  0.00  0.00    +0.000 HD
ATOM     22  H   UNL     1       6.934   3.913  19.094  0.00  0.00    +0.000 HD
ENDBRANCH   1  19
TORSDOF 2
ENDMDL
MODEL 9
REMARK VINA RESULT:      -7.8      3.758      4.462
REMARK  Name = 
REMARK  2 active torsions:
REMARK  status: ('A' for Active; 'I' for Inactive)
REMARK    1  A    between atoms: C_2  and  C_4
REMARK    2  A    between atoms: C_6  and  C_7
REMARK                            x       y       z     vdW  Elec       q    Type
REMARK                         _______ _______ _______ _____ _____    ______ ____
ROOT
ATOM      1  C   UNL     1       3.971   3.889  18.303  0.00  0.00    +0.000 A 
ATOM      2  C   UNL     1       3.216   4.883  18.953  0.00  0.00    +0.000 A 
ATOM      3  C   UNL     1       3.181   6.219  18.504  0.00  0.00    +0.000 A 
ATOM      4  C   UNL     1       3.954   6.551  17.369  0.00  0.00    +0.000 A 
ATOM      5  C   UNL     1       4.742   5.584  16.713  0.00  0.00    +0.000 A 
ATOM      6  C   UNL     1       5.603   5.611  15.582  0.00  0.00    +0.000 A 
ATOM      7  C   UNL     1       6.099   4.339  15.402  0.00  0.00    +0.000 A 
ATOM      8  N   UNL     1       5.580   3.546  16.389  0.00  0.00    +0.000 N 
ATOM      9  C   UNL     1       4.736   4.281  17.196  0.00  0.00    +0.000 A 
ATOM     10  H   UNL     1       5.777   2.562  16.539  0.00  0.00    +0.000 HD
ENDROOT
BRANCH   3  11
ATOM     11  C   UNL     1       2.350   7.249  19.180  0.00  0.00    +0.000 A 
ATOM     12  C   UNL     1       1.888   7.070  20.498  0.00  0.00    +0.000 A 
ATOM     13  C   UNL     1       1.147   8.056  21.158  0.00  0.00    +0.000 A 
ATOM     14  C   UNL     1       0.833   9.244  20.506  0.00  0.00    +0.000 A 
ATOM     15  C   UNL     1       1.263   9.436  19.197  0.00  0.00    +0.000 A 
ATOM     16 CL   UNL     1       0.869  10.898  18.378  0.00  0.00    +0.000 Cl
ATOM     17  C   UNL     1       2.016   8.459  18.542  0.00  0.00    +0.000 A 
ENDBRANCH   3  11
BRANCH   1  19
ATOM     18  N   UNL     1       4.876   2.130  19.727  0.00  0.00    +0.000 N 
ATOM     19  C   UNL     1       3.992   2.473  18.743  0.00  0.00    +0.000 C 
ATOM     20  O   UNL     1       3.203   1.650  18.291  0.00  0.00    +0.000 OA
ATOM     21  H   UNL     1       4.786   1.194  20.099  0.00  0.00    +0.000 HD
ATOM     22  H   UNL     1       5.314   2.822  20.319  0.00  0.00    +0.000 HD
ENDBRANCH   1  19
TORSDOF 2
ENDMDL
