MODEL 1
REMARK VINA RESULT:      -7.1      0.000      0.000
REMARK  Name = 
REMARK  11 active torsions:
REMARK  status: ('A' for Active; 'I' for Inactive)
REMARK    1  A    between atoms: C_1  and  O_2
REMARK    2  A    between atoms: O_2  and  C_3
REMARK    3  A    between atoms: C_8  and  N_9
REMARK    4  A    between atoms: N_9  and  C_10
REMARK    5  A    between atoms: C_11  and  C_13
REMARK    6  A    between atoms: C_13  and  C_14
REMARK    7  A    between atoms: C_13  and  C_15
REMARK    8  A    between atoms: C_15  and  O_16
REMARK    9  A    between atoms: N_19  and  C_20
REMARK   10  A    between atoms: C_20  and  C_21
REMARK   11  A    between atoms: C_21  and  C_22
REMARK                            x       y       z     vdW  Elec       q    Type
REMARK                         _______ _______ _______ _____ _____    ______ ____
ROOT
ATOM      1  C   UNL     1       0.217  11.344  20.212  0.00  0.00    +0.000 C 
ATOM      2  C   UNL     1       0.168  10.742  21.635  0.00  0.00    +0.000 C 
ATOM      3  C   UNL     1       1.070   9.524  21.835  0.00  0.00    +0.000 C 
ATOM      4  N   UNL     1       0.877   8.527  20.776  0.00  0.00    +0.000 NA
ATOM      5  C   UNL     1       1.269   9.123  19.489  0.00  0.00    +0.000 C 
ATOM      6  C   UNL     1       0.305  10.257  19.120  0.00  0.00    +0.000 C 
ENDROOT
BRANCH   1   7
ATOM      7  C   UNL     1      -0.947  12.380  19.905  0.00  0.00    +0.000 C 
ATOM      8  C   UNL     1      -2.149  11.647  19.289  0.00  0.00    +0.000 C 
BRANCH   7  11
ATOM      9  N   UNL     1      -0.272  14.861  19.602  0.00  0.00    +0.000 N 
ATOM     10  C   UNL     1      -0.565  15.142  21.005  0.00  0.00    +0.000 C 
ATOM     11  C   UNL     1      -0.496  13.591  19.024  0.00  0.00    +0.000 C 
ATOM     12  O   UNL     1      -0.377  13.410  17.807  0.00  0.00    +0.000 OA
BRANCH   9  18
ATOM     13  C   UNL     1       1.620  16.193  18.487  0.00  0.00    +0.000 A 
ATOM     14  C   UNL     1       2.005  17.307  17.708  0.00  0.00    +0.000 A 
ATOM     15  C   UNL     1       1.066  18.191  17.186  0.00  0.00    +0.000 A 
ATOM     16  C   UNL     1      -0.274  17.970  17.432  0.00  0.00    +0.000 A 
ATOM     17  C   UNL     1      -0.672  16.885  18.220  0.00  0.00    +0.000 A 
ATOM     18  C   UNL     1       0.244  15.977  18.796  0.00  0.00    +0.000 A 
BRANCH  13  20
ATOM     19  C   UNL     1       3.337  15.877  20.107  0.00  0.00    +0.000 C 
ATOM     20  O   UNL     1       2.576  15.353  19.017  0.00  0.00    +0.000 OA
ENDBRANCH  13  20
ENDBRANCH   9  18
ENDBRANCH   7  11
ENDBRANCH   1   7
BRANCH   1  21
ATOM     21  O   UNL     1       1.478  12.062  20.096  0.00  0.00    +0.000 OA
ATOM     22  H   UNL     1       1.627  12.282  19.160  0.00  0.00    +0.000 HD
ENDBRANCH   1  21
BRANCH   4  23
ATOM     23  C   UNL     1       1.635   7.287  21.035  0.00  0.00    +0.000 C 
BRANCH  23  24
ATOM     24  C   UNL     1       2.317   6.729  19.772  0.00  0.00    +0.000 C 
BRANCH  24  25
ATOM     25  C   UNL     1       2.067   5.248  19.585  0.00  0.00    +0.000 A 
ATOM     26  C   UNL     1       1.229   4.584  20.496  0.00  0.00    +0.000 A 
ATOM     27  C   UNL     1       0.978   3.217  20.370  0.00  0.00    +0.000 A 
ATOM     28  C   UNL     1       1.555   2.494  19.330  0.00  0.00    +0.000 A 
ATOM     29  C   UNL     1       2.383   3.139  18.413  0.00  0.00    +0.000 A 
ATOM     30  C   UNL     1       2.636   4.509  18.534  0.00  0.00    +0.000 A 
ATOM     31 CL   UNL     1       3.665   5.239  17.352  0.00  0.00    +0.000 Cl
ENDBRANCH  24  25
ENDBRANCH  23  24
ENDBRANCH   4  23
TORSDOF 8
ENDMDL
MODEL 2
REMARK VINA RESULT:      -7.0      2.430      2.990
REMARK  Name = 
REMARK  11 active torsions:
REMARK  status: ('A' for Active; 'I' for Inactive)
REMARK    1  A    between atoms: C_1  and  O_2
REMARK    2  A    between atoms: O_2  and  C_3
REMARK    3  A    between atoms: C_8  and  N_9
REMARK    4  A    between atoms: N_9  and  C_10
REMARK    5  A    between atoms: C_11  and  C_13
REMARK    6  A    between atoms: C_13  and  C_14
REMARK    7  A    between atoms: C_13  and  C_15
REMARK    8  A    between atoms: C_15  and  O_16
REMARK    9  A    between atoms: N_19  and  C_20
REMARK   10  A    between atoms: C_20  and  C_21
REMARK   11  A    between atoms: C_21  and  C_22
REMARK                            x       y       z     vdW  Elec       q    Type
REMARK                         _______ _______ _______ _____ _____    ______ ____
ROOT
ATOM      1  C   UNL     1       0.397  10.167  19.582  0.00  0.00    +0.000 C 
ATOM      2  C   UNL     1       0.708   8.942  20.474  0.00  0.00    +0.000 C 
ATOM      3  C   UNL     1       1.950   8.157  20.054  0.00  0.00    +0.000 C 
ATOM      4  N   UNL     1       1.932   7.841  18.621  0.00  0.00    +0.000 NA
ATOM      5  C   UNL     1       1.964   9.100  17.860  0.00  0.00    +0.000 C 
ATOM      6  C   UNL     1       0.668   9.886  18.090  0.00  0.00    +0.000 C 
ENDROOT
BRANCH   1   7
ATOM      7  C   UNL     1      -1.052  10.778  19.803  0.00  0.00    +0.000 C 
ATOM      8  C   UNL     1      -1.883  10.628  18.519  0.00  0.00    +0.000 C 
BRANCH   7  11
ATOM      9  N   UNL     1      -1.088  12.543  21.696  0.00  0.00    +0.000 N 
ATOM     10  C   UNL     1      -1.273  11.501  22.703  0.00  0.00    +0.000 C 
ATOM     11  C   UNL     1      -1.041  12.256  20.313  0.00  0.00    +0.000 C 
ATOM     12  O   UNL     1      -1.025  13.160  19.471  0.00  0.00    +0.000 OA
BRANCH   9  18
ATOM     13  C   UNL     1       0.239  14.657  22.302  0.00  0.00    +0.000 A 
ATOM     14  C   UNL     1       0.227  15.982  22.793  0.00  0.00    +0.000 A 
ATOM     15  C   UNL     1      -0.961  16.623  23.129  0.00  0.00    +0.000 A 
ATOM     16  C   UNL     1      -2.156  15.949  22.974  0.00  0.00    +0.000 A 
ATOM     17  C   UNL     1      -2.160  14.629  22.511  0.00  0.00    +0.000 A 
ATOM     18  C   UNL     1      -0.980  13.926  22.184  0.00  0.00    +0.000 A 
BRANCH  13  20
ATOM     19  C   UNL     1       2.141  14.544  20.873  0.00  0.00    +0.000 C 
ATOM     20  O   UNL     1       1.435  14.038  22.007  0.00  0.00    +0.000 OA
ENDBRANCH  13  20
ENDBRANCH   9  18
ENDBRANCH   7  11
ENDBRANCH   1   7
BRANCH   1  21
ATOM     21  O   UNL     1       1.361  11.201  19.927  0.00  0.00    +0.000 OA
ATOM     22  H   UNL     1       1.503  11.187  20.889  0.00  0.00    +0.000 HD
ENDBRANCH   1  21
BRANCH   4  23
ATOM     23  C   UNL     1       3.052   6.961  18.231  0.00  0.00    +0.000 C 
BRANCH  23  24
ATOM     24  C   UNL     1       3.378   5.901  19.299  0.00  0.00    +0.000 C 
BRANCH  24  25
ATOM     25  C   UNL     1       2.572   4.633  19.122  0.00  0.00    +0.000 A 
ATOM     26  C   UNL     1       1.535   4.359  20.030  0.00  0.00    +0.000 A 
ATOM     27  C   UNL     1       0.772   3.197  19.913  0.00  0.00    +0.000 A 
ATOM     28  C   UNL     1       1.028   2.294  18.886  0.00  0.00    +0.000 A 
ATOM     29  C   UNL     1       2.048   2.554  17.972  0.00  0.00    +0.000 A 
ATOM     30  C   UNL     1       2.814   3.718  18.084  0.00  0.00    +0.000 A 
ATOM     31 CL   UNL     1       4.054   3.975  16.907  0.00  0.00    +0.000 Cl
ENDBRANCH  24  25
ENDBRANCH  23  24
ENDBRANCH   4  23
TORSDOF 8
ENDMDL
MODEL 3
REMARK VINA RESULT:      -7.0      1.477      1.760
REMARK  Name = 
REMARK  11 active torsions:
REMARK  status: ('A' for Active; 'I' for Inactive)
REMARK    1  A    between atoms: C_1  and  O_2
REMARK    2  A    between atoms: O_2  and  C_3
REMARK    3  A    between atoms: C_8  and  N_9
REMARK    4  A    between atoms: N_9  and  C_10
REMARK    5  A    between atoms: C_11  and  C_13
REMARK    6  A    between atoms: C_13  and  C_14
REMARK    7  A    between atoms: C_13  and  C_15
REMARK    8  A    between atoms: C_15  and  O_16
REMARK    9  A    between atoms: N_19  and  C_20
REMARK   10  A    between atoms: C_20  and  C_21
REMARK   11  A    between atoms: C_21  and  C_22
REMARK                            x       y       z     vdW  Elec       q    Type
REMARK                         _______ _______ _______ _____ _____    ______ ____
ROOT
ATOM      1  C   UNL     1       0.320  10.698  19.645  0.00  0.00    +0.000 C 
ATOM      2  C   UNL     1       0.308   9.870  20.951  0.00  0.00    +0.000 C 
ATOM      3  C   UNL     1       1.400   8.804  21.030  0.00  0.00    +0.000 C 
ATOM      4  N   UNL     1       1.437   7.976  19.819  0.00  0.00    +0.000 NA
ATOM      5  C   UNL     1       1.780   8.832  18.673  0.00  0.00    +0.000 C 
ATOM      6  C   UNL     1       0.652   9.836  18.410  0.00  0.00    +0.000 C 
ENDROOT
BRANCH   1   7
ATOM      7  C   UNL     1      -0.992  11.563  19.413  0.00  0.00    +0.000 C 
ATOM      8  C   UNL     1      -1.922  10.844  18.424  0.00  0.00    +0.000 C 
BRANCH   7  11
ATOM      9  N   UNL     1      -0.634  14.075  19.924  0.00  0.00    +0.000 N 
ATOM     10  C   UNL     1      -0.942  13.861  21.336  0.00  0.00    +0.000 C 
ATOM     11  C   UNL     1      -0.706  13.034  18.970  0.00  0.00    +0.000 C 
ATOM     12  O   UNL     1      -0.580  13.263  17.762  0.00  0.00    +0.000 OA
BRANCH   9  18
ATOM     13  C   UNL     1       1.057  15.885  19.245  0.00  0.00    +0.000 A 
ATOM     14  C   UNL     1       1.293  17.229  18.876  0.00  0.00    +0.000 A 
ATOM     15  C   UNL     1       0.251  18.138  18.730  0.00  0.00    +0.000 A 
ATOM     16  C   UNL     1      -1.046  17.715  18.946  0.00  0.00    +0.000 A 
ATOM     17  C   UNL     1      -1.296  16.395  19.334  0.00  0.00    +0.000 A 
ATOM     18  C   UNL     1      -0.271  15.442  19.524  0.00  0.00    +0.000 A 
BRANCH  13  20
ATOM     19  C   UNL     1       2.757  14.572  18.217  0.00  0.00    +0.000 C 
ATOM     20  O   UNL     1       2.113  15.016  19.413  0.00  0.00    +0.000 OA
ENDBRANCH  13  20
ENDBRANCH   9  18
ENDBRANCH   7  11
ENDBRANCH   1   7
BRANCH   1  21
ATOM     21  O   UNL     1       1.439  11.624  19.738  0.00  0.00    +0.000 OA
ATOM     22  H   UNL     1       1.226  12.305  20.400  0.00  0.00    +0.000 HD
ENDBRANCH   1  21
BRANCH   4  23
ATOM     23  C   UNL     1       2.388   6.854  19.942  0.00  0.00    +0.000 C 
BRANCH  23  24
ATOM     24  C   UNL     1       1.738   5.580  20.513  0.00  0.00    +0.000 C 
BRANCH  24  25
ATOM     25  C   UNL     1       1.920   4.380  19.609  0.00  0.00    +0.000 A 
ATOM     26  C   UNL     1       2.229   4.595  18.255  0.00  0.00    +0.000 A 
ATOM     27  C   UNL     1       2.395   3.520  17.381  0.00  0.00    +0.000 A 
ATOM     28  C   UNL     1       2.261   2.215  17.846  0.00  0.00    +0.000 A 
ATOM     29  C   UNL     1       1.963   1.984  19.188  0.00  0.00    +0.000 A 
ATOM     30  C   UNL     1       1.798   3.059  20.068  0.00  0.00    +0.000 A 
ATOM     31 CL   UNL     1       1.439   2.690  21.718  0.00  0.00    +0.000 Cl
ENDBRANCH  24  25
ENDBRANCH  23  24
ENDBRANCH   4  23
TORSDOF 8
ENDMDL
MODEL 4
REMARK VINA RESULT:      -6.8      1.528      2.318
REMARK  Name = 
REMARK  11 active torsions:
REMARK  status: ('A' for Active; 'I' for Inactive)
REMARK    1  A    between atoms: C_1  and  O_2
REMARK    2  A    between atoms: O_2  and  C_3
REMARK    3  A    between atoms: C_8  and  N_9
REMARK    4  A    between atoms: N_9  and  C_10
REMARK    5  A    between atoms: C_11  and  C_13
REMARK    6  A    between atoms: C_13  and  C_14
REMARK    7  A    between atoms: C_13  and  C_15
REMARK    8  A    between atoms: C_15  and  O_16
REMARK    9  A    between atoms: N_19  and  C_20
REMARK   10  A    between atoms: C_20  and  C_21
REMARK   11  A    between atoms: C_21  and  C_22
REMARK                            x       y       z     vdW  Elec       q    Type
REMARK                         _______ _______ _______ _____ _____    ______ ____
ROOT
ATOM      1  C   UNL     1      -0.061  10.956  20.178  0.00  0.00    +0.000 C 
ATOM      2  C   UNL     1       1.053  10.764  19.123  0.00  0.00    +0.000 C 
ATOM      3  C   UNL     1       1.408   9.304  18.842  0.00  0.00    +0.000 C 
ATOM      4  N   UNL     1       1.648   8.556  20.081  0.00  0.00    +0.000 NA
ATOM      5  C   UNL     1       0.404   8.534  20.867  0.00  0.00    +0.000 C 
ATOM      6  C   UNL     1       0.056   9.949  21.341  0.00  0.00    +0.000 C 
ENDROOT
BRANCH   1   7
ATOM      7  C   UNL     1      -0.198  12.446  20.713  0.00  0.00    +0.000 C 
ATOM      8  C   UNL     1      -1.624  12.684  21.233  0.00  0.00    +0.000 C 
BRANCH   7  11
ATOM      9  N   UNL     1       1.306  14.402  19.930  0.00  0.00    +0.000 N 
ATOM     10  C   UNL     1       1.997  14.424  21.217  0.00  0.00    +0.000 C 
ATOM     11  C   UNL     1       0.224  13.530  19.669  0.00  0.00    +0.000 C 
ATOM     12  O   UNL     1      -0.437  13.623  18.629  0.00  0.00    +0.000 OA
BRANCH   9  18
ATOM     13  C   UNL     1       1.219  16.660  18.710  0.00  0.00    +0.000 A 
ATOM     14  C   UNL     1       1.735  17.496  17.693  0.00  0.00    +0.000 A 
ATOM     15  C   UNL     1       2.808  17.101  16.901  0.00  0.00    +0.000 A 
ATOM     16  C   UNL     1       3.384  15.865  17.116  0.00  0.00    +0.000 A 
ATOM     17  C   UNL     1       2.871  15.015  18.102  0.00  0.00    +0.000 A 
ATOM     18  C   UNL     1       1.767  15.359  18.913  0.00  0.00    +0.000 A 
BRANCH  13  20
ATOM     19  C   UNL     1      -1.104  17.185  18.755  0.00  0.00    +0.000 C 
ATOM     20  O   UNL     1       0.135  17.067  19.458  0.00  0.00    +0.000 OA
ENDBRANCH  13  20
ENDBRANCH   9  18
ENDBRANCH   7  11
ENDBRANCH   1   7
BRANCH   1  21
ATOM     21  O   UNL     1      -1.320  10.608  19.536  0.00  0.00    +0.000 OA
ATOM     22  H   UNL     1      -2.041  10.726  20.179  0.00  0.00    +0.000 HD
ENDBRANCH   1  21
BRANCH   4  23
ATOM     23  C   UNL     1       2.132   7.186  19.820  0.00  0.00    +0.000 C 
BRANCH  23  24
ATOM     24  C   UNL     1       2.489   6.951  18.340  0.00  0.00    +0.000 C 
BRANCH  24  25
ATOM     25  C   UNL     1       2.694   5.486  18.020  0.00  0.00    +0.000 A 
ATOM     26  C   UNL     1       1.685   4.571  18.367  0.00  0.00    +0.000 A 
ATOM     27  C   UNL     1       1.835   3.209  18.101  0.00  0.00    +0.000 A 
ATOM     28  C   UNL     1       2.989   2.742  17.480  0.00  0.00    +0.000 A 
ATOM     29  C   UNL     1       3.995   3.637  17.121  0.00  0.00    +0.000 A 
ATOM     30  C   UNL     1       3.849   5.003  17.384  0.00  0.00    +0.000 A 
ATOM     31 CL   UNL     1       5.136   6.051  16.901  0.00  0.00    +0.000 Cl
ENDBRANCH  24  25
ENDBRANCH  23  24
ENDBRANCH   4  23
TORSDOF 8
ENDMDL
MODEL 5
REMARK VINA RESULT:      -6.8      2.638      3.094
REMARK  Name = 
REMARK  11 active torsions:
REMARK  status: ('A' for Active; 'I' for Inactive)
REMARK    1  A    between atoms: C_1  and  O_2
REMARK    2  A    between atoms: O_2  and  C_3
REMARK    3  A    between atoms: C_8  and  N_9
REMARK    4  A    between atoms: N_9  and  C_10
REMARK    5  A    between atoms: C_11  and  C_13
REMARK    6  A    between atoms: C_13  and  C_14
REMARK    7  A    between atoms: C_13  and  C_15
REMARK    8  A    between atoms: C_15  and  O_16
REMARK    9  A    between atoms: N_19  and  C_20
REMARK   10  A    between atoms: C_20  and  C_21
REMARK   11  A    between atoms: C_21  and  C_22
REMARK                            x       y       z     vdW  Elec       q    Type
REMARK                         _______ _______ _______ _____ _____    ______ ____
ROOT
ATOM      1  C   UNL     1       0.525   9.894  19.477  0.00  0.00    +0.000 C 
ATOM      2  C   UNL     1       0.798   8.694  20.413  0.00  0.00    +0.000 C 
ATOM      3  C   UNL     1       2.011   7.851  20.019  0.00  0.00    +0.000 C 
ATOM      4  N   UNL     1       1.976   7.483  18.599  0.00  0.00    +0.000 NA
ATOM      5  C   UNL     1       2.047   8.710  17.791  0.00  0.00    +0.000 C 
ATOM      6  C   UNL     1       0.780   9.548  17.995  0.00  0.00    +0.000 C 
ENDROOT
BRANCH   1   7
ATOM      7  C   UNL     1      -0.901  10.563  19.678  0.00  0.00    +0.000 C 
ATOM      8  C   UNL     1      -1.726  10.432  18.388  0.00  0.00    +0.000 C 
BRANCH   7  11
ATOM      9  N   UNL     1      -0.828  12.343  21.556  0.00  0.00    +0.000 N 
ATOM     10  C   UNL     1      -1.003  11.314  22.578  0.00  0.00    +0.000 C 
ATOM     11  C   UNL     1      -0.837  12.044  20.175  0.00  0.00    +0.000 C 
ATOM     12  O   UNL     1      -0.830  12.941  19.324  0.00  0.00    +0.000 OA
BRANCH   9  18
ATOM     13  C   UNL     1       0.543  14.474  21.975  0.00  0.00    +0.000 A 
ATOM     14  C   UNL     1       0.582  15.798  22.467  0.00  0.00    +0.000 A 
ATOM     15  C   UNL     1      -0.555  16.423  22.968  0.00  0.00    +0.000 A 
ATOM     16  C   UNL     1      -1.751  15.733  22.982  0.00  0.00    +0.000 A 
ATOM     17  C   UNL     1      -1.803  14.413  22.520  0.00  0.00    +0.000 A 
ATOM     18  C   UNL     1      -0.672  13.727  22.028  0.00  0.00    +0.000 A 
BRANCH  13  20
ATOM     19  C   UNL     1       2.915  14.560  21.784  0.00  0.00    +0.000 C 
ATOM     20  O   UNL     1       1.693  13.871  21.512  0.00  0.00    +0.000 OA
ENDBRANCH  13  20
ENDBRANCH   9  18
ENDBRANCH   7  11
ENDBRANCH   1   7
BRANCH   1  21
ATOM     21  O   UNL     1       1.526  10.906  19.779  0.00  0.00    +0.000 OA
ATOM     22  H   UNL     1       1.695  10.901  20.737  0.00  0.00    +0.000 HD
ENDBRANCH   1  21
BRANCH   4  23
ATOM     23  C   UNL     1       3.063   6.550  18.240  0.00  0.00    +0.000 C 
BRANCH  23  24
ATOM     24  C   UNL     1       2.550   5.139  17.895  0.00  0.00    +0.000 C 
BRANCH  24  25
ATOM     25  C   UNL     1       2.426   4.254  19.115  0.00  0.00    +0.000 A 
ATOM     26  C   UNL     1       1.161   4.092  19.706  0.00  0.00    +0.000 A 
ATOM     27  C   UNL     1       1.000   3.293  20.839  0.00  0.00    +0.000 A 
ATOM     28  C   UNL     1       2.096   2.641  21.395  0.00  0.00    +0.000 A 
ATOM     29  C   UNL     1       3.356   2.785  20.817  0.00  0.00    +0.000 A 
ATOM     30  C   UNL     1       3.522   3.582  19.680  0.00  0.00    +0.000 A 
ATOM     31 CL   UNL     1       5.113   3.703  19.016  0.00  0.00    +0.000 Cl
ENDBRANCH  24  25
ENDBRANCH  23  24
ENDBRANCH   4  23
TORSDOF 8
ENDMDL
MODEL 6
REMARK VINA RESULT:      -6.8      2.804      3.598
REMARK  Name = 
REMARK  11 active torsions:
REMARK  status: ('A' for Active; 'I' for Inactive)
REMARK    1  A    between atoms: C_1  and  O_2
REMARK    2  A    between atoms: O_2  and  C_3
REMARK    3  A    between atoms: C_8  and  N_9
REMARK    4  A    between atoms: N_9  and  C_10
REMARK    5  A    between atoms: C_11  and  C_13
REMARK    6  A    between atoms: C_13  and  C_14
REMARK    7  A    between atoms: C_13  and  C_15
REMARK    8  A    between atoms: C_15  and  O_16
REMARK    9  A    between atoms: N_19  and  C_20
REMARK   10  A    between atoms: C_20  and  C_21
REMARK   11  A    between atoms: C_21  and  C_22
REMARK                            x       y       z     vdW  Elec       q    Type
REMARK                         _______ _______ _______ _____ _____    ______ ____
ROOT
ATOM      1  C   UNL     1       0.345  10.138  19.548  0.00  0.00    +0.000 C 
ATOM      2  C   UNL     1       0.670   8.936  20.465  0.00  0.00    +0.000 C 
ATOM      3  C   UNL     1       1.937   8.173  20.077  0.00  0.00    +0.000 C 
ATOM      4  N   UNL     1       1.949   7.834  18.650  0.00  0.00    +0.000 NA
ATOM      5  C   UNL     1       1.965   9.081  17.869  0.00  0.00    +0.000 C 
ATOM      6  C   UNL     1       0.647   9.840  18.065  0.00  0.00    +0.000 C 
ENDROOT
BRANCH   1   7
ATOM      7  C   UNL     1      -1.121  10.720  19.735  0.00  0.00    +0.000 C 
ATOM      8  C   UNL     1      -1.927  10.528  18.441  0.00  0.00    +0.000 C 
BRANCH   7  11
ATOM      9  N   UNL     1      -1.175  12.516  21.598  0.00  0.00    +0.000 N 
ATOM     10  C   UNL     1      -1.299  11.487  22.627  0.00  0.00    +0.000 C 
ATOM     11  C   UNL     1      -1.151  12.206  20.219  0.00  0.00    +0.000 C 
ATOM     12  O   UNL     1      -1.189  13.095  19.362  0.00  0.00    +0.000 OA
BRANCH   9  18
ATOM     13  C   UNL     1      -2.236  14.710  22.408  0.00  0.00    +0.000 A 
ATOM     14  C   UNL     1      -2.054  16.046  22.832  0.00  0.00    +0.000 A 
ATOM     15  C   UNL     1      -0.786  16.602  22.965  0.00  0.00    +0.000 A 
ATOM     16  C   UNL     1       0.321  15.828  22.681  0.00  0.00    +0.000 A 
ATOM     17  C   UNL     1       0.159  14.511  22.237  0.00  0.00    +0.000 A 
ATOM     18  C   UNL     1      -1.107  13.910  22.059  0.00  0.00    +0.000 A 
BRANCH  13  20
ATOM     19  C   UNL     1      -4.200  13.869  23.462  0.00  0.00    +0.000 C 
ATOM     20  O   UNL     1      -3.506  14.198  22.256  0.00  0.00    +0.000 OA
ENDBRANCH  13  20
ENDBRANCH   9  18
ENDBRANCH   7  11
ENDBRANCH   1   7
BRANCH   1  21
ATOM     21  O   UNL     1       1.280  11.200  19.891  0.00  0.00    +0.000 OA
ATOM     22  H   UNL     1       0.979  12.027  19.475  0.00  0.00    +0.000 HD
ENDBRANCH   1  21
BRANCH   4  23
ATOM     23  C   UNL     1       3.095   6.974  18.293  0.00  0.00    +0.000 C 
BRANCH  23  24
ATOM     24  C   UNL     1       3.391   5.900  19.357  0.00  0.00    +0.000 C 
BRANCH  24  25
ATOM     25  C   UNL     1       2.579   4.640  19.150  0.00  0.00    +0.000 A 
ATOM     26  C   UNL     1       1.518   4.368  20.029  0.00  0.00    +0.000 A 
ATOM     27  C   UNL     1       0.749   3.212  19.884  0.00  0.00    +0.000 A 
ATOM     28  C   UNL     1       1.025   2.315  18.856  0.00  0.00    +0.000 A 
ATOM     29  C   UNL     1       2.069   2.574  17.971  0.00  0.00    +0.000 A 
ATOM     30  C   UNL     1       2.841   3.732  18.111  0.00  0.00    +0.000 A 
ATOM     31 CL   UNL     1       4.112   3.987  16.968  0.00  0.00    +0.000 Cl
ENDBRANCH  24  25
ENDBRANCH  23  24
ENDBRANCH   4  23
TORSDOF 8
ENDMDL
MODEL 7
REMARK VINA RESULT:      -6.8      2.565      2.921
REMARK  Name = 
REMARK  11 active torsions:
REMARK  status: ('A' for Active; 'I' for Inactive)
REMARK    1  A    between atoms: C_1  and  O_2
REMARK    2  A    between atoms: O_2  and  C_3
REMARK    3  A    between atoms: C_8  and  N_9
REMARK    4  A    between atoms: N_9  and  C_10
REMARK    5  A    between atoms: C_11  and  C_13
REMARK    6  A    between atoms: C_13  and  C_14
REMARK    7  A    between atoms: C_13  and  C_15
REMARK    8  A    between atoms: C_15  and  O_16
REMARK    9  A    between atoms: N_19  and  C_20
REMARK   10  A    between atoms: C_20  and  C_21
REMARK   11  A    between atoms: C_21  and  C_22
REMARK                            x       y       z     vdW  Elec       q    Type
REMARK                         _______ _______ _______ _____ _____    ______ ____
ROOT
ATOM      1  C   UNL     1       0.151  10.667  19.726  0.00  0.00    +0.000 C 
ATOM      2  C   UNL     1       0.134   9.746  20.968  0.00  0.00    +0.000 C 
ATOM      3  C   UNL     1       1.268   8.722  21.008  0.00  0.00    +0.000 C 
ATOM      4  N   UNL     1       1.380   7.988  19.743  0.00  0.00    +0.000 NA
ATOM      5  C   UNL     1       1.722   8.938  18.674  0.00  0.00    +0.000 C 
ATOM      6  C   UNL     1       0.559   9.911  18.444  0.00  0.00    +0.000 C 
ENDROOT
BRANCH   1   7
ATOM      7  C   UNL     1      -1.189  11.492  19.510  0.00  0.00    +0.000 C 
ATOM      8  C   UNL     1      -1.627  11.400  18.040  0.00  0.00    +0.000 C 
BRANCH   7  11
ATOM      9  N   UNL     1      -1.525  13.338  21.293  0.00  0.00    +0.000 N 
ATOM     10  C   UNL     1      -2.176  12.390  22.194  0.00  0.00    +0.000 C 
ATOM     11  C   UNL     1      -1.100  12.975  19.995  0.00  0.00    +0.000 C 
ATOM     12  O   UNL     1      -0.681  13.822  19.198  0.00  0.00    +0.000 OA
BRANCH   9  18
ATOM     13  C   UNL     1      -0.141  15.245  22.315  0.00  0.00    +0.000 A 
ATOM     14  C   UNL     1      -0.092  16.581  22.771  0.00  0.00    +0.000 A 
ATOM     15  C   UNL     1      -1.195  17.423  22.679  0.00  0.00    +0.000 A 
ATOM     16  C   UNL     1      -2.364  16.941  22.124  0.00  0.00    +0.000 A 
ATOM     17  C   UNL     1      -2.437  15.613  21.689  0.00  0.00    +0.000 A 
ATOM     18  C   UNL     1      -1.354  14.712  21.787  0.00  0.00    +0.000 A 
BRANCH  13  20
ATOM     19  C   UNL     1       2.054  14.696  21.571  0.00  0.00    +0.000 C 
ATOM     20  O   UNL     1       0.960  14.425  22.449  0.00  0.00    +0.000 OA
ENDBRANCH  13  20
ENDBRANCH   9  18
ENDBRANCH   7  11
ENDBRANCH   1   7
BRANCH   1  21
ATOM     21  O   UNL     1       1.225  11.629  19.924  0.00  0.00    +0.000 OA
ATOM     22  H   UNL     1       1.958  11.187  20.387  0.00  0.00    +0.000 HD
ENDBRANCH   1  21
BRANCH   4  23
ATOM     23  C   UNL     1       2.374   6.899  19.818  0.00  0.00    +0.000 C 
BRANCH  23  24
ATOM     24  C   UNL     1       1.797   5.603  20.418  0.00  0.00    +0.000 C 
BRANCH  24  25
ATOM     25  C   UNL     1       2.031   4.399  19.531  0.00  0.00    +0.000 A 
ATOM     26  C   UNL     1       2.212   4.601  18.153  0.00  0.00    +0.000 A 
ATOM     27  C   UNL     1       2.420   3.520  17.295  0.00  0.00    +0.000 A 
ATOM     28  C   UNL     1       2.456   2.224  17.800  0.00  0.00    +0.000 A 
ATOM     29  C   UNL     1       2.286   2.007  19.167  0.00  0.00    +0.000 A 
ATOM     30  C   UNL     1       2.079   3.087  20.031  0.00  0.00    +0.000 A 
ATOM     31 CL   UNL     1       1.886   2.738  21.713  0.00  0.00    +0.000 Cl
ENDBRANCH  24  25
ENDBRANCH  23  24
ENDBRANCH   4  23
TORSDOF 8
ENDMDL
MODEL 8
REMARK VINA RESULT:      -6.8      1.852      2.587
REMARK  Name = 
REMARK  11 active torsions:
REMARK  status: ('A' for Active; 'I' for Inactive)
REMARK    1  A    between atoms: C_1  and  O_2
REMARK    2  A    between atoms: O_2  and  C_3
REMARK    3  A    between atoms: C_8  and  N_9
REMARK    4  A    between atoms: N_9  and  C_10
REMARK    5  A    between atoms: C_11  and  C_13
REMARK    6  A    between atoms: C_13  and  C_14
REMARK    7  A    between atoms: C_13  and  C_15
REMARK    8  A    between atoms: C_15  and  O_16
REMARK    9  A    between atoms: N_19  and  C_20
REMARK   10  A    between atoms: C_20  and  C_21
REMARK   11  A    between atoms: C_21  and  C_22
REMARK                            x       y       z     vdW  Elec       q    Type
REMARK                         _______ _______ _______ _____ _____    ______ ____
ROOT
ATOM      1  C   UNL     1       0.899  10.262  19.573  0.00  0.00    +0.000 C 
ATOM      2  C   UNL     1       1.801  10.319  18.318  0.00  0.00    +0.000 C 
ATOM      3  C   UNL     1       2.118   8.954  17.708  0.00  0.00    +0.000 C 
ATOM      4  N   UNL     1       2.592   8.004  18.721  0.00  0.00    +0.000 NA
ATOM      5  C   UNL     1       1.515   7.779  19.697  0.00  0.00    +0.000 C 
ATOM      6  C   UNL     1       1.242   9.066  20.485  0.00  0.00    +0.000 C 
ENDROOT
BRANCH   1   7
ATOM      7  C   UNL     1       0.844  11.620  20.395  0.00  0.00    +0.000 C 
ATOM      8  C   UNL     1      -0.414  11.645  21.276  0.00  0.00    +0.000 C 
BRANCH   7  11
ATOM      9  N   UNL     1       1.854  13.935  19.830  0.00  0.00    +0.000 N 
ATOM     10  C   UNL     1       2.636  13.927  21.064  0.00  0.00    +0.000 C 
ATOM     11  C   UNL     1       0.949  12.900  19.503  0.00  0.00    +0.000 C 
ATOM     12  O   UNL     1       0.195  12.992  18.529  0.00  0.00    +0.000 OA
BRANCH   9  18
ATOM     13  C   UNL     1       3.108  15.272  18.031  0.00  0.00    +0.000 A 
ATOM     14  C   UNL     1       3.179  16.435  17.231  0.00  0.00    +0.000 A 
ATOM     15  C   UNL     1       2.186  17.408  17.272  0.00  0.00    +0.000 A 
ATOM     16  C   UNL     1       1.105  17.231  18.112  0.00  0.00    +0.000 A 
ATOM     17  C   UNL     1       1.031  16.098  18.929  0.00  0.00    +0.000 A 
ATOM     18  C   UNL     1       2.026  15.096  18.944  0.00  0.00    +0.000 A 
BRANCH  13  20
ATOM     19  C   UNL     1       5.446  14.859  17.839  0.00  0.00    +0.000 C 
ATOM     20  O   UNL     1       4.123  14.340  17.991  0.00  0.00    +0.000 OA
ENDBRANCH  13  20
ENDBRANCH   9  18
ENDBRANCH   7  11
ENDBRANCH   1   7
BRANCH   1  21
ATOM     21  O   UNL     1      -0.452   9.978  19.113  0.00  0.00    +0.000 OA
ATOM     22  H   UNL     1      -0.624   9.026  19.218  0.00  0.00    +0.000 HD
ENDBRANCH   1  21
BRANCH   4  23
ATOM     23  C   UNL     1       3.037   6.730  18.123  0.00  0.00    +0.000 C 
BRANCH  23  24
ATOM     24  C   UNL     1       1.905   5.690  18.021  0.00  0.00    +0.000 C 
BRANCH  24  25
ATOM     25  C   UNL     1       2.398   4.274  18.224  0.00  0.00    +0.000 A 
ATOM     26  C   UNL     1       3.381   3.770  17.355  0.00  0.00    +0.000 A 
ATOM     27  C   UNL     1       3.859   2.466  17.498  0.00  0.00    +0.000 A 
ATOM     28  C   UNL     1       3.366   1.649  18.511  0.00  0.00    +0.000 A 
ATOM     29  C   UNL     1       2.397   2.137  19.386  0.00  0.00    +0.000 A 
ATOM     30  C   UNL     1       1.917   3.443  19.248  0.00  0.00    +0.000 A 
ATOM     31 CL   UNL     1       0.722   3.977  20.378  0.00  0.00    +0.000 Cl
ENDBRANCH  24  25
ENDBRANCH  23  24
ENDBRANCH   4  23
TORSDOF 8
ENDMDL
MODEL 9
REMARK VINA RESULT:      -6.7      1.616      2.425
REMARK  Name = 
REMARK  11 active torsions:
REMARK  status: ('A' for Active; 'I' for Inactive)
REMARK    1  A    between atoms: C_1  and  O_2
REMARK    2  A    between atoms: O_2  and  C_3
REMARK    3  A    between atoms: C_8  and  N_9
REMARK    4  A    between atoms: N_9  and  C_10
REMARK    5  A    between atoms: C_11  and  C_13
REMARK    6  A    between atoms: C_13  and  C_14
REMARK    7  A    between atoms: C_13  and  C_15
REMARK    8  A    between atoms: C_15  and  O_16
REMARK    9  A    between atoms: N_19  and  C_20
REMARK   10  A    between atoms: C_20  and  C_21
REMARK   11  A    between atoms: C_21  and  C_22
REMARK                            x       y       z     vdW  Elec       q    Type
REMARK                         _______ _______ _______ _____ _____    ______ ____
ROOT
ATOM      1  C   UNL     1       0.623  10.484  19.927  0.00  0.00    +0.000 C 
ATOM      2  C   UNL     1       1.403  10.487  18.592  0.00  0.00    +0.000 C 
ATOM      3  C   UNL     1       1.677   9.096  18.019  0.00  0.00    +0.000 C 
ATOM      4  N   UNL     1       2.256   8.200  19.027  0.00  0.00    +0.000 NA
ATOM      5  C   UNL     1       1.278   8.014  20.110  0.00  0.00    +0.000 C 
ATOM      6  C   UNL     1       1.064   9.335  20.858  0.00  0.00    +0.000 C 
ENDROOT
BRANCH   1   7
ATOM      7  C   UNL     1       0.629  11.879  20.685  0.00  0.00    +0.000 C 
ATOM      8  C   UNL     1      -0.632  12.005  21.554  0.00  0.00    +0.000 C 
BRANCH   7  11
ATOM      9  N   UNL     1       1.899  13.988  19.887  0.00  0.00    +0.000 N 
ATOM     10  C   UNL     1       2.846  13.872  20.993  0.00  0.00    +0.000 C 
ATOM     11  C   UNL     1       0.802  13.110  19.737  0.00  0.00    +0.000 C 
ATOM     12  O   UNL     1      -0.066  13.308  18.880  0.00  0.00    +0.000 OA
BRANCH   9  18
ATOM     13  C   UNL     1       1.421  16.335  18.960  0.00  0.00    +0.000 A 
ATOM     14  C   UNL     1       1.707  17.324  17.992  0.00  0.00    +0.000 A 
ATOM     15  C   UNL     1       2.694  17.138  17.030  0.00  0.00    +0.000 A 
ATOM     16  C   UNL     1       3.414  15.960  17.024  0.00  0.00    +0.000 A 
ATOM     17  C   UNL     1       3.129  14.961  17.961  0.00  0.00    +0.000 A 
ATOM     18  C   UNL     1       2.118  15.091  18.939  0.00  0.00    +0.000 A 
BRANCH  13  20
ATOM     19  C   UNL     1      -0.898  16.717  19.348  0.00  0.00    +0.000 C 
ATOM     20  O   UNL     1       0.416  16.537  19.881  0.00  0.00    +0.000 OA
ENDBRANCH  13  20
ENDBRANCH   9  18
ENDBRANCH   7  11
ENDBRANCH   1   7
BRANCH   1  21
ATOM     21  O   UNL     1      -0.762  10.168  19.610  0.00  0.00    +0.000 OA
ATOM     22  H   UNL     1      -0.918   9.226  19.799  0.00  0.00    +0.000 HD
ENDBRANCH   1  21
BRANCH   4  23
ATOM     23  C   UNL     1       2.658   6.902  18.451  0.00  0.00    +0.000 C 
BRANCH  23  24
ATOM     24  C   UNL     1       3.093   5.882  19.521  0.00  0.00    +0.000 C 
BRANCH  24  25
ATOM     25  C   UNL     1       2.744   4.460  19.142  0.00  0.00    +0.000 A 
ATOM     26  C   UNL     1       1.410   4.035  19.267  0.00  0.00    +0.000 A 
ATOM     27  C   UNL     1       1.043   2.729  18.940  0.00  0.00    +0.000 A 
ATOM     28  C   UNL     1       2.000   1.830  18.478  0.00  0.00    +0.000 A 
ATOM     29  C   UNL     1       3.326   2.238  18.341  0.00  0.00    +0.000 A 
ATOM     30  C   UNL     1       3.698   3.546  18.665  0.00  0.00    +0.000 A 
ATOM     31 CL   UNL     1       5.359   3.978  18.459  0.00  0.00    +0.000 Cl
ENDBRANCH  24  25
ENDBRANCH  23  24
ENDBRANCH   4  23
TORSDOF 8
ENDMDL
