MODEL 1
REMARK VINA RESULT:      -7.4      0.000      0.000
REMARK  Name = 
REMARK  7 active torsions:
REMARK  status: ('A' for Active; 'I' for Inactive)
REMARK    1  A    between atoms: C_1  and  C_2
REMARK    2  A    between atoms: C_2  and  C_3
REMARK    3  A    between atoms: C_2  and  C_4
REMARK    4  A    between atoms: C_2  and  C_17
REMARK    5  A    between atoms: C_9  and  C_10
REMARK    6  A    between atoms: C_10  and  S_11
REMARK    7  A    between atoms: S_11  and  N_12
REMARK                            x       y       z     vdW  Elec       q    Type
REMARK                         _______ _______ _______ _____ _____    ______ ____
ROOT
ATOM      1  C   UNL     1       5.360   4.236  16.297  0.00  0.00    +0.000 C 
ATOM      2  O   UNL     1       5.564   3.129  15.778  0.00  0.00    +0.000 OA
ATOM      3  N   UNL     1       4.467   4.343  17.364  0.00  0.00    +0.000 N 
ATOM      4  C   UNL     1       3.862   3.113  17.881  0.00  0.00    +0.000 C 
ATOM      5  C   UNL     1       2.338   3.170  17.768  0.00  0.00    +0.000 C 
ATOM      6  C   UNL     1       1.758   4.413  18.474  0.00  0.00    +0.000 C 
ATOM      7  C   UNL     1       2.434   5.651  17.861  0.00  0.00    +0.000 C 
ATOM      8  C   UNL     1       3.959   5.584  17.959  0.00  0.00    +0.000 C 
ENDROOT
BRANCH   1  10
ATOM      9  C   UNL     1       7.045   5.012  14.611  0.00  0.00    +0.000 C 
ATOM     10  C   UNL     1       6.160   5.481  15.799  0.00  0.00    +0.000 C 
ATOM     11  C   UNL     1       5.139   6.488  15.208  0.00  0.00    +0.000 C 
BRANCH  10  12
ATOM     12  C   UNL     1       6.929   6.221  16.913  0.00  0.00    +0.000 A 
ATOM     13  C   UNL     1       7.055   7.626  16.916  0.00  0.00    +0.000 A 
ATOM     14  C   UNL     1       7.804   8.292  17.893  0.00  0.00    +0.000 A 
ATOM     15  C   UNL     1       8.429   7.576  18.906  0.00  0.00    +0.000 A 
ATOM     16  C   UNL     1       8.281   6.194  18.956  0.00  0.00    +0.000 A 
ATOM     17  C   UNL     1       7.527   5.536  17.983  0.00  0.00    +0.000 A 
ATOM     18  F   UNL     1       7.421   4.204  18.086  0.00  0.00    +0.000 F 
ENDBRANCH  10  12
ENDBRANCH   1  10
BRANCH   6  19
ATOM     19  C   UNL     1       1.933   4.303  19.995  0.00  0.00    +0.000 C 
BRANCH  19  20
ATOM     20  S   UNL     1       1.995   2.627  20.617  0.00  0.00    +0.000 S 
ATOM     21  O   UNL     1       1.211   1.761  19.788  0.00  0.00    +0.000 OA
ATOM     22  O   UNL     1       3.349   2.325  21.031  0.00  0.00    +0.000 OA
BRANCH  20  23
ATOM     23  N   UNL     1       1.117   2.851  22.015  0.00  0.00    +0.000 NA
ATOM     24  H   UNL     1       0.136   3.094  21.904  0.00  0.00    +0.000 HD
ATOM     25  H   UNL     1       1.469   2.427  22.868  0.00  0.00    +0.000 HD
ENDBRANCH  20  23
ENDBRANCH  19  20
ENDBRANCH   6  19
TORSDOF 5
ENDMDL
MODEL 2
REMARK VINA RESULT:      -7.2      4.900      6.161
REMARK  Name = 
REMARK  7 active torsions:
REMARK  status: ('A' for Active; 'I' for Inactive)
REMARK    1  A    between atoms: C_1  and  C_2
REMARK    2  A    between atoms: C_2  and  C_3
REMARK    3  A    between atoms: C_2  and  C_4
REMARK    4  A    between atoms: C_2  and  C_17
REMARK    5  A    between atoms: C_9  and  C_10
REMARK    6  A    between atoms: C_10  and  S_11
REMARK    7  A    between atoms: S_11  and  N_12
REMARK                            x       y       z     vdW  Elec       q    Type
REMARK                         _______ _______ _______ _____ _____    ______ ____
ROOT
ATOM      1  C   UNL     1       2.271   5.787  19.702  0.00  0.00    +0.000 C 
ATOM      2  O   UNL     1       1.903   5.488  20.848  0.00  0.00    +0.000 OA
ATOM      3  N   UNL     1       2.324   7.129  19.322  0.00  0.00    +0.000 N 
ATOM      4  C   UNL     1       2.014   8.143  20.334  0.00  0.00    +0.000 C 
ATOM      5  C   UNL     1       0.821   8.995  19.898  0.00  0.00    +0.000 C 
ATOM      6  C   UNL     1       1.056   9.642  18.517  0.00  0.00    +0.000 C 
ATOM      7  C   UNL     1       1.357   8.510  17.521  0.00  0.00    +0.000 C 
ATOM      8  C   UNL     1       2.539   7.647  17.967  0.00  0.00    +0.000 C 
ENDROOT
BRANCH   1  10
ATOM      9  C   UNL     1       2.746   3.331  19.526  0.00  0.00    +0.000 C 
ATOM     10  C   UNL     1       2.740   4.663  18.725  0.00  0.00    +0.000 C 
ATOM     11  C   UNL     1       1.649   4.507  17.633  0.00  0.00    +0.000 C 
BRANCH  10  12
ATOM     12  C   UNL     1       4.064   4.974  17.997  0.00  0.00    +0.000 A 
ATOM     13  C   UNL     1       4.178   4.877  16.595  0.00  0.00    +0.000 A 
ATOM     14  C   UNL     1       5.395   5.101  15.941  0.00  0.00    +0.000 A 
ATOM     15  C   UNL     1       6.526   5.448  16.667  0.00  0.00    +0.000 A 
ATOM     16  C   UNL     1       6.433   5.600  18.046  0.00  0.00    +0.000 A 
ATOM     17  C   UNL     1       5.214   5.382  18.693  0.00  0.00    +0.000 A 
ATOM     18  F   UNL     1       5.187   5.545  20.022  0.00  0.00    +0.000 F 
ENDBRANCH  10  12
ENDBRANCH   1  10
BRANCH   6  19
ATOM     19  C   UNL     1       2.160  10.704  18.596  0.00  0.00    +0.000 C 
BRANCH  19  20
ATOM     20  S   UNL     1       1.567  12.380  18.799  0.00  0.00    +0.000 S 
ATOM     21  O   UNL     1       0.165  12.449  18.510  0.00  0.00    +0.000 OA
ATOM     22  O   UNL     1       2.166  12.954  19.986  0.00  0.00    +0.000 OA
BRANCH  20  23
ATOM     23  N   UNL     1       2.343  13.075  17.500  0.00  0.00    +0.000 NA
ATOM     24  H   UNL     1       2.396  14.090  17.489  0.00  0.00    +0.000 HD
ATOM     25  H   UNL     1       2.997  12.500  16.976  0.00  0.00    +0.000 HD
ENDBRANCH  20  23
ENDBRANCH  19  20
ENDBRANCH   6  19
TORSDOF 5
ENDMDL
MODEL 3
REMARK VINA RESULT:      -7.1      5.303      7.119
REMARK  Name = 
REMARK  7 active torsions:
REMARK  status: ('A' for Active; 'I' for Inactive)
REMARK    1  A    between atoms: C_1  and  C_2
REMARK    2  A    between atoms: C_2  and  C_3
REMARK    3  A    between atoms: C_2  and  C_4
REMARK    4  A    between atoms: C_2  and  C_17
REMARK    5  A    between atoms: C_9  and  C_10
REMARK    6  A    between atoms: C_10  and  S_11
REMARK    7  A    between atoms: S_11  and  N_12
REMARK                            x       y       z     vdW  Elec       q    Type
REMARK                         _______ _______ _______ _____ _____    ______ ____
ROOT
ATOM      1  C   UNL     1       1.498   8.450  19.770  0.00  0.00    +0.000 C 
ATOM      2  O   UNL     1       1.797   9.064  18.735  0.00  0.00    +0.000 OA
ATOM      3  N   UNL     1       1.995   7.162  19.976  0.00  0.00    +0.000 N 
ATOM      4  C   UNL     1       2.927   6.618  18.985  0.00  0.00    +0.000 C 
ATOM      5  C   UNL     1       2.369   5.335  18.365  0.00  0.00    +0.000 C 
ATOM      6  C   UNL     1       2.026   4.283  19.441  0.00  0.00    +0.000 C 
ATOM      7  C   UNL     1       1.037   4.933  20.424  0.00  0.00    +0.000 C 
ATOM      8  C   UNL     1       1.588   6.225  21.029  0.00  0.00    +0.000 C 
ENDROOT
BRANCH   1  10
ATOM      9  C   UNL     1      -0.527   8.178  21.224  0.00  0.00    +0.000 C 
ATOM     10  C   UNL     1       0.628   9.152  20.860  0.00  0.00    +0.000 C 
ATOM     11  C   UNL     1       1.497   9.290  22.136  0.00  0.00    +0.000 C 
BRANCH  10  12
ATOM     12  C   UNL     1       0.165  10.573  20.475  0.00  0.00    +0.000 A 
ATOM     13  C   UNL     1       0.769  11.722  21.026  0.00  0.00    +0.000 A 
ATOM     14  C   UNL     1       0.308  13.008  20.724  0.00  0.00    +0.000 A 
ATOM     15  C   UNL     1      -0.753  13.184  19.846  0.00  0.00    +0.000 A 
ATOM     16  C   UNL     1      -1.336  12.072  19.248  0.00  0.00    +0.000 A 
ATOM     17  C   UNL     1      -0.868  10.791  19.549  0.00  0.00    +0.000 A 
ATOM     18  F   UNL     1      -1.470   9.760  18.940  0.00  0.00    +0.000 F 
ENDBRANCH  10  12
ENDBRANCH   1  10
BRANCH   6  19
ATOM     19  C   UNL     1       3.302   3.754  20.108  0.00  0.00    +0.000 C 
BRANCH  19  20
ATOM     20  S   UNL     1       4.478   3.013  18.982  0.00  0.00    +0.000 S 
ATOM     21  O   UNL     1       3.792   2.370  17.901  0.00  0.00    +0.000 OA
ATOM     22  O   UNL     1       5.590   3.922  18.793  0.00  0.00    +0.000 OA
BRANCH  20  23
ATOM     23  N   UNL     1       5.032   1.794  19.972  0.00  0.00    +0.000 NA
ATOM     24  H   UNL     1       5.968   1.904  20.353  0.00  0.00    +0.000 HD
ATOM     25  H   UNL     1       4.342   1.194  20.415  0.00  0.00    +0.000 HD
ENDBRANCH  20  23
ENDBRANCH  19  20
ENDBRANCH   6  19
TORSDOF 5
ENDMDL
MODEL 4
REMARK VINA RESULT:      -7.1      4.953      6.263
REMARK  Name = 
REMARK  7 active torsions:
REMARK  status: ('A' for Active; 'I' for Inactive)
REMARK    1  A    between atoms: C_1  and  C_2
REMARK    2  A    between atoms: C_2  and  C_3
REMARK    3  A    between atoms: C_2  and  C_4
REMARK    4  A    between atoms: C_2  and  C_17
REMARK    5  A    between atoms: C_9  and  C_10
REMARK    6  A    between atoms: C_10  and  S_11
REMARK    7  A    between atoms: S_11  and  N_12
REMARK                            x       y       z     vdW  Elec       q    Type
REMARK                         _______ _______ _______ _____ _____    ______ ____
ROOT
ATOM      1  C   UNL     1       2.130   5.821  19.901  0.00  0.00    +0.000 C 
ATOM      2  O   UNL     1       1.711   5.575  21.042  0.00  0.00    +0.000 OA
ATOM      3  N   UNL     1       2.232   7.146  19.475  0.00  0.00    +0.000 N 
ATOM      4  C   UNL     1       1.911   8.204  20.435  0.00  0.00    +0.000 C 
ATOM      5  C   UNL     1       0.758   9.069  19.922  0.00  0.00    +0.000 C 
ATOM      6  C   UNL     1       1.062   9.657  18.528  0.00  0.00    +0.000 C 
ATOM      7  C   UNL     1       1.371   8.481  17.587  0.00  0.00    +0.000 C 
ATOM      8  C   UNL     1       2.512   7.606  18.110  0.00  0.00    +0.000 C 
ENDROOT
BRANCH   1  10
ATOM      9  C   UNL     1       2.226   3.323  19.702  0.00  0.00    +0.000 C 
ATOM     10  C   UNL     1       2.606   4.649  18.985  0.00  0.00    +0.000 C 
ATOM     11  C   UNL     1       1.760   4.697  17.686  0.00  0.00    +0.000 C 
BRANCH  10  12
ATOM     12  C   UNL     1       4.086   4.743  18.563  0.00  0.00    +0.000 A 
ATOM     13  C   UNL     1       5.063   5.303  19.412  0.00  0.00    +0.000 A 
ATOM     14  C   UNL     1       6.395   5.444  19.004  0.00  0.00    +0.000 A 
ATOM     15  C   UNL     1       6.792   5.010  17.746  0.00  0.00    +0.000 A 
ATOM     16  C   UNL     1       5.861   4.409  16.906  0.00  0.00    +0.000 A 
ATOM     17  C   UNL     1       4.535   4.265  17.321  0.00  0.00    +0.000 A 
ATOM     18  F   UNL     1       3.686   3.676  16.467  0.00  0.00    +0.000 F 
ENDBRANCH  10  12
ENDBRANCH   1  10
BRANCH   6  19
ATOM     19  C   UNL     1       2.190  10.694  18.611  0.00  0.00    +0.000 C 
BRANCH  19  20
ATOM     20  S   UNL     1       1.634  12.386  18.779  0.00  0.00    +0.000 S 
ATOM     21  O   UNL     1       0.230  12.476  18.511  0.00  0.00    +0.000 OA
ATOM     22  O   UNL     1       2.264  12.979  19.940  0.00  0.00    +0.000 OA
BRANCH  20  23
ATOM     23  N   UNL     1       2.402  13.030  17.448  0.00  0.00    +0.000 NA
ATOM     24  H   UNL     1       1.885  13.022  16.574  0.00  0.00    +0.000 HD
ATOM     25  H   UNL     1       3.166  13.681  17.612  0.00  0.00    +0.000 HD
ENDBRANCH  20  23
ENDBRANCH  19  20
ENDBRANCH   6  19
TORSDOF 5
ENDMDL
MODEL 5
REMARK VINA RESULT:      -7.1      3.478      6.383
REMARK  Name = 
REMARK  7 active torsions:
REMARK  status: ('A' for Active; 'I' for Inactive)
REMARK    1  A    between atoms: C_1  and  C_2
REMARK    2  A    between atoms: C_2  and  C_3
REMARK    3  A    between atoms: C_2  and  C_4
REMARK    4  A    between atoms: C_2  and  C_17
REMARK    5  A    between atoms: C_9  and  C_10
REMARK    6  A    between atoms: C_10  and  S_11
REMARK    7  A    between atoms: S_11  and  N_12
REMARK                            x       y       z     vdW  Elec       q    Type
REMARK                         _______ _______ _______ _____ _____    ______ ____
ROOT
ATOM      1  C   UNL     1       4.805   4.514  18.584  0.00  0.00    +0.000 C 
ATOM      2  O   UNL     1       5.624   4.727  19.489  0.00  0.00    +0.000 OA
ATOM      3  N   UNL     1       5.259   4.243  17.292  0.00  0.00    +0.000 N 
ATOM      4  C   UNL     1       6.704   4.142  17.078  0.00  0.00    +0.000 C 
ATOM      5  C   UNL     1       7.174   5.183  16.059  0.00  0.00    +0.000 C 
ATOM      6  C   UNL     1       6.406   5.065  14.727  0.00  0.00    +0.000 C 
ATOM      7  C   UNL     1       4.906   5.196  15.044  0.00  0.00    +0.000 C 
ATOM      8  C   UNL     1       4.442   4.167  16.076  0.00  0.00    +0.000 C 
ENDROOT
BRANCH   1  10
ATOM      9  C   UNL     1       2.566   3.782  17.726  0.00  0.00    +0.000 C 
ATOM     10  C   UNL     1       3.279   4.479  18.917  0.00  0.00    +0.000 C 
ATOM     11  C   UNL     1       3.089   3.547  20.142  0.00  0.00    +0.000 C 
BRANCH  10  12
ATOM     12  C   UNL     1       2.688   5.851  19.300  0.00  0.00    +0.000 A 
ATOM     13  C   UNL     1       2.014   6.051  20.522  0.00  0.00    +0.000 A 
ATOM     14  C   UNL     1       1.425   7.280  20.842  0.00  0.00    +0.000 A 
ATOM     15  C   UNL     1       1.512   8.349  19.960  0.00  0.00    +0.000 A 
ATOM     16  C   UNL     1       2.213   8.196  18.769  0.00  0.00    +0.000 A 
ATOM     17  C   UNL     1       2.805   6.970  18.458  0.00  0.00    +0.000 A 
ATOM     18  F   UNL     1       3.468   6.885  17.297  0.00  0.00    +0.000 F 
ENDBRANCH  10  12
ENDBRANCH   1  10
BRANCH   6  19
ATOM     19  C   UNL     1       6.772   3.762  14.003  0.00  0.00    +0.000 C 
BRANCH  19  20
ATOM     20  S   UNL     1       6.405   3.756  12.252  0.00  0.00    +0.000 S 
ATOM     21  O   UNL     1       4.997   3.595  12.041  0.00  0.00    +0.000 OA
ATOM     22  O   UNL     1       7.199   4.774  11.598  0.00  0.00    +0.000 OA
BRANCH  20  23
ATOM     23  N   UNL     1       7.102   2.294  11.861  0.00  0.00    +0.000 NA
ATOM     24  H   UNL     1       6.785   1.482  12.383  0.00  0.00    +0.000 HD
ATOM     25  H   UNL     1       7.532   2.205  10.944  0.00  0.00    +0.000 HD
ENDBRANCH  20  23
ENDBRANCH  19  20
ENDBRANCH   6  19
TORSDOF 5
ENDMDL
MODEL 6
REMARK VINA RESULT:      -7.0      1.127      1.184
REMARK  Name = 
REMARK  7 active torsions:
REMARK  status: ('A' for Active; 'I' for Inactive)
REMARK    1  A    between atoms: C_1  and  C_2
REMARK    2  A    between atoms: C_2  and  C_3
REMARK    3  A    between atoms: C_2  and  C_4
REMARK    4  A    between atoms: C_2  and  C_17
REMARK    5  A    between atoms: C_9  and  C_10
REMARK    6  A    between atoms: C_10  and  S_11
REMARK    7  A    between atoms: S_11  and  N_12
REMARK                            x       y       z     vdW  Elec       q    Type
REMARK                         _______ _______ _______ _____ _____    ______ ____
ROOT
ATOM      1  C   UNL     1       5.637   3.990  15.935  0.00  0.00    +0.000 C 
ATOM      2  O   UNL     1       5.889   3.045  15.173  0.00  0.00    +0.000 OA
ATOM      3  N   UNL     1       4.882   3.765  17.087  0.00  0.00    +0.000 N 
ATOM      4  C   UNL     1       4.483   2.389  17.391  0.00  0.00    +0.000 C 
ATOM      5  C   UNL     1       2.959   2.268  17.451  0.00  0.00    +0.000 C 
ATOM      6  C   UNL     1       2.347   3.259  18.462  0.00  0.00    +0.000 C 
ATOM      7  C   UNL     1       2.804   4.672  18.060  0.00  0.00    +0.000 C 
ATOM      8  C   UNL     1       4.327   4.787  17.982  0.00  0.00    +0.000 C 
ENDROOT
BRANCH   1  10
ATOM      9  C   UNL     1       7.108   5.268  14.358  0.00  0.00    +0.000 C 
ATOM     10  C   UNL     1       6.230   5.403  15.633  0.00  0.00    +0.000 C 
ATOM     11  C   UNL     1       5.050   6.333  15.250  0.00  0.00    +0.000 C 
BRANCH  10  12
ATOM     12  C   UNL     1       6.945   6.054  16.834  0.00  0.00    +0.000 A 
ATOM     13  C   UNL     1       6.941   7.451  17.029  0.00  0.00    +0.000 A 
ATOM     14  C   UNL     1       7.641   8.046  18.084  0.00  0.00    +0.000 A 
ATOM     15  C   UNL     1       8.348   7.262  18.986  0.00  0.00    +0.000 A 
ATOM     16  C   UNL     1       8.330   5.878  18.848  0.00  0.00    +0.000 A 
ATOM     17  C   UNL     1       7.624   5.289  17.797  0.00  0.00    +0.000 A 
ATOM     18  F   UNL     1       7.643   3.952  17.718  0.00  0.00    +0.000 F 
ENDBRANCH  10  12
ENDBRANCH   1  10
BRANCH   6  19
ATOM     19  C   UNL     1       2.727   2.873  19.897  0.00  0.00    +0.000 C 
BRANCH  19  20
ATOM     20  S   UNL     1       1.687   3.594  21.162  0.00  0.00    +0.000 S 
ATOM     21  O   UNL     1       1.484   2.661  22.229  0.00  0.00    +0.000 OA
ATOM     22  O   UNL     1       2.081   4.972  21.370  0.00  0.00    +0.000 OA
BRANCH  20  23
ATOM     23  N   UNL     1       0.258   3.640  20.307  0.00  0.00    +0.000 NA
ATOM     24  H   UNL     1       0.035   2.824  19.745  0.00  0.00    +0.000 HD
ATOM     25  H   UNL     1      -0.463   4.284  20.624  0.00  0.00    +0.000 HD
ENDBRANCH  20  23
ENDBRANCH  19  20
ENDBRANCH   6  19
TORSDOF 5
ENDMDL
MODEL 7
REMARK VINA RESULT:      -7.0      5.208      7.334
REMARK  Name = 
REMARK  7 active torsions:
REMARK  status: ('A' for Active; 'I' for Inactive)
REMARK    1  A    between atoms: C_1  and  C_2
REMARK    2  A    between atoms: C_2  and  C_3
REMARK    3  A    between atoms: C_2  and  C_4
REMARK    4  A    between atoms: C_2  and  C_17
REMARK    5  A    between atoms: C_9  and  C_10
REMARK    6  A    between atoms: C_10  and  S_11
REMARK    7  A    between atoms: S_11  and  N_12
REMARK                            x       y       z     vdW  Elec       q    Type
REMARK                         _______ _______ _______ _____ _____    ______ ____
ROOT
ATOM      1  C   UNL     1       1.687   9.078  18.434  0.00  0.00    +0.000 C 
ATOM      2  O   UNL     1       1.924   9.405  17.262  0.00  0.00    +0.000 OA
ATOM      3  N   UNL     1       2.229   7.897  18.944  0.00  0.00    +0.000 N 
ATOM      4  C   UNL     1       3.132   7.127  18.085  0.00  0.00    +0.000 C 
ATOM      5  C   UNL     1       2.584   5.718  17.850  0.00  0.00    +0.000 C 
ATOM      6  C   UNL     1       2.317   4.980  19.178  0.00  0.00    +0.000 C 
ATOM      7  C   UNL     1       1.354   5.848  20.005  0.00  0.00    +0.000 C 
ATOM      8  C   UNL     1       1.895   7.263  20.224  0.00  0.00    +0.000 C 
ENDROOT
BRANCH   1  10
ATOM      9  C   UNL     1       0.848   9.415  20.773  0.00  0.00    +0.000 C 
ATOM     10  C   UNL     1       0.846  10.028  19.345  0.00  0.00    +0.000 C 
ATOM     11  C   UNL     1       1.609  11.374  19.449  0.00  0.00    +0.000 C 
BRANCH  10  12
ATOM     12  C   UNL     1      -0.558  10.348  18.791  0.00  0.00    +0.000 A 
ATOM     13  C   UNL     1      -1.055   9.723  17.629  0.00  0.00    +0.000 A 
ATOM     14  C   UNL     1      -2.304  10.058  17.093  0.00  0.00    +0.000 A 
ATOM     15  C   UNL     1      -3.099  11.012  17.714  0.00  0.00    +0.000 A 
ATOM     16  C   UNL     1      -2.657  11.609  18.889  0.00  0.00    +0.000 A 
ATOM     17  C   UNL     1      -1.413  11.266  19.423  0.00  0.00    +0.000 A 
ATOM     18  F   UNL     1      -1.044  11.875  20.558  0.00  0.00    +0.000 F 
ENDBRANCH  10  12
ENDBRANCH   1  10
BRANCH   6  19
ATOM     19  C   UNL     1       3.636   4.665  19.897  0.00  0.00    +0.000 C 
BRANCH  19  20
ATOM     20  S   UNL     1       4.443   3.167  19.345  0.00  0.00    +0.000 S 
ATOM     21  O   UNL     1       4.817   2.362  20.469  0.00  0.00    +0.000 OA
ATOM     22  O   UNL     1       3.741   2.647  18.190  0.00  0.00    +0.000 OA
BRANCH  20  23
ATOM     23  N   UNL     1       5.852   3.844  18.770  0.00  0.00    +0.000 NA
ATOM     24  H   UNL     1       5.984   3.839  17.763  0.00  0.00    +0.000 HD
ATOM     25  H   UNL     1       6.338   4.507  19.369  0.00  0.00    +0.000 HD
ENDBRANCH  20  23
ENDBRANCH  19  20
ENDBRANCH   6  19
TORSDOF 5
ENDMDL
MODEL 8
REMARK VINA RESULT:      -7.0      5.027      6.078
REMARK  Name = 
REMARK  7 active torsions:
REMARK  status: ('A' for Active; 'I' for Inactive)
REMARK    1  A    between atoms: C_1  and  C_2
REMARK    2  A    between atoms: C_2  and  C_3
REMARK    3  A    between atoms: C_2  and  C_4
REMARK    4  A    between atoms: C_2  and  C_17
REMARK    5  A    between atoms: C_9  and  C_10
REMARK    6  A    between atoms: C_10  and  S_11
REMARK    7  A    between atoms: S_11  and  N_12
REMARK                            x       y       z     vdW  Elec       q    Type
REMARK                         _______ _______ _______ _____ _____    ______ ____
ROOT
ATOM      1  C   UNL     1       2.355   5.952  19.719  0.00  0.00    +0.000 C 
ATOM      2  O   UNL     1       1.984   5.573  20.840  0.00  0.00    +0.000 OA
ATOM      3  N   UNL     1       2.308   7.310  19.399  0.00  0.00    +0.000 N 
ATOM      4  C   UNL     1       1.892   8.249  20.444  0.00  0.00    +0.000 C 
ATOM      5  C   UNL     1       0.645   9.022  20.012  0.00  0.00    +0.000 C 
ATOM      6  C   UNL     1       0.860   9.748  18.668  0.00  0.00    +0.000 C 
ATOM      7  C   UNL     1       1.276   8.689  17.632  0.00  0.00    +0.000 C 
ATOM      8  C   UNL     1       2.513   7.904  18.074  0.00  0.00    +0.000 C 
ENDROOT
BRANCH   1  10
ATOM      9  C   UNL     1       3.061   3.560  19.460  0.00  0.00    +0.000 C 
ATOM     10  C   UNL     1       2.937   4.914  18.708  0.00  0.00    +0.000 C 
ATOM     11  C   UNL     1       1.876   4.697  17.597  0.00  0.00    +0.000 C 
BRANCH  10  12
ATOM     12  C   UNL     1       4.232   5.376  18.009  0.00  0.00    +0.000 A 
ATOM     13  C   UNL     1       4.277   5.618  16.620  0.00  0.00    +0.000 A 
ATOM     14  C   UNL     1       5.467   5.978  15.977  0.00  0.00    +0.000 A 
ATOM     15  C   UNL     1       6.639   6.128  16.706  0.00  0.00    +0.000 A 
ATOM     16  C   UNL     1       6.614   5.945  18.084  0.00  0.00    +0.000 A 
ATOM     17  C   UNL     1       5.423   5.592  18.721  0.00  0.00    +0.000 A 
ATOM     18  F   UNL     1       5.463   5.431  20.051  0.00  0.00    +0.000 F 
ENDBRANCH  10  12
ENDBRANCH   1  10
BRANCH   6  19
ATOM     19  C   UNL     1       1.872  10.890  18.824  0.00  0.00    +0.000 C 
BRANCH  19  20
ATOM     20  S   UNL     1       1.157  12.455  19.313  0.00  0.00    +0.000 S 
ATOM     21  O   UNL     1       1.895  13.539  18.738  0.00  0.00    +0.000 OA
ATOM     22  O   UNL     1      -0.286  12.354  19.258  0.00  0.00    +0.000 OA
BRANCH  20  23
ATOM     23  N   UNL     1       1.568  12.419  20.927  0.00  0.00    +0.000 NA
ATOM     24  H   UNL     1       0.801  12.434  21.594  0.00  0.00    +0.000 HD
ATOM     25  H   UNL     1       2.485  12.056  21.175  0.00  0.00    +0.000 HD
ENDBRANCH  20  23
ENDBRANCH  19  20
ENDBRANCH   6  19
TORSDOF 5
ENDMDL
MODEL 9
REMARK VINA RESULT:      -6.9      9.515     10.558
REMARK  Name = 
REMARK  7 active torsions:
REMARK  status: ('A' for Active; 'I' for Inactive)
REMARK    1  A    between atoms: C_1  and  C_2
REMARK    2  A    between atoms: C_2  and  C_3
REMARK    3  A    between atoms: C_2  and  C_4
REMARK    4  A    between atoms: C_2  and  C_17
REMARK    5  A    between atoms: C_9  and  C_10
REMARK    6  A    between atoms: C_10  and  S_11
REMARK    7  A    between atoms: S_11  and  N_12
REMARK                            x       y       z     vdW  Elec       q    Type
REMARK                         _______ _______ _______ _____ _____    ______ ____
ROOT
ATOM      1  C   UNL     1       8.733  15.289  20.223  0.00  0.00    +0.000 C 
ATOM      2  O   UNL     1       8.771  16.466  20.610  0.00  0.00    +0.000 OA
ATOM      3  N   UNL     1       8.177  14.309  21.047  0.00  0.00    +0.000 N 
ATOM      4  C   UNL     1       7.583  14.734  22.317  0.00  0.00    +0.000 C 
ATOM      5  C   UNL     1       8.283  14.056  23.496  0.00  0.00    +0.000 C 
ATOM      6  C   UNL     1       8.267  12.519  23.362  0.00  0.00    +0.000 C 
ATOM      7  C   UNL     1       8.920  12.165  22.016  0.00  0.00    +0.000 C 
ATOM      8  C   UNL     1       8.230  12.858  20.839  0.00  0.00    +0.000 C 
ENDROOT
BRANCH   1  10
ATOM      9  C   UNL     1       7.986  14.703  17.903  0.00  0.00    +0.000 C 
ATOM     10  C   UNL     1       9.241  14.932  18.790  0.00  0.00    +0.000 C 
ATOM     11  C   UNL     1       9.952  16.186  18.219  0.00  0.00    +0.000 C 
BRANCH  10  12
ATOM     12  C   UNL     1      10.265  13.779  18.756  0.00  0.00    +0.000 A 
ATOM     13  C   UNL     1      10.133  12.699  17.858  0.00  0.00    +0.000 A 
ATOM     14  C   UNL     1      11.028  11.623  17.869  0.00  0.00    +0.000 A 
ATOM     15  C   UNL     1      12.091  11.606  18.762  0.00  0.00    +0.000 A 
ATOM     16  C   UNL     1      12.276  12.680  19.625  0.00  0.00    +0.000 A 
ATOM     17  C   UNL     1      11.383  13.754  19.605  0.00  0.00    +0.000 A 
ATOM     18  F   UNL     1      11.615  14.760  20.459  0.00  0.00    +0.000 F 
ENDBRANCH  10  12
ENDBRANCH   1  10
BRANCH   6  19
ATOM     19  C   UNL     1       6.841  11.976  23.519  0.00  0.00    +0.000 C 
BRANCH  19  20
ATOM     20  S   UNL     1       6.170  12.112  25.172  0.00  0.00    +0.000 S 
ATOM     21  O   UNL     1       7.206  11.927  26.144  0.00  0.00    +0.000 OA
ATOM     22  O   UNL     1       5.225  13.208  25.211  0.00  0.00    +0.000 OA
BRANCH  20  23
ATOM     23  N   UNL     1       5.266  10.713  25.186  0.00  0.00    +0.000 NA
ATOM     24  H   UNL     1       5.776   9.840  25.287  0.00  0.00    +0.000 HD
ATOM     25  H   UNL     1       4.282  10.788  25.428  0.00  0.00    +0.000 HD
ENDBRANCH  20  23
ENDBRANCH  19  20
ENDBRANCH   6  19
TORSDOF 5
ENDMDL
