MODEL 1
REMARK VINA RESULT:      -9.8      0.000      0.000
REMARK  Name = 
REMARK  5 active torsions:
REMARK  status: ('A' for Active; 'I' for Inactive)
REMARK    1  A    between atoms: C_2  and  C_3
REMARK    2  A    between atoms: N_18  and  C_19
REMARK    3  A    between atoms: C_19  and  C_20
REMARK    4  A    between atoms: C_20  and  O_21
REMARK    5  A    between atoms: O_21  and  C_22
REMARK                            x       y       z     vdW  Elec       q    Type
REMARK                         _______ _______ _______ _____ _____    ______ ____
ROOT
ATOM      1  C   UNL     1       0.851   4.272  20.072  0.00  0.00    +0.000 C 
ATOM      2  C   UNL     1       1.926   5.079  20.066  0.00  0.00    +0.000 C 
ATOM      3  C   UNL     1       3.311   4.495  20.276  0.00  0.00    +0.000 C 
ATOM      4  C   UNL     1       3.343   2.930  20.313  0.00  0.00    +0.000 C 
ATOM      5  C   UNL     1       2.976   2.393  21.702  0.00  0.00    +0.000 C 
ATOM      6  C   UNL     1       1.461   2.600  21.779  0.00  0.00    +0.000 C 
ATOM      7  C   UNL     1       1.045   2.793  20.297  0.00  0.00    +0.000 C 
ATOM      8  N   UNL     1       2.242   2.276  19.587  0.00  0.00    +0.000 NA
ENDROOT
BRANCH   2   9
ATOM      9  C   UNL     1       1.800   6.487  19.681  0.00  0.00    +0.000 A 
ATOM     10  C   UNL     1       2.199   6.965  18.431  0.00  0.00    +0.000 A 
ATOM     11  C   UNL     1       2.097   8.334  18.135  0.00  0.00    +0.000 A 
ATOM     12  C   UNL     1       1.603   9.240  19.094  0.00  0.00    +0.000 A 
ATOM     13  C   UNL     1       1.502  10.616  18.833  0.00  0.00    +0.000 A 
ATOM     14  C   UNL     1       1.019  11.491  19.810  0.00  0.00    +0.000 A 
ATOM     15  C   UNL     1       0.625  11.004  21.054  0.00  0.00    +0.000 A 
ATOM     16  C   UNL     1       0.717   9.642  21.326  0.00  0.00    +0.000 A 
ATOM     17  C   UNL     1       1.205   8.753  20.359  0.00  0.00    +0.000 A 
ATOM     18  C   UNL     1       1.309   7.382  20.635  0.00  0.00    +0.000 A 
ENDBRANCH   2   9
BRANCH   8  19
ATOM     19  C   UNL     1       2.260   2.331  18.114  0.00  0.00    +0.000 C 
BRANCH  19  20
ATOM     20  C   UNL     1       3.663   2.678  17.503  0.00  0.00    +0.000 C 
BRANCH  20  21
ATOM     21  O   UNL     1       3.685   3.984  16.884  0.00  0.00    +0.000 OA
BRANCH  21  22
ATOM     22  C   UNL     1       4.873   4.705  16.919  0.00  0.00    +0.000 A 
ATOM     23  C   UNL     1       5.308   5.439  18.029  0.00  0.00    +0.000 A 
ATOM     24  C   UNL     1       6.515   6.144  17.986  0.00  0.00    +0.000 A 
ATOM     25  C   UNL     1       7.301   6.125  16.835  0.00  0.00    +0.000 A 
ATOM     26  C   UNL     1       6.913   5.415  15.716  0.00  0.00    +0.000 A 
ATOM     27  N   UNL     1       7.735   5.457  14.651  0.00  0.00    +0.000 NA
ATOM     28  C   UNL     1       7.376   4.772  13.552  0.00  0.00    +0.000 A 
ATOM     29  C   UNL     1       6.217   4.035  13.456  0.00  0.00    +0.000 A 
ATOM     30  C   UNL     1       5.370   3.999  14.565  0.00  0.00    +0.000 A 
ATOM     31  C   UNL     1       5.690   4.696  15.747  0.00  0.00    +0.000 A 
ENDBRANCH  21  22
ENDBRANCH  20  21
ENDBRANCH  19  20
ENDBRANCH   8  19
TORSDOF 5
ENDMDL
MODEL 2
REMARK VINA RESULT:      -9.5      0.574      1.896
REMARK  Name = 
REMARK  5 active torsions:
REMARK  status: ('A' for Active; 'I' for Inactive)
REMARK    1  A    between atoms: C_2  and  C_3
REMARK    2  A    between atoms: N_18  and  C_19
REMARK    3  A    between atoms: C_19  and  C_20
REMARK    4  A    between atoms: C_20  and  O_21
REMARK    5  A    between atoms: O_21  and  C_22
REMARK                            x       y       z     vdW  Elec       q    Type
REMARK                         _______ _______ _______ _____ _____    ______ ____
ROOT
ATOM      1  C   UNL     1       0.909   4.238  19.935  0.00  0.00    +0.000 C 
ATOM      2  C   UNL     1       1.987   5.042  19.926  0.00  0.00    +0.000 C 
ATOM      3  C   UNL     1       3.366   4.461  20.180  0.00  0.00    +0.000 C 
ATOM      4  C   UNL     1       3.393   2.897  20.263  0.00  0.00    +0.000 C 
ATOM      5  C   UNL     1       2.997   2.402  21.660  0.00  0.00    +0.000 C 
ATOM      6  C   UNL     1       1.481   2.615  21.702  0.00  0.00    +0.000 C 
ATOM      7  C   UNL     1       1.095   2.765  20.207  0.00  0.00    +0.000 C 
ATOM      8  N   UNL     1       2.303   2.224  19.535  0.00  0.00    +0.000 NA
ENDROOT
BRANCH   2   9
ATOM      9  C   UNL     1       1.873   6.437  19.498  0.00  0.00    +0.000 A 
ATOM     10  C   UNL     1       2.264   6.871  18.229  0.00  0.00    +0.000 A 
ATOM     11  C   UNL     1       2.174   8.231  17.891  0.00  0.00    +0.000 A 
ATOM     12  C   UNL     1       1.701   9.173  18.825  0.00  0.00    +0.000 A 
ATOM     13  C   UNL     1       1.612  10.541  18.522  0.00  0.00    +0.000 A 
ATOM     14  C   UNL     1       1.150  11.452  19.475  0.00  0.00    +0.000 A 
ATOM     15  C   UNL     1       0.763  11.010  20.738  0.00  0.00    +0.000 A 
ATOM     16  C   UNL     1       0.843   9.656  21.052  0.00  0.00    +0.000 A 
ATOM     17  C   UNL     1       1.310   8.731  20.109  0.00  0.00    +0.000 A 
ATOM     18  C   UNL     1       1.402   7.368  20.428  0.00  0.00    +0.000 A 
ENDBRANCH   2   9
BRANCH   8  19
ATOM     19  C   UNL     1       2.351   2.237  18.062  0.00  0.00    +0.000 C 
BRANCH  19  20
ATOM     20  C   UNL     1       3.753   2.613  17.469  0.00  0.00    +0.000 C 
BRANCH  20  21
ATOM     21  O   UNL     1       3.716   3.841  16.708  0.00  0.00    +0.000 OA
BRANCH  21  22
ATOM     22  C   UNL     1       4.840   4.185  15.965  0.00  0.00    +0.000 A 
ATOM     23  C   UNL     1       5.153   3.626  14.720  0.00  0.00    +0.000 A 
ATOM     24  C   UNL     1       6.306   4.020  14.034  0.00  0.00    +0.000 A 
ATOM     25  C   UNL     1       7.159   4.977  14.582  0.00  0.00    +0.000 A 
ATOM     26  C   UNL     1       6.891   5.556  15.807  0.00  0.00    +0.000 A 
ATOM     27  N   UNL     1       7.773   6.467  16.257  0.00  0.00    +0.000 NA
ATOM     28  C   UNL     1       7.531   7.044  17.446  0.00  0.00    +0.000 A 
ATOM     29  C   UNL     1       6.435   6.752  18.227  0.00  0.00    +0.000 A 
ATOM     30  C   UNL     1       5.527   5.804  17.753  0.00  0.00    +0.000 A 
ATOM     31  C   UNL     1       5.725   5.164  16.513  0.00  0.00    +0.000 A 
ENDBRANCH  21  22
ENDBRANCH  20  21
ENDBRANCH  19  20
ENDBRANCH   8  19
TORSDOF 5
ENDMDL
MODEL 3
REMARK VINA RESULT:      -9.5      0.576      1.406
REMARK  Name = 
REMARK  5 active torsions:
REMARK  status: ('A' for Active; 'I' for Inactive)
REMARK    1  A    between atoms: C_2  and  C_3
REMARK    2  A    between atoms: N_18  and  C_19
REMARK    3  A    between atoms: C_19  and  C_20
REMARK    4  A    between atoms: C_20  and  O_21
REMARK    5  A    between atoms: O_21  and  C_22
REMARK                            x       y       z     vdW  Elec       q    Type
REMARK                         _______ _______ _______ _____ _____    ______ ____
ROOT
ATOM      1  C   UNL     1       0.704   4.402  20.504  0.00  0.00    +0.000 C 
ATOM      2  C   UNL     1       1.751   5.246  20.542  0.00  0.00    +0.000 C 
ATOM      3  C   UNL     1       3.165   4.699  20.489  0.00  0.00    +0.000 C 
ATOM      4  C   UNL     1       3.243   3.159  20.219  0.00  0.00    +0.000 C 
ATOM      5  C   UNL     1       3.047   2.352  21.510  0.00  0.00    +0.000 C 
ATOM      6  C   UNL     1       1.545   2.468  21.783  0.00  0.00    +0.000 C 
ATOM      7  C   UNL     1       0.962   2.917  20.418  0.00  0.00    +0.000 C 
ATOM      8  N   UNL     1       2.085   2.601  19.500  0.00  0.00    +0.000 NA
ENDROOT
BRANCH   2   9
ATOM      9  C   UNL     1       1.545   6.693  20.451  0.00  0.00    +0.000 A 
ATOM     10  C   UNL     1       0.879   7.423  21.438  0.00  0.00    +0.000 A 
ATOM     11  C   UNL     1       0.670   8.802  21.275  0.00  0.00    +0.000 A 
ATOM     12  C   UNL     1       1.118   9.463  20.115  0.00  0.00    +0.000 A 
ATOM     13  C   UNL     1       0.913  10.837  19.915  0.00  0.00    +0.000 A 
ATOM     14  C   UNL     1       1.359  11.461  18.748  0.00  0.00    +0.000 A 
ATOM     15  C   UNL     1       2.022  10.724  17.769  0.00  0.00    +0.000 A 
ATOM     16  C   UNL     1       2.235   9.361  17.953  0.00  0.00    +0.000 A 
ATOM     17  C   UNL     1       1.788   8.720  19.116  0.00  0.00    +0.000 A 
ATOM     18  C   UNL     1       1.992   7.344  19.299  0.00  0.00    +0.000 A 
ENDBRANCH   2   9
BRANCH   8  19
ATOM     19  C   UNL     1       1.938   2.935  18.072  0.00  0.00    +0.000 C 
BRANCH  19  20
ATOM     20  C   UNL     1       3.297   3.115  17.312  0.00  0.00    +0.000 C 
BRANCH  20  21
ATOM     21  O   UNL     1       3.443   4.439  16.751  0.00  0.00    +0.000 OA
BRANCH  21  22
ATOM     22  C   UNL     1       4.686   5.054  16.836  0.00  0.00    +0.000 A 
ATOM     23  C   UNL     1       5.111   5.804  17.940  0.00  0.00    +0.000 A 
ATOM     24  C   UNL     1       6.378   6.398  17.950  0.00  0.00    +0.000 A 
ATOM     25  C   UNL     1       7.233   6.251  16.859  0.00  0.00    +0.000 A 
ATOM     26  C   UNL     1       6.857   5.521  15.749  0.00  0.00    +0.000 A 
ATOM     27  N   UNL     1       7.748   5.436  14.744  0.00  0.00    +0.000 NA
ATOM     28  C   UNL     1       7.403   4.729  13.655  0.00  0.00    +0.000 A 
ATOM     29  C   UNL     1       6.190   4.092  13.511  0.00  0.00    +0.000 A 
ATOM     30  C   UNL     1       5.272   4.187  14.558  0.00  0.00    +0.000 A 
ATOM     31  C   UNL     1       5.575   4.914  15.726  0.00  0.00    +0.000 A 
ENDBRANCH  21  22
ENDBRANCH  20  21
ENDBRANCH  19  20
ENDBRANCH   8  19
TORSDOF 5
ENDMDL
MODEL 4
REMARK VINA RESULT:      -9.4      2.337      7.989
REMARK  Name = 
REMARK  5 active torsions:
REMARK  status: ('A' for Active; 'I' for Inactive)
REMARK    1  A    between atoms: C_2  and  C_3
REMARK    2  A    between atoms: N_18  and  C_19
REMARK    3  A    between atoms: C_19  and  C_20
REMARK    4  A    between atoms: C_20  and  O_21
REMARK    5  A    between atoms: O_21  and  C_22
REMARK                            x       y       z     vdW  Elec       q    Type
REMARK                         _______ _______ _______ _____ _____    ______ ____
ROOT
ATOM      1  C   UNL     1       4.174   3.144  18.796  0.00  0.00    +0.000 C 
ATOM      2  C   UNL     1       3.863   3.753  17.638  0.00  0.00    +0.000 C 
ATOM      3  C   UNL     1       2.436   4.197  17.377  0.00  0.00    +0.000 C 
ATOM      4  C   UNL     1       1.483   4.035  18.609  0.00  0.00    +0.000 C 
ATOM      5  C   UNL     1       0.948   2.601  18.721  0.00  0.00    +0.000 C 
ATOM      6  C   UNL     1       2.149   1.809  19.245  0.00  0.00    +0.000 C 
ATOM      7  C   UNL     1       3.086   2.906  19.815  0.00  0.00    +0.000 C 
ATOM      8  N   UNL     1       2.159   4.061  19.917  0.00  0.00    +0.000 NA
ENDROOT
BRANCH   2   9
ATOM      9  C   UNL     1       4.914   4.155  16.701  0.00  0.00    +0.000 A 
ATOM     10  C   UNL     1       5.935   5.043  17.050  0.00  0.00    +0.000 A 
ATOM     11  C   UNL     1       6.889   5.429  16.095  0.00  0.00    +0.000 A 
ATOM     12  C   UNL     1       6.826   4.936  14.777  0.00  0.00    +0.000 A 
ATOM     13  C   UNL     1       7.757   5.313  13.797  0.00  0.00    +0.000 A 
ATOM     14  C   UNL     1       7.660   4.816  12.495  0.00  0.00    +0.000 A 
ATOM     15  C   UNL     1       6.638   3.930  12.157  0.00  0.00    +0.000 A 
ATOM     16  C   UNL     1       5.709   3.546  13.119  0.00  0.00    +0.000 A 
ATOM     17  C   UNL     1       5.790   4.041  14.428  0.00  0.00    +0.000 A 
ATOM     18  C   UNL     1       4.848   3.663  15.396  0.00  0.00    +0.000 A 
ENDBRANCH   2   9
BRANCH   8  19
ATOM     19  C   UNL     1       2.696   5.351  20.387  0.00  0.00    +0.000 C 
BRANCH  19  20
ATOM     20  C   UNL     1       2.153   6.596  19.604  0.00  0.00    +0.000 C 
BRANCH  20  21
ATOM     21  O   UNL     1       2.144   7.794  20.412  0.00  0.00    +0.000 OA
BRANCH  21  22
ATOM     22  C   UNL     1       1.306   8.835  20.032  0.00  0.00    +0.000 A 
ATOM     23  C   UNL     1       1.186   9.298  18.716  0.00  0.00    +0.000 A 
ATOM     24  C   UNL     1       0.323  10.356  18.411  0.00  0.00    +0.000 A 
ATOM     25  C   UNL     1      -0.429  10.963  19.416  0.00  0.00    +0.000 A 
ATOM     26  C   UNL     1      -0.344  10.539  20.727  0.00  0.00    +0.000 A 
ATOM     27  N   UNL     1      -1.106  11.187  21.628  0.00  0.00    +0.000 NA
ATOM     28  C   UNL     1      -1.039  10.790  22.910  0.00  0.00    +0.000 A 
ATOM     29  C   UNL     1      -0.234   9.763  23.351  0.00  0.00    +0.000 A 
ATOM     30  C   UNL     1       0.554   9.099  22.409  0.00  0.00    +0.000 A 
ATOM     31  C   UNL     1       0.528   9.468  21.050  0.00  0.00    +0.000 A 
ENDBRANCH  21  22
ENDBRANCH  20  21
ENDBRANCH  19  20
ENDBRANCH   8  19
TORSDOF 5
ENDMDL
MODEL 5
REMARK VINA RESULT:      -9.1      2.532      8.151
REMARK  Name = 
REMARK  5 active torsions:
REMARK  status: ('A' for Active; 'I' for Inactive)
REMARK    1  A    between atoms: C_2  and  C_3
REMARK    2  A    between atoms: N_18  and  C_19
REMARK    3  A    between atoms: C_19  and  C_20
REMARK    4  A    between atoms: C_20  and  O_21
REMARK    5  A    between atoms: O_21  and  C_22
REMARK                            x       y       z     vdW  Elec       q    Type
REMARK                         _______ _______ _______ _____ _____    ______ ____
ROOT
ATOM      1  C   UNL     1       4.432   4.254  18.895  0.00  0.00    +0.000 C 
ATOM      2  C   UNL     1       4.153   3.995  17.605  0.00  0.00    +0.000 C 
ATOM      3  C   UNL     1       2.750   3.579  17.204  0.00  0.00    +0.000 C 
ATOM      4  C   UNL     1       1.704   3.662  18.366  0.00  0.00    +0.000 C 
ATOM      5  C   UNL     1       1.752   2.412  19.255  0.00  0.00    +0.000 C 
ATOM      6  C   UNL     1       3.031   2.602  20.075  0.00  0.00    +0.000 C 
ATOM      7  C   UNL     1       3.337   4.115  19.925  0.00  0.00    +0.000 C 
ATOM      8  N   UNL     1       2.037   4.630  19.425  0.00  0.00    +0.000 NA
ENDROOT
BRANCH   2   9
ATOM      9  C   UNL     1       5.135   4.283  16.558  0.00  0.00    +0.000 A 
ATOM     10  C   UNL     1       6.219   5.143  16.756  0.00  0.00    +0.000 A 
ATOM     11  C   UNL     1       7.102   5.417  15.700  0.00  0.00    +0.000 A 
ATOM     12  C   UNL     1       6.904   4.841  14.431  0.00  0.00    +0.000 A 
ATOM     13  C   UNL     1       7.761   5.107  13.351  0.00  0.00    +0.000 A 
ATOM     14  C   UNL     1       7.531   4.530  12.100  0.00  0.00    +0.000 A 
ATOM     15  C   UNL     1       6.447   3.674  11.912  0.00  0.00    +0.000 A 
ATOM     16  C   UNL     1       5.589   3.399  12.974  0.00  0.00    +0.000 A 
ATOM     17  C   UNL     1       5.804   3.976  14.233  0.00  0.00    +0.000 A 
ATOM     18  C   UNL     1       4.935   3.709  15.300  0.00  0.00    +0.000 A 
ENDBRANCH   2   9
BRANCH   8  19
ATOM     19  C   UNL     1       1.929   6.064  19.104  0.00  0.00    +0.000 C 
BRANCH  19  20
ATOM     20  C   UNL     1       1.939   7.005  20.359  0.00  0.00    +0.000 C 
BRANCH  20  21
ATOM     21  O   UNL     1       1.633   8.376  20.020  0.00  0.00    +0.000 OA
BRANCH  21  22
ATOM     22  C   UNL     1       0.858   9.113  20.908  0.00  0.00    +0.000 A 
ATOM     23  C   UNL     1       0.847   8.903  22.293  0.00  0.00    +0.000 A 
ATOM     24  C   UNL     1       0.034   9.683  23.123  0.00  0.00    +0.000 A 
ATOM     25  C   UNL     1      -0.776  10.680  22.580  0.00  0.00    +0.000 A 
ATOM     26  C   UNL     1      -0.798  10.922  21.222  0.00  0.00    +0.000 A 
ATOM     27  N   UNL     1      -1.612  11.902  20.790  0.00  0.00    +0.000 NA
ATOM     28  C   UNL     1      -1.648  12.155  19.471  0.00  0.00    +0.000 A 
ATOM     29  C   UNL     1      -0.902  11.467  18.540  0.00  0.00    +0.000 A 
ATOM     30  C   UNL     1      -0.061  10.451  18.998  0.00  0.00    +0.000 A 
ATOM     31  C   UNL     1       0.021  10.138  20.369  0.00  0.00    +0.000 A 
ENDBRANCH  21  22
ENDBRANCH  20  21
ENDBRANCH  19  20
ENDBRANCH   8  19
TORSDOF 5
ENDMDL
MODEL 6
REMARK VINA RESULT:      -9.0      0.853      2.351
REMARK  Name = 
REMARK  5 active torsions:
REMARK  status: ('A' for Active; 'I' for Inactive)
REMARK    1  A    between atoms: C_2  and  C_3
REMARK    2  A    between atoms: N_18  and  C_19
REMARK    3  A    between atoms: C_19  and  C_20
REMARK    4  A    between atoms: C_20  and  O_21
REMARK    5  A    between atoms: O_21  and  C_22
REMARK                            x       y       z     vdW  Elec       q    Type
REMARK                         _______ _______ _______ _____ _____    ______ ____
ROOT
ATOM      1  C   UNL     1       0.804   4.379  20.525  0.00  0.00    +0.000 C 
ATOM      2  C   UNL     1       1.841   5.232  20.455  0.00  0.00    +0.000 C 
ATOM      3  C   UNL     1       3.248   4.697  20.268  0.00  0.00    +0.000 C 
ATOM      4  C   UNL     1       3.313   3.155  20.001  0.00  0.00    +0.000 C 
ATOM      5  C   UNL     1       3.252   2.356  21.309  0.00  0.00    +0.000 C 
ATOM      6  C   UNL     1       1.783   2.461  21.728  0.00  0.00    +0.000 C 
ATOM      7  C   UNL     1       1.065   2.896  20.424  0.00  0.00    +0.000 C 
ATOM      8  N   UNL     1       2.096   2.583  19.402  0.00  0.00    +0.000 NA
ENDROOT
BRANCH   2   9
ATOM      9  C   UNL     1       1.614   6.677  20.376  0.00  0.00    +0.000 A 
ATOM     10  C   UNL     1       0.926   7.387  21.363  0.00  0.00    +0.000 A 
ATOM     11  C   UNL     1       0.699   8.764  21.211  0.00  0.00    +0.000 A 
ATOM     12  C   UNL     1       1.149   9.443  20.062  0.00  0.00    +0.000 A 
ATOM     13  C   UNL     1       0.925  10.816  19.874  0.00  0.00    +0.000 A 
ATOM     14  C   UNL     1       1.374  11.458  18.717  0.00  0.00    +0.000 A 
ATOM     15  C   UNL     1       2.058  10.741  17.738  0.00  0.00    +0.000 A 
ATOM     16  C   UNL     1       2.290   9.380  17.912  0.00  0.00    +0.000 A 
ATOM     17  C   UNL     1       1.840   8.720  19.064  0.00  0.00    +0.000 A 
ATOM     18  C   UNL     1       2.063   7.346  19.235  0.00  0.00    +0.000 A 
ENDBRANCH   2   9
BRANCH   8  19
ATOM     19  C   UNL     1       1.806   2.906  17.993  0.00  0.00    +0.000 C 
BRANCH  19  20
ATOM     20  C   UNL     1       3.073   2.932  17.068  0.00  0.00    +0.000 C 
BRANCH  20  21
ATOM     21  O   UNL     1       3.511   4.278  16.774  0.00  0.00    +0.000 OA
BRANCH  21  22
ATOM     22  C   UNL     1       4.717   4.442  16.104  0.00  0.00    +0.000 A 
ATOM     23  C   UNL     1       5.103   3.680  14.994  0.00  0.00    +0.000 A 
ATOM     24  C   UNL     1       6.339   3.901  14.375  0.00  0.00    +0.000 A 
ATOM     25  C   UNL     1       7.201   4.885  14.857  0.00  0.00    +0.000 A 
ATOM     26  C   UNL     1       6.863   5.661  15.948  0.00  0.00    +0.000 A 
ATOM     27  N   UNL     1       7.760   6.583  16.342  0.00  0.00    +0.000 NA
ATOM     28  C   UNL     1       7.450   7.350  17.400  0.00  0.00    +0.000 A 
ATOM     29  C   UNL     1       6.271   7.241  18.104  0.00  0.00    +0.000 A 
ATOM     30  C   UNL     1       5.348   6.280  17.688  0.00  0.00    +0.000 A 
ATOM     31  C   UNL     1       5.614   5.446  16.585  0.00  0.00    +0.000 A 
ENDBRANCH  21  22
ENDBRANCH  20  21
ENDBRANCH  19  20
ENDBRANCH   8  19
TORSDOF 5
ENDMDL
MODEL 7
REMARK VINA RESULT:      -8.9      2.803      8.164
REMARK  Name = 
REMARK  5 active torsions:
REMARK  status: ('A' for Active; 'I' for Inactive)
REMARK    1  A    between atoms: C_2  and  C_3
REMARK    2  A    between atoms: N_18  and  C_19
REMARK    3  A    between atoms: C_19  and  C_20
REMARK    4  A    between atoms: C_20  and  O_21
REMARK    5  A    between atoms: O_21  and  C_22
REMARK                            x       y       z     vdW  Elec       q    Type
REMARK                         _______ _______ _______ _____ _____    ______ ____
ROOT
ATOM      1  C   UNL     1       4.452   4.424  19.159  0.00  0.00    +0.000 C 
ATOM      2  C   UNL     1       4.069   4.439  17.870  0.00  0.00    +0.000 C 
ATOM      3  C   UNL     1       2.593   4.487  17.522  0.00  0.00    +0.000 C 
ATOM      4  C   UNL     1       1.652   4.688  18.757  0.00  0.00    +0.000 C 
ATOM      5  C   UNL     1       1.374   3.359  19.473  0.00  0.00    +0.000 C 
ATOM      6  C   UNL     1       2.682   3.070  20.216  0.00  0.00    +0.000 C 
ATOM      7  C   UNL     1       3.398   4.446  20.239  0.00  0.00    +0.000 C 
ATOM      8  N   UNL     1       2.280   5.365  19.904  0.00  0.00    +0.000 NA
ENDROOT
BRANCH   2   9
ATOM      9  C   UNL     1       5.057   4.592  16.800  0.00  0.00    +0.000 A 
ATOM     10  C   UNL     1       6.211   5.366  16.945  0.00  0.00    +0.000 A 
ATOM     11  C   UNL     1       7.099   5.513  15.868  0.00  0.00    +0.000 A 
ATOM     12  C   UNL     1       6.835   4.895  14.630  0.00  0.00    +0.000 A 
ATOM     13  C   UNL     1       7.697   5.035  13.530  0.00  0.00    +0.000 A 
ATOM     14  C   UNL     1       7.401   4.419  12.312  0.00  0.00    +0.000 A 
ATOM     15  C   UNL     1       6.246   3.650  12.177  0.00  0.00    +0.000 A 
ATOM     16  C   UNL     1       5.384   3.501  13.260  0.00  0.00    +0.000 A 
ATOM     17  C   UNL     1       5.664   4.118  14.487  0.00  0.00    +0.000 A 
ATOM     18  C   UNL     1       4.791   3.977  15.575  0.00  0.00    +0.000 A 
ENDBRANCH   2   9
BRANCH   8  19
ATOM     19  C   UNL     1       2.571   6.804  19.778  0.00  0.00    +0.000 C 
BRANCH  19  20
ATOM     20  C   UNL     1       1.503   7.736  20.450  0.00  0.00    +0.000 C 
BRANCH  20  21
ATOM     21  O   UNL     1       1.236   8.920  19.666  0.00  0.00    +0.000 OA
BRANCH  21  22
ATOM     22  C   UNL     1       0.404   9.892  20.210  0.00  0.00    +0.000 A 
ATOM     23  C   UNL     1       0.524  10.378  21.518  0.00  0.00    +0.000 A 
ATOM     24  C   UNL     1      -0.357  11.354  21.997  0.00  0.00    +0.000 A 
ATOM     25  C   UNL     1      -1.366  11.856  21.175  0.00  0.00    +0.000 A 
ATOM     26  C   UNL     1      -1.522  11.407  19.879  0.00  0.00    +0.000 A 
ATOM     27  N   UNL     1      -2.525  11.947  19.163  0.00  0.00    +0.000 NA
ATOM     28  C   UNL     1      -2.694  11.525  17.899  0.00  0.00    +0.000 A 
ATOM     29  C   UNL     1      -1.901  10.571  17.300  0.00  0.00    +0.000 A 
ATOM     30  C   UNL     1      -0.865  10.015  18.051  0.00  0.00    +0.000 A 
ATOM     31  C   UNL     1      -0.636  10.416  19.382  0.00  0.00    +0.000 A 
ENDBRANCH  21  22
ENDBRANCH  20  21
ENDBRANCH  19  20
ENDBRANCH   8  19
TORSDOF 5
ENDMDL
MODEL 8
REMARK VINA RESULT:      -8.9      0.991      2.116
REMARK  Name = 
REMARK  5 active torsions:
REMARK  status: ('A' for Active; 'I' for Inactive)
REMARK    1  A    between atoms: C_2  and  C_3
REMARK    2  A    between atoms: N_18  and  C_19
REMARK    3  A    between atoms: C_19  and  C_20
REMARK    4  A    between atoms: C_20  and  O_21
REMARK    5  A    between atoms: O_21  and  C_22
REMARK                            x       y       z     vdW  Elec       q    Type
REMARK                         _______ _______ _______ _____ _____    ______ ____
ROOT
ATOM      1  C   UNL     1       0.760   4.460  20.413  0.00  0.00    +0.000 C 
ATOM      2  C   UNL     1       1.784   5.331  20.395  0.00  0.00    +0.000 C 
ATOM      3  C   UNL     1       3.211   4.820  20.322  0.00  0.00    +0.000 C 
ATOM      4  C   UNL     1       3.322   3.274  20.100  0.00  0.00    +0.000 C 
ATOM      5  C   UNL     1       3.182   2.505  21.421  0.00  0.00    +0.000 C 
ATOM      6  C   UNL     1       1.685   2.592  21.730  0.00  0.00    +0.000 C 
ATOM      7  C   UNL     1       1.054   2.980  20.368  0.00  0.00    +0.000 C 
ATOM      8  N   UNL     1       2.161   2.663  19.430  0.00  0.00    +0.000 NA
ENDROOT
BRANCH   2   9
ATOM      9  C   UNL     1       1.538   6.769  20.263  0.00  0.00    +0.000 A 
ATOM     10  C   UNL     1       2.057   7.530  19.213  0.00  0.00    +0.000 A 
ATOM     11  C   UNL     1       1.826   8.914  19.165  0.00  0.00    +0.000 A 
ATOM     12  C   UNL     1       1.079   9.552  20.174  0.00  0.00    +0.000 A 
ATOM     13  C   UNL     1       0.842  10.936  20.161  0.00  0.00    +0.000 A 
ATOM     14  C   UNL     1       0.108  11.542  21.184  0.00  0.00    +0.000 A 
ATOM     15  C   UNL     1      -0.406  10.774  22.227  0.00  0.00    +0.000 A 
ATOM     16  C   UNL     1      -0.181   9.401  22.252  0.00  0.00    +0.000 A 
ATOM     17  C   UNL     1       0.559   8.780  21.237  0.00  0.00    +0.000 A 
ATOM     18  C   UNL     1       0.796   7.398  21.266  0.00  0.00    +0.000 A 
ENDBRANCH   2   9
BRANCH   8  19
ATOM     19  C   UNL     1       1.968   2.946  17.997  0.00  0.00    +0.000 C 
BRANCH  19  20
ATOM     20  C   UNL     1       3.155   2.478  17.085  0.00  0.00    +0.000 C 
BRANCH  20  21
ATOM     21  O   UNL     1       4.429   2.993  17.532  0.00  0.00    +0.000 OA
BRANCH  21  22
ATOM     22  C   UNL     1       5.151   3.801  16.662  0.00  0.00    +0.000 A 
ATOM     23  C   UNL     1       5.051   3.729  15.267  0.00  0.00    +0.000 A 
ATOM     24  C   UNL     1       5.816   4.574  14.455  0.00  0.00    +0.000 A 
ATOM     25  C   UNL     1       6.689   5.498  15.027  0.00  0.00    +0.000 A 
ATOM     26  C   UNL     1       6.821   5.605  16.397  0.00  0.00    +0.000 A 
ATOM     27  N   UNL     1       7.689   6.525  16.856  0.00  0.00    +0.000 NA
ATOM     28  C   UNL     1       7.832   6.646  18.186  0.00  0.00    +0.000 A 
ATOM     29  C   UNL     1       7.143   5.881  19.102  0.00  0.00    +0.000 A 
ATOM     30  C   UNL     1       6.245   4.929  18.615  0.00  0.00    +0.000 A 
ATOM     31  C   UNL     1       6.051   4.754  17.231  0.00  0.00    +0.000 A 
ENDBRANCH  21  22
ENDBRANCH  20  21
ENDBRANCH  19  20
ENDBRANCH   8  19
TORSDOF 5
ENDMDL
MODEL 9
REMARK VINA RESULT:      -8.8      4.951     10.200
REMARK  Name = 
REMARK  5 active torsions:
REMARK  status: ('A' for Active; 'I' for Inactive)
REMARK    1  A    between atoms: C_2  and  C_3
REMARK    2  A    between atoms: N_18  and  C_19
REMARK    3  A    between atoms: C_19  and  C_20
REMARK    4  A    between atoms: C_20  and  O_21
REMARK    5  A    between atoms: O_21  and  C_22
REMARK                            x       y       z     vdW  Elec       q    Type
REMARK                         _______ _______ _______ _____ _____    ______ ____
ROOT
ATOM      1  C   UNL     1       1.470  10.055  18.332  0.00  0.00    +0.000 C 
ATOM      2  C   UNL     1       1.518   9.057  19.232  0.00  0.00    +0.000 C 
ATOM      3  C   UNL     1       0.652   9.119  20.476  0.00  0.00    +0.000 C 
ATOM      4  C   UNL     1      -0.364  10.311  20.487  0.00  0.00    +0.000 C 
ATOM      5  C   UNL     1       0.300  11.610  20.962  0.00  0.00    +0.000 C 
ATOM      6  C   UNL     1       1.153  12.038  19.765  0.00  0.00    +0.000 C 
ATOM      7  C   UNL     1       0.555  11.228  18.585  0.00  0.00    +0.000 C 
ATOM      8  N   UNL     1      -0.749  10.802  19.153  0.00  0.00    +0.000 NA
ENDROOT
BRANCH   2   9
ATOM      9  C   UNL     1       2.258   7.827  18.943  0.00  0.00    +0.000 A 
ATOM     10  C   UNL     1       2.200   6.700  19.767  0.00  0.00    +0.000 A 
ATOM     11  C   UNL     1       2.969   5.565  19.463  0.00  0.00    +0.000 A 
ATOM     12  C   UNL     1       3.813   5.551  18.336  0.00  0.00    +0.000 A 
ATOM     13  C   UNL     1       4.604   4.437  18.013  0.00  0.00    +0.000 A 
ATOM     14  C   UNL     1       5.440   4.458  16.895  0.00  0.00    +0.000 A 
ATOM     15  C   UNL     1       5.492   5.587  16.079  0.00  0.00    +0.000 A 
ATOM     16  C   UNL     1       4.711   6.698  16.385  0.00  0.00    +0.000 A 
ATOM     17  C   UNL     1       3.872   6.694  17.507  0.00  0.00    +0.000 A 
ATOM     18  C   UNL     1       3.094   7.817  17.823  0.00  0.00    +0.000 A 
ENDBRANCH   2   9
BRANCH   8  19
ATOM     19  C   UNL     1      -1.625   9.945  18.333  0.00  0.00    +0.000 C 
BRANCH  19  20
ATOM     20  C   UNL     1      -2.417  10.716  17.220  0.00  0.00    +0.000 C 
BRANCH  20  21
ATOM     21  O   UNL     1      -3.092  11.885  17.736  0.00  0.00    +0.000 OA
BRANCH  21  22
ATOM     22  C   UNL     1      -4.333  11.713  18.337  0.00  0.00    +0.000 A 
ATOM     23  C   UNL     1      -5.441  11.150  17.690  0.00  0.00    +0.000 A 
ATOM     24  C   UNL     1      -6.662  11.014  18.361  0.00  0.00    +0.000 A 
ATOM     25  C   UNL     1      -6.789  11.438  19.683  0.00  0.00    +0.000 A 
ATOM     26  C   UNL     1      -5.725  11.998  20.361  0.00  0.00    +0.000 A 
ATOM     27  N   UNL     1      -5.944  12.379  21.632  0.00  0.00    +0.000 NA
ATOM     28  C   UNL     1      -4.921  12.926  22.310  0.00  0.00    +0.000 A 
ATOM     29  C   UNL     1      -3.666  13.119  21.775  0.00  0.00    +0.000 A 
ATOM     30  C   UNL     1      -3.449  12.722  20.455  0.00  0.00    +0.000 A 
ATOM     31  C   UNL     1      -4.482  12.142  19.692  0.00  0.00    +0.000 A 
ENDBRANCH  21  22
ENDBRANCH  20  21
ENDBRANCH  19  20
ENDBRANCH   8  19
TORSDOF 5
ENDMDL
