MODEL 1
REMARK VINA RESULT:      -7.3      0.000      0.000
REMARK  Name = 
REMARK  14 active torsions:
REMARK  status: ('A' for Active; 'I' for Inactive)
REMARK    1  A    between atoms: C_1  and  C_2
REMARK    2  A    between atoms: C_2  and  C_3
REMARK    3  A    between atoms: C_3  and  C_4
REMARK    4  A    between atoms: C_4  and  C_5
REMARK    5  A    between atoms: C_5  and  C_6
REMARK    6  A    between atoms: C_6  and  C_7
REMARK    7  A    between atoms: C_7  and  C_8
REMARK    8  A    between atoms: C_8  and  C_9
REMARK    9  A    between atoms: C_9  and  O_10
REMARK   10  A    between atoms: O_10  and  C_11
REMARK   11  A    between atoms: C_14  and  N_15
REMARK   12  A    between atoms: C_16  and  O_18
REMARK   13  A    between atoms: O_18  and  N_19
REMARK   14  A    between atoms: C_20  and  C_21
REMARK                            x       y       z     vdW  Elec       q    Type
REMARK                         _______ _______ _______ _____ _____    ______ ____
ROOT
ATOM      1  C   UNL     1       3.941   3.027  18.432  0.00  0.00    +0.000 A 
ATOM      2  C   UNL     1       4.775   3.708  19.319  0.00  0.00    +0.000 A 
ATOM      3  C   UNL     1       5.449   4.860  18.928  0.00  0.00    +0.000 A 
ATOM      4  C   UNL     1       5.313   5.366  17.643  0.00  0.00    +0.000 A 
ATOM      5  C   UNL     1       4.449   4.708  16.753  0.00  0.00    +0.000 A 
ATOM      6  C   UNL     1       3.771   3.540  17.145  0.00  0.00    +0.000 A 
ENDROOT
BRANCH   4   7
ATOM      7  N   UNL     1       5.995   6.519  17.213  0.00  0.00    +0.000 N 
ATOM      8  C   UNL     1       7.227   6.958  17.649  0.00  0.00    +0.000 C 
ATOM      9  O   UNL     1       8.004   6.383  18.404  0.00  0.00    +0.000 OA
ATOM     10  H   UNL     1       5.519   7.155  16.590  0.00  0.00    +0.000 HD
BRANCH   8  11
ATOM     11  O   UNL     1       7.477   8.213  17.142  0.00  0.00    +0.000 OA
BRANCH  11  12
ATOM     12  N   UNL     1       8.183   8.916  18.130  0.00  0.00    +0.000 NA
ATOM     13  C   UNL     1       8.639  10.033  17.676  0.00  0.00    +0.000 C 
BRANCH  13  14
ATOM     14  C   UNL     1       9.282  10.983  18.601  0.00  0.00    +0.000 A 
ATOM     15  C   UNL     1       9.354  10.682  19.971  0.00  0.00    +0.000 A 
ATOM     16  C   UNL     1       9.886  11.614  20.859  0.00  0.00    +0.000 A 
ATOM     17  C   UNL     1      10.345  12.833  20.375  0.00  0.00    +0.000 A 
ATOM     18  F   UNL     1      10.845  13.734  21.229  0.00  0.00    +0.000 F 
ATOM     19  C   UNL     1      10.286  13.136  19.016  0.00  0.00    +0.000 A 
ATOM     20  C   UNL     1       9.752  12.207  18.119  0.00  0.00    +0.000 A 
ENDBRANCH  13  14
ENDBRANCH  11  12
ENDBRANCH   8  11
ENDBRANCH   4   7
BRANCH   1  21
ATOM     21  O   UNL     1       3.272   1.866  18.748  0.00  0.00    +0.000 OA
BRANCH  21  22
ATOM     22  C   UNL     1       1.893   2.074  19.067  0.00  0.00    +0.000 C 
BRANCH  22  23
ATOM     23  C   UNL     1       1.702   2.631  20.469  0.00  0.00    +0.000 C 
BRANCH  23  24
ATOM     24  C   UNL     1       0.866   3.912  20.388  0.00  0.00    +0.000 C 
BRANCH  24  25
ATOM     25  C   UNL     1       1.697   5.153  20.686  0.00  0.00    +0.000 C 
BRANCH  25  26
ATOM     26  C   UNL     1       0.821   6.405  20.747  0.00  0.00    +0.000 C 
BRANCH  26  27
ATOM     27  C   UNL     1       1.675   7.668  20.644  0.00  0.00    +0.000 C 
BRANCH  27  28
ATOM     28  C   UNL     1       1.217   8.734  21.638  0.00  0.00    +0.000 C 
BRANCH  28  30
ATOM     29  C   UNL     1       0.184  10.005  19.727  0.00  0.00    +0.000 C 
ATOM     30  C   UNL     1      -0.027   9.460  21.130  0.00  0.00    +0.000 C 
ENDBRANCH  28  30
ENDBRANCH  27  28
ENDBRANCH  26  27
ENDBRANCH  25  26
ENDBRANCH  24  25
ENDBRANCH  23  24
ENDBRANCH  22  23
ENDBRANCH  21  22
ENDBRANCH   1  21
TORSDOF 13
ENDMDL
MODEL 2
REMARK VINA RESULT:      -7.0      1.892      3.900
REMARK  Name = 
REMARK  14 active torsions:
REMARK  status: ('A' for Active; 'I' for Inactive)
REMARK    1  A    between atoms: C_1  and  C_2
REMARK    2  A    between atoms: C_2  and  C_3
REMARK    3  A    between atoms: C_3  and  C_4
REMARK    4  A    between atoms: C_4  and  C_5
REMARK    5  A    between atoms: C_5  and  C_6
REMARK    6  A    between atoms: C_6  and  C_7
REMARK    7  A    between atoms: C_7  and  C_8
REMARK    8  A    between atoms: C_8  and  C_9
REMARK    9  A    between atoms: C_9  and  O_10
REMARK   10  A    between atoms: O_10  and  C_11
REMARK   11  A    between atoms: C_14  and  N_15
REMARK   12  A    between atoms: C_16  and  O_18
REMARK   13  A    between atoms: O_18  and  N_19
REMARK   14  A    between atoms: C_20  and  C_21
REMARK                            x       y       z     vdW  Elec       q    Type
REMARK                         _______ _______ _______ _____ _____    ______ ____
ROOT
ATOM      1  C   UNL     1       2.481   5.590  19.600  0.00  0.00    +0.000 A 
ATOM      2  C   UNL     1       2.276   6.481  18.546  0.00  0.00    +0.000 A 
ATOM      3  C   UNL     1       3.349   7.035  17.858  0.00  0.00    +0.000 A 
ATOM      4  C   UNL     1       4.657   6.722  18.200  0.00  0.00    +0.000 A 
ATOM      5  C   UNL     1       4.874   5.801  19.237  0.00  0.00    +0.000 A 
ATOM      6  C   UNL     1       3.790   5.242  19.937  0.00  0.00    +0.000 A 
ENDROOT
BRANCH   4   7
ATOM      7  N   UNL     1       5.763   7.280  17.533  0.00  0.00    +0.000 N 
ATOM      8  C   UNL     1       7.068   6.839  17.592  0.00  0.00    +0.000 C 
ATOM      9  O   UNL     1       7.495   5.830  18.143  0.00  0.00    +0.000 OA
ATOM     10  H   UNL     1       5.634   8.141  17.023  0.00  0.00    +0.000 HD
BRANCH   8  11
ATOM     11  O   UNL     1       7.891   7.744  16.961  0.00  0.00    +0.000 OA
BRANCH  11  12
ATOM     12  N   UNL     1       7.837   8.930  17.709  0.00  0.00    +0.000 NA
ATOM     13  C   UNL     1       9.003   9.263  18.145  0.00  0.00    +0.000 C 
BRANCH  13  14
ATOM     14  C   UNL     1       9.179  10.557  18.829  0.00  0.00    +0.000 A 
ATOM     15  C   UNL     1       9.375  10.590  20.219  0.00  0.00    +0.000 A 
ATOM     16  C   UNL     1       9.459  11.814  20.879  0.00  0.00    +0.000 A 
ATOM     17  C   UNL     1       9.351  12.991  20.149  0.00  0.00    +0.000 A 
ATOM     18  F   UNL     1       9.417  14.168  20.784  0.00  0.00    +0.000 F 
ATOM     19  C   UNL     1       9.165  12.967  18.768  0.00  0.00    +0.000 A 
ATOM     20  C   UNL     1       9.078  11.744  18.099  0.00  0.00    +0.000 A 
ENDBRANCH  13  14
ENDBRANCH  11  12
ENDBRANCH   8  11
ENDBRANCH   4   7
BRANCH   1  21
ATOM     21  O   UNL     1       1.464   5.033  20.341  0.00  0.00    +0.000 OA
BRANCH  21  22
ATOM     22  C   UNL     1       0.928   3.839  19.762  0.00  0.00    +0.000 C 
BRANCH  22  23
ATOM     23  C   UNL     1       1.429   2.584  20.460  0.00  0.00    +0.000 C 
BRANCH  23  24
ATOM     24  C   UNL     1       2.114   1.679  19.430  0.00  0.00    +0.000 C 
BRANCH  24  25
ATOM     25  C   UNL     1       2.210   2.342  18.064  0.00  0.00    +0.000 C 
BRANCH  25  26
ATOM     26  C   UNL     1       3.665   2.459  17.605  0.00  0.00    +0.000 C 
BRANCH  26  27
ATOM     27  C   UNL     1       3.827   3.604  16.606  0.00  0.00    +0.000 C 
BRANCH  27  28
ATOM     28  C   UNL     1       5.289   3.791  16.203  0.00  0.00    +0.000 C 
BRANCH  28  30
ATOM     29  C   UNL     1       6.804   4.622  14.372  0.00  0.00    +0.000 C 
ATOM     30  C   UNL     1       5.407   4.683  14.968  0.00  0.00    +0.000 C 
ENDBRANCH  28  30
ENDBRANCH  27  28
ENDBRANCH  26  27
ENDBRANCH  25  26
ENDBRANCH  24  25
ENDBRANCH  23  24
ENDBRANCH  22  23
ENDBRANCH  21  22
ENDBRANCH   1  21
TORSDOF 13
ENDMDL
MODEL 3
REMARK VINA RESULT:      -7.0      4.897      7.149
REMARK  Name = 
REMARK  14 active torsions:
REMARK  status: ('A' for Active; 'I' for Inactive)
REMARK    1  A    between atoms: C_1  and  C_2
REMARK    2  A    between atoms: C_2  and  C_3
REMARK    3  A    between atoms: C_3  and  C_4
REMARK    4  A    between atoms: C_4  and  C_5
REMARK    5  A    between atoms: C_5  and  C_6
REMARK    6  A    between atoms: C_6  and  C_7
REMARK    7  A    between atoms: C_7  and  C_8
REMARK    8  A    between atoms: C_8  and  C_9
REMARK    9  A    between atoms: C_9  and  O_10
REMARK   10  A    between atoms: O_10  and  C_11
REMARK   11  A    between atoms: C_14  and  N_15
REMARK   12  A    between atoms: C_16  and  O_18
REMARK   13  A    between atoms: O_18  and  N_19
REMARK   14  A    between atoms: C_20  and  C_21
REMARK                            x       y       z     vdW  Elec       q    Type
REMARK                         _______ _______ _______ _____ _____    ______ ____
ROOT
ATOM      1  C   UNL     1       2.562   7.304  18.961  0.00  0.00    +0.000 A 
ATOM      2  C   UNL     1       1.895   7.645  20.138  0.00  0.00    +0.000 A 
ATOM      3  C   UNL     1       1.128   8.802  20.216  0.00  0.00    +0.000 A 
ATOM      4  C   UNL     1       1.004   9.654  19.127  0.00  0.00    +0.000 A 
ATOM      5  C   UNL     1       1.643   9.301  17.928  0.00  0.00    +0.000 A 
ATOM      6  C   UNL     1       2.424   8.134  17.848  0.00  0.00    +0.000 A 
ENDROOT
BRANCH   4   7
ATOM      7  N   UNL     1       0.248  10.839  19.181  0.00  0.00    +0.000 N 
ATOM      8  C   UNL     1      -1.061  10.999  18.777  0.00  0.00    +0.000 C 
ATOM      9  O   UNL     1      -1.841  10.133  18.399  0.00  0.00    +0.000 OA
ATOM     10  H   UNL     1       0.711  11.693  19.455  0.00  0.00    +0.000 HD
BRANCH   8  11
ATOM     11  O   UNL     1      -1.393  12.335  18.809  0.00  0.00    +0.000 OA
BRANCH  11  12
ATOM     12  N   UNL     1      -0.290  13.039  18.302  0.00  0.00    +0.000 NA
ATOM     13  C   UNL     1      -0.020  14.071  19.024  0.00  0.00    +0.000 C 
BRANCH  13  14
ATOM     14  C   UNL     1       1.195  14.857  18.739  0.00  0.00    +0.000 A 
ATOM     15  C   UNL     1       2.375  14.201  18.354  0.00  0.00    +0.000 A 
ATOM     16  C   UNL     1       3.546  14.933  18.166  0.00  0.00    +0.000 A 
ATOM     17  C   UNL     1       3.528  16.309  18.357  0.00  0.00    +0.000 A 
ATOM     18  F   UNL     1       4.655  17.011  18.189  0.00  0.00    +0.000 F 
ATOM     19  C   UNL     1       2.359  16.969  18.730  0.00  0.00    +0.000 A 
ATOM     20  C   UNL     1       1.182  16.242  18.923  0.00  0.00    +0.000 A 
ENDBRANCH  13  14
ENDBRANCH  11  12
ENDBRANCH   8  11
ENDBRANCH   4   7
BRANCH   1  21
ATOM     21  O   UNL     1       3.362   6.192  18.829  0.00  0.00    +0.000 OA
BRANCH  21  22
ATOM     22  C   UNL     1       4.031   6.119  17.567  0.00  0.00    +0.000 C 
BRANCH  22  23
ATOM     23  C   UNL     1       5.046   4.988  17.514  0.00  0.00    +0.000 C 
BRANCH  23  24
ATOM     24  C   UNL     1       4.377   3.743  16.924  0.00  0.00    +0.000 C 
BRANCH  24  25
ATOM     25  C   UNL     1       3.839   2.818  18.006  0.00  0.00    +0.000 C 
BRANCH  25  26
ATOM     26  C   UNL     1       2.399   2.397  17.712  0.00  0.00    +0.000 C 
BRANCH  26  27
ATOM     27  C   UNL     1       1.414   3.462  18.193  0.00  0.00    +0.000 C 
BRANCH  27  28
ATOM     28  C   UNL     1       0.739   3.049  19.500  0.00  0.00    +0.000 C 
BRANCH  28  30
ATOM     29  C   UNL     1       2.342   3.221  21.434  0.00  0.00    +0.000 C 
ATOM     30  C   UNL     1       1.227   3.910  20.665  0.00  0.00    +0.000 C 
ENDBRANCH  28  30
ENDBRANCH  27  28
ENDBRANCH  26  27
ENDBRANCH  25  26
ENDBRANCH  24  25
ENDBRANCH  23  24
ENDBRANCH  22  23
ENDBRANCH  21  22
ENDBRANCH   1  21
TORSDOF 13
ENDMDL
MODEL 4
REMARK VINA RESULT:      -7.0      2.300      3.830
REMARK  Name = 
REMARK  14 active torsions:
REMARK  status: ('A' for Active; 'I' for Inactive)
REMARK    1  A    between atoms: C_1  and  C_2
REMARK    2  A    between atoms: C_2  and  C_3
REMARK    3  A    between atoms: C_3  and  C_4
REMARK    4  A    between atoms: C_4  and  C_5
REMARK    5  A    between atoms: C_5  and  C_6
REMARK    6  A    between atoms: C_6  and  C_7
REMARK    7  A    between atoms: C_7  and  C_8
REMARK    8  A    between atoms: C_8  and  C_9
REMARK    9  A    between atoms: C_9  and  O_10
REMARK   10  A    between atoms: O_10  and  C_11
REMARK   11  A    between atoms: C_14  and  N_15
REMARK   12  A    between atoms: C_16  and  O_18
REMARK   13  A    between atoms: O_18  and  N_19
REMARK   14  A    between atoms: C_20  and  C_21
REMARK                            x       y       z     vdW  Elec       q    Type
REMARK                         _______ _______ _______ _____ _____    ______ ____
ROOT
ATOM      1  C   UNL     1       6.014   5.156  17.406  0.00  0.00    +0.000 A 
ATOM      2  C   UNL     1       6.097   6.389  16.758  0.00  0.00    +0.000 A 
ATOM      3  C   UNL     1       6.956   7.382  17.214  0.00  0.00    +0.000 A 
ATOM      4  C   UNL     1       7.757   7.177  18.330  0.00  0.00    +0.000 A 
ATOM      5  C   UNL     1       7.707   5.928  18.968  0.00  0.00    +0.000 A 
ATOM      6  C   UNL     1       6.834   4.924  18.511  0.00  0.00    +0.000 A 
ENDROOT
BRANCH   4   7
ATOM      7  N   UNL     1       8.624   8.169  18.825  0.00  0.00    +0.000 N 
ATOM      8  C   UNL     1       8.620   9.507  18.491  0.00  0.00    +0.000 C 
ATOM      9  O   UNL     1       7.809  10.103  17.792  0.00  0.00    +0.000 OA
ATOM     10  H   UNL     1       9.391   7.885  19.416  0.00  0.00    +0.000 HD
BRANCH   8  11
ATOM     11  O   UNL     1       9.728  10.120  19.031  0.00  0.00    +0.000 OA
BRANCH  11  12
ATOM     12  N   UNL     1       9.357  10.575  20.306  0.00  0.00    +0.000 NA
ATOM     13  C   UNL     1       9.588  11.836  20.438  0.00  0.00    +0.000 C 
BRANCH  13  14
ATOM     14  C   UNL     1       9.131  12.533  21.655  0.00  0.00    +0.000 A 
ATOM     15  C   UNL     1       9.473  13.879  21.858  0.00  0.00    +0.000 A 
ATOM     16  C   UNL     1       9.114  14.516  23.044  0.00  0.00    +0.000 A 
ATOM     17  C   UNL     1       8.414  13.807  24.013  0.00  0.00    +0.000 A 
ATOM     18  F   UNL     1       8.080  14.413  25.158  0.00  0.00    +0.000 F 
ATOM     19  C   UNL     1       8.062  12.473  23.815  0.00  0.00    +0.000 A 
ATOM     20  C   UNL     1       8.420  11.828  22.630  0.00  0.00    +0.000 A 
ENDBRANCH  13  14
ENDBRANCH  11  12
ENDBRANCH   8  11
ENDBRANCH   4   7
BRANCH   1  21
ATOM     21  O   UNL     1       5.161   4.146  17.023  0.00  0.00    +0.000 OA
BRANCH  21  22
ATOM     22  C   UNL     1       4.512   3.504  18.124  0.00  0.00    +0.000 C 
BRANCH  22  23
ATOM     23  C   UNL     1       3.667   2.317  17.685  0.00  0.00    +0.000 C 
BRANCH  23  24
ATOM     24  C   UNL     1       2.185   2.679  17.824  0.00  0.00    +0.000 C 
BRANCH  24  25
ATOM     25  C   UNL     1       1.542   1.995  19.022  0.00  0.00    +0.000 C 
BRANCH  25  26
ATOM     26  C   UNL     1       0.713   2.982  19.846  0.00  0.00    +0.000 C 
BRANCH  26  27
ATOM     27  C   UNL     1       1.362   3.230  21.207  0.00  0.00    +0.000 C 
BRANCH  27  28
ATOM     28  C   UNL     1       2.376   4.372  21.144  0.00  0.00    +0.000 C 
BRANCH  28  30
ATOM     29  C   UNL     1       2.838   6.318  19.616  0.00  0.00    +0.000 C 
ATOM     30  C   UNL     1       1.785   5.590  20.435  0.00  0.00    +0.000 C 
ENDBRANCH  28  30
ENDBRANCH  27  28
ENDBRANCH  26  27
ENDBRANCH  25  26
ENDBRANCH  24  25
ENDBRANCH  23  24
ENDBRANCH  22  23
ENDBRANCH  21  22
ENDBRANCH   1  21
TORSDOF 13
ENDMDL
MODEL 5
REMARK VINA RESULT:      -6.9      0.914      1.333
REMARK  Name = 
REMARK  14 active torsions:
REMARK  status: ('A' for Active; 'I' for Inactive)
REMARK    1  A    between atoms: C_1  and  C_2
REMARK    2  A    between atoms: C_2  and  C_3
REMARK    3  A    between atoms: C_3  and  C_4
REMARK    4  A    between atoms: C_4  and  C_5
REMARK    5  A    between atoms: C_5  and  C_6
REMARK    6  A    between atoms: C_6  and  C_7
REMARK    7  A    between atoms: C_7  and  C_8
REMARK    8  A    between atoms: C_8  and  C_9
REMARK    9  A    between atoms: C_9  and  O_10
REMARK   10  A    between atoms: O_10  and  C_11
REMARK   11  A    between atoms: C_14  and  N_15
REMARK   12  A    between atoms: C_16  and  O_18
REMARK   13  A    between atoms: O_18  and  N_19
REMARK   14  A    between atoms: C_20  and  C_21
REMARK                            x       y       z     vdW  Elec       q    Type
REMARK                         _______ _______ _______ _____ _____    ______ ____
ROOT
ATOM      1  C   UNL     1       4.068   3.780  18.375  0.00  0.00    +0.000 A 
ATOM      2  C   UNL     1       4.032   4.258  17.065  0.00  0.00    +0.000 A 
ATOM      3  C   UNL     1       4.835   5.322  16.669  0.00  0.00    +0.000 A 
ATOM      4  C   UNL     1       5.695   5.942  17.565  0.00  0.00    +0.000 A 
ATOM      5  C   UNL     1       5.764   5.445  18.877  0.00  0.00    +0.000 A 
ATOM      6  C   UNL     1       4.949   4.372  19.281  0.00  0.00    +0.000 A 
ENDROOT
BRANCH   4   7
ATOM      7  N   UNL     1       6.507   7.030  17.198  0.00  0.00    +0.000 N 
ATOM      8  C   UNL     1       7.668   7.438  17.821  0.00  0.00    +0.000 C 
ATOM      9  O   UNL     1       8.265   6.880  18.735  0.00  0.00    +0.000 OA
ATOM     10  H   UNL     1       6.186   7.644  16.464  0.00  0.00    +0.000 HD
BRANCH   8  11
ATOM     11  O   UNL     1       8.075   8.643  17.295  0.00  0.00    +0.000 OA
BRANCH  11  12
ATOM     12  N   UNL     1       8.642   9.375  18.349  0.00  0.00    +0.000 NA
ATOM     13  C   UNL     1       8.890  10.590  17.997  0.00  0.00    +0.000 C 
BRANCH  13  14
ATOM     14  C   UNL     1       9.351  11.558  19.009  0.00  0.00    +0.000 A 
ATOM     15  C   UNL     1       9.568  11.136  20.330  0.00  0.00    +0.000 A 
ATOM     16  C   UNL     1       9.924  12.064  21.307  0.00  0.00    +0.000 A 
ATOM     17  C   UNL     1      10.063  13.401  20.956  0.00  0.00    +0.000 A 
ATOM     18  F   UNL     1      10.392  14.296  21.896  0.00  0.00    +0.000 F 
ATOM     19  C   UNL     1       9.859  13.828  19.645  0.00  0.00    +0.000 A 
ATOM     20  C   UNL     1       9.500  12.903  18.662  0.00  0.00    +0.000 A 
ENDBRANCH  13  14
ENDBRANCH  11  12
ENDBRANCH   8  11
ENDBRANCH   4   7
BRANCH   1  21
ATOM     21  O   UNL     1       3.277   2.753  18.838  0.00  0.00    +0.000 OA
BRANCH  21  22
ATOM     22  C   UNL     1       3.417   2.516  20.242  0.00  0.00    +0.000 C 
BRANCH  22  23
ATOM     23  C   UNL     1       2.085   2.582  20.974  0.00  0.00    +0.000 C 
BRANCH  23  24
ATOM     24  C   UNL     1       1.228   3.690  20.355  0.00  0.00    +0.000 C 
BRANCH  24  25
ATOM     25  C   UNL     1       1.643   5.071  20.842  0.00  0.00    +0.000 C 
BRANCH  25  26
ATOM     26  C   UNL     1       1.534   6.110  19.725  0.00  0.00    +0.000 C 
BRANCH  26  27
ATOM     27  C   UNL     1       2.125   7.447  20.170  0.00  0.00    +0.000 C 
BRANCH  27  28
ATOM     28  C   UNL     1       1.046   8.522  20.293  0.00  0.00    +0.000 C 
BRANCH  28  30
ATOM     29  C   UNL     1       0.780   9.613  18.040  0.00  0.00    +0.000 C 
ATOM     30  C   UNL     1       1.382   9.737  19.430  0.00  0.00    +0.000 C 
ENDBRANCH  28  30
ENDBRANCH  27  28
ENDBRANCH  26  27
ENDBRANCH  25  26
ENDBRANCH  24  25
ENDBRANCH  23  24
ENDBRANCH  22  23
ENDBRANCH  21  22
ENDBRANCH   1  21
TORSDOF 13
ENDMDL
MODEL 6
REMARK VINA RESULT:      -6.9      5.889      9.891
REMARK  Name = 
REMARK  14 active torsions:
REMARK  status: ('A' for Active; 'I' for Inactive)
REMARK    1  A    between atoms: C_1  and  C_2
REMARK    2  A    between atoms: C_2  and  C_3
REMARK    3  A    between atoms: C_3  and  C_4
REMARK    4  A    between atoms: C_4  and  C_5
REMARK    5  A    between atoms: C_5  and  C_6
REMARK    6  A    between atoms: C_6  and  C_7
REMARK    7  A    between atoms: C_7  and  C_8
REMARK    8  A    between atoms: C_8  and  C_9
REMARK    9  A    between atoms: C_9  and  O_10
REMARK   10  A    between atoms: O_10  and  C_11
REMARK   11  A    between atoms: C_14  and  N_15
REMARK   12  A    between atoms: C_16  and  O_18
REMARK   13  A    between atoms: O_18  and  N_19
REMARK   14  A    between atoms: C_20  and  C_21
REMARK                            x       y       z     vdW  Elec       q    Type
REMARK                         _______ _______ _______ _____ _____    ______ ____
ROOT
ATOM      1  C   UNL     1       2.636   7.357  18.756  0.00  0.00    +0.000 A 
ATOM      2  C   UNL     1       2.446   8.319  17.764  0.00  0.00    +0.000 A 
ATOM      3  C   UNL     1       1.634   9.426  17.986  0.00  0.00    +0.000 A 
ATOM      4  C   UNL     1       0.986   9.606  19.200  0.00  0.00    +0.000 A 
ATOM      5  C   UNL     1       1.197   8.661  20.217  0.00  0.00    +0.000 A 
ATOM      6  C   UNL     1       2.014   7.538  19.993  0.00  0.00    +0.000 A 
ENDROOT
BRANCH   4   7
ATOM      7  N   UNL     1       0.145  10.707  19.448  0.00  0.00    +0.000 N 
ATOM      8  C   UNL     1      -1.052  10.985  18.823  0.00  0.00    +0.000 C 
ATOM      9  O   UNL     1      -1.660  10.286  18.020  0.00  0.00    +0.000 OA
ATOM     10  H   UNL     1       0.468  11.427  20.076  0.00  0.00    +0.000 HD
BRANCH   8  11
ATOM     11  O   UNL     1      -1.487  12.237  19.196  0.00  0.00    +0.000 OA
BRANCH  11  12
ATOM     12  N   UNL     1      -2.244  12.070  20.366  0.00  0.00    +0.000 NA
ATOM     13  C   UNL     1      -3.149  12.982  20.473  0.00  0.00    +0.000 C 
BRANCH  13  14
ATOM     14  C   UNL     1      -4.141  12.894  21.559  0.00  0.00    +0.000 A 
ATOM     15  C   UNL     1      -5.510  12.837  21.250  0.00  0.00    +0.000 A 
ATOM     16  C   UNL     1      -6.454  12.838  22.275  0.00  0.00    +0.000 A 
ATOM     17  C   UNL     1      -6.026  12.891  23.596  0.00  0.00    +0.000 A 
ATOM     18  F   UNL     1      -6.932  12.905  24.581  0.00  0.00    +0.000 F 
ATOM     19  C   UNL     1      -4.669  12.938  23.912  0.00  0.00    +0.000 A 
ATOM     20  C   UNL     1      -3.717  12.940  22.890  0.00  0.00    +0.000 A 
ENDBRANCH  13  14
ENDBRANCH  11  12
ENDBRANCH   8  11
ENDBRANCH   4   7
BRANCH   1  21
ATOM     21  O   UNL     1       3.400   6.224  18.589  0.00  0.00    +0.000 OA
BRANCH  21  22
ATOM     22  C   UNL     1       4.272   6.290  17.458  0.00  0.00    +0.000 C 
BRANCH  22  23
ATOM     23  C   UNL     1       4.485   4.929  16.812  0.00  0.00    +0.000 C 
BRANCH  23  24
ATOM     24  C   UNL     1       3.431   3.953  17.344  0.00  0.00    +0.000 C 
BRANCH  24  25
ATOM     25  C   UNL     1       4.063   2.774  18.071  0.00  0.00    +0.000 C 
BRANCH  25  26
ATOM     26  C   UNL     1       4.299   3.095  19.548  0.00  0.00    +0.000 C 
BRANCH  26  27
ATOM     27  C   UNL     1       3.098   2.671  20.393  0.00  0.00    +0.000 C 
BRANCH  27  28
ATOM     28  C   UNL     1       2.346   3.882  20.942  0.00  0.00    +0.000 C 
BRANCH  28  30
ATOM     29  C   UNL     1       0.627   2.786  19.466  0.00  0.00    +0.000 C 
ATOM     30  C   UNL     1       0.971   4.016  20.289  0.00  0.00    +0.000 C 
ENDBRANCH  28  30
ENDBRANCH  27  28
ENDBRANCH  26  27
ENDBRANCH  25  26
ENDBRANCH  24  25
ENDBRANCH  23  24
ENDBRANCH  22  23
ENDBRANCH  21  22
ENDBRANCH   1  21
TORSDOF 13
ENDMDL
MODEL 7
REMARK VINA RESULT:      -6.9      0.875      1.065
REMARK  Name = 
REMARK  14 active torsions:
REMARK  status: ('A' for Active; 'I' for Inactive)
REMARK    1  A    between atoms: C_1  and  C_2
REMARK    2  A    between atoms: C_2  and  C_3
REMARK    3  A    between atoms: C_3  and  C_4
REMARK    4  A    between atoms: C_4  and  C_5
REMARK    5  A    between atoms: C_5  and  C_6
REMARK    6  A    between atoms: C_6  and  C_7
REMARK    7  A    between atoms: C_7  and  C_8
REMARK    8  A    between atoms: C_8  and  C_9
REMARK    9  A    between atoms: C_9  and  O_10
REMARK   10  A    between atoms: O_10  and  C_11
REMARK   11  A    between atoms: C_14  and  N_15
REMARK   12  A    between atoms: C_16  and  O_18
REMARK   13  A    between atoms: O_18  and  N_19
REMARK   14  A    between atoms: C_20  and  C_21
REMARK                            x       y       z     vdW  Elec       q    Type
REMARK                         _______ _______ _______ _____ _____    ______ ____
ROOT
ATOM      1  C   UNL     1       3.984   3.710  18.163  0.00  0.00    +0.000 A 
ATOM      2  C   UNL     1       5.365   3.634  18.346  0.00  0.00    +0.000 A 
ATOM      3  C   UNL     1       6.192   4.702  18.014  0.00  0.00    +0.000 A 
ATOM      4  C   UNL     1       5.668   5.875  17.489  0.00  0.00    +0.000 A 
ATOM      5  C   UNL     1       4.276   5.975  17.333  0.00  0.00    +0.000 A 
ATOM      6  C   UNL     1       3.439   4.894  17.664  0.00  0.00    +0.000 A 
ENDROOT
BRANCH   4   7
ATOM      7  N   UNL     1       6.480   6.966  17.128  0.00  0.00    +0.000 N 
ATOM      8  C   UNL     1       7.609   7.405  17.787  0.00  0.00    +0.000 C 
ATOM      9  O   UNL     1       8.176   6.876  18.737  0.00  0.00    +0.000 OA
ATOM     10  H   UNL     1       6.181   7.558  16.368  0.00  0.00    +0.000 HD
BRANCH   8  11
ATOM     11  O   UNL     1       8.022   8.602  17.249  0.00  0.00    +0.000 OA
BRANCH  11  12
ATOM     12  N   UNL     1       8.647   9.317  18.282  0.00  0.00    +0.000 NA
ATOM     13  C   UNL     1       8.850  10.545  17.947  0.00  0.00    +0.000 C 
BRANCH  13  14
ATOM     14  C   UNL     1       9.364  11.494  18.951  0.00  0.00    +0.000 A 
ATOM     15  C   UNL     1       9.369  11.138  20.309  0.00  0.00    +0.000 A 
ATOM     16  C   UNL     1       9.776  12.063  21.269  0.00  0.00    +0.000 A 
ATOM     17  C   UNL     1      10.176  13.331  20.866  0.00  0.00    +0.000 A 
ATOM     18  F   UNL     1      10.554  14.225  21.787  0.00  0.00    +0.000 F 
ATOM     19  C   UNL     1      10.182  13.690  19.519  0.00  0.00    +0.000 A 
ATOM     20  C   UNL     1       9.774  12.769  18.552  0.00  0.00    +0.000 A 
ENDBRANCH  13  14
ENDBRANCH  11  12
ENDBRANCH   8  11
ENDBRANCH   4   7
BRANCH   1  21
ATOM     21  O   UNL     1       3.117   2.678  18.442  0.00  0.00    +0.000 OA
BRANCH  21  22
ATOM     22  C   UNL     1       1.806   3.121  18.806  0.00  0.00    +0.000 C 
BRANCH  22  23
ATOM     23  C   UNL     1       1.528   2.942  20.291  0.00  0.00    +0.000 C 
BRANCH  23  24
ATOM     24  C   UNL     1       1.890   4.235  21.027  0.00  0.00    +0.000 C 
BRANCH  24  25
ATOM     25  C   UNL     1       1.219   5.451  20.405  0.00  0.00    +0.000 C 
BRANCH  25  26
ATOM     26  C   UNL     1       1.672   6.744  21.085  0.00  0.00    +0.000 C 
BRANCH  26  27
ATOM     27  C   UNL     1       1.644   7.913  20.101  0.00  0.00    +0.000 C 
BRANCH  27  28
ATOM     28  C   UNL     1       1.094   9.180  20.754  0.00  0.00    +0.000 C 
BRANCH  28  30
ATOM     29  C   UNL     1      -0.349   9.321  22.811  0.00  0.00    +0.000 C 
ATOM     30  C   UNL     1       1.044   9.036  22.274  0.00  0.00    +0.000 C 
ENDBRANCH  28  30
ENDBRANCH  27  28
ENDBRANCH  26  27
ENDBRANCH  25  26
ENDBRANCH  24  25
ENDBRANCH  23  24
ENDBRANCH  22  23
ENDBRANCH  21  22
ENDBRANCH   1  21
TORSDOF 13
ENDMDL
MODEL 8
REMARK VINA RESULT:      -6.8      4.859      7.229
REMARK  Name = 
REMARK  14 active torsions:
REMARK  status: ('A' for Active; 'I' for Inactive)
REMARK    1  A    between atoms: C_1  and  C_2
REMARK    2  A    between atoms: C_2  and  C_3
REMARK    3  A    between atoms: C_3  and  C_4
REMARK    4  A    between atoms: C_4  and  C_5
REMARK    5  A    between atoms: C_5  and  C_6
REMARK    6  A    between atoms: C_6  and  C_7
REMARK    7  A    between atoms: C_7  and  C_8
REMARK    8  A    between atoms: C_8  and  C_9
REMARK    9  A    between atoms: C_9  and  O_10
REMARK   10  A    between atoms: O_10  and  C_11
REMARK   11  A    between atoms: C_14  and  N_15
REMARK   12  A    between atoms: C_16  and  O_18
REMARK   13  A    between atoms: O_18  and  N_19
REMARK   14  A    between atoms: C_20  and  C_21
REMARK                            x       y       z     vdW  Elec       q    Type
REMARK                         _______ _______ _______ _____ _____    ______ ____
ROOT
ATOM      1  C   UNL     1       2.479   7.213  19.183  0.00  0.00    +0.000 A 
ATOM      2  C   UNL     1       2.389   7.974  18.018  0.00  0.00    +0.000 A 
ATOM      3  C   UNL     1       1.661   9.158  17.990  0.00  0.00    +0.000 A 
ATOM      4  C   UNL     1       1.001   9.618  19.121  0.00  0.00    +0.000 A 
ATOM      5  C   UNL     1       1.114   8.878  20.308  0.00  0.00    +0.000 A 
ATOM      6  C   UNL     1       1.845   7.677  20.337  0.00  0.00    +0.000 A 
ENDROOT
BRANCH   4   7
ATOM      7  N   UNL     1       0.244  10.804  19.119  0.00  0.00    +0.000 N 
ATOM      8  C   UNL     1      -1.059  10.948  18.691  0.00  0.00    +0.000 C 
ATOM      9  O   UNL     1      -1.833  10.067  18.334  0.00  0.00    +0.000 OA
ATOM     10  H   UNL     1       0.702  11.668  19.368  0.00  0.00    +0.000 HD
BRANCH   8  11
ATOM     11  O   UNL     1      -1.392  12.284  18.667  0.00  0.00    +0.000 OA
BRANCH  11  12
ATOM     12  N   UNL     1      -0.244  12.980  18.257  0.00  0.00    +0.000 NA
ATOM     13  C   UNL     1      -0.037  14.017  18.994  0.00  0.00    +0.000 C 
BRANCH  13  14
ATOM     14  C   UNL     1       1.201  14.797  18.815  0.00  0.00    +0.000 A 
ATOM     15  C   UNL     1       1.202  16.175  19.082  0.00  0.00    +0.000 A 
ATOM     16  C   UNL     1       2.347  16.930  18.835  0.00  0.00    +0.000 A 
ATOM     17  C   UNL     1       3.480  16.304  18.329  0.00  0.00    +0.000 A 
ATOM     18  F   UNL     1       4.576  17.030  18.079  0.00  0.00    +0.000 F 
ATOM     19  C   UNL     1       3.491  14.934  18.070  0.00  0.00    +0.000 A 
ATOM     20  C   UNL     1       2.346  14.172  18.313  0.00  0.00    +0.000 A 
ENDBRANCH  13  14
ENDBRANCH  11  12
ENDBRANCH   8  11
ENDBRANCH   4   7
BRANCH   1  21
ATOM     21  O   UNL     1       3.156   6.017  19.267  0.00  0.00    +0.000 OA
BRANCH  21  22
ATOM     22  C   UNL     1       4.288   5.943  18.396  0.00  0.00    +0.000 C 
BRANCH  22  23
ATOM     23  C   UNL     1       4.000   5.131  17.142  0.00  0.00    +0.000 C 
BRANCH  23  24
ATOM     24  C   UNL     1       4.677   3.762  17.267  0.00  0.00    +0.000 C 
BRANCH  24  25
ATOM     25  C   UNL     1       3.960   2.862  18.264  0.00  0.00    +0.000 C 
BRANCH  25  26
ATOM     26  C   UNL     1       2.589   2.434  17.740  0.00  0.00    +0.000 C 
BRANCH  26  27
ATOM     27  C   UNL     1       1.694   1.964  18.886  0.00  0.00    +0.000 C 
BRANCH  27  28
ATOM     28  C   UNL     1       0.665   3.029  19.264  0.00  0.00    +0.000 C 
BRANCH  28  30
ATOM     29  C   UNL     1       1.604   2.712  21.578  0.00  0.00    +0.000 C 
ATOM     30  C   UNL     1       1.039   3.709  20.580  0.00  0.00    +0.000 C 
ENDBRANCH  28  30
ENDBRANCH  27  28
ENDBRANCH  26  27
ENDBRANCH  25  26
ENDBRANCH  24  25
ENDBRANCH  23  24
ENDBRANCH  22  23
ENDBRANCH  21  22
ENDBRANCH   1  21
TORSDOF 13
ENDMDL
MODEL 9
REMARK VINA RESULT:      -6.8      0.858      1.331
REMARK  Name = 
REMARK  14 active torsions:
REMARK  status: ('A' for Active; 'I' for Inactive)
REMARK    1  A    between atoms: C_1  and  C_2
REMARK    2  A    between atoms: C_2  and  C_3
REMARK    3  A    between atoms: C_3  and  C_4
REMARK    4  A    between atoms: C_4  and  C_5
REMARK    5  A    between atoms: C_5  and  C_6
REMARK    6  A    between atoms: C_6  and  C_7
REMARK    7  A    between atoms: C_7  and  C_8
REMARK    8  A    between atoms: C_8  and  C_9
REMARK    9  A    between atoms: C_9  and  O_10
REMARK   10  A    between atoms: O_10  and  C_11
REMARK   11  A    between atoms: C_14  and  N_15
REMARK   12  A    between atoms: C_16  and  O_18
REMARK   13  A    between atoms: O_18  and  N_19
REMARK   14  A    between atoms: C_20  and  C_21
REMARK                            x       y       z     vdW  Elec       q    Type
REMARK                         _______ _______ _______ _____ _____    ______ ____
ROOT
ATOM      1  C   UNL     1       3.989   3.538  18.101  0.00  0.00    +0.000 A 
ATOM      2  C   UNL     1       4.562   4.353  19.078  0.00  0.00    +0.000 A 
ATOM      3  C   UNL     1       5.398   5.408  18.730  0.00  0.00    +0.000 A 
ATOM      4  C   UNL     1       5.689   5.682  17.401  0.00  0.00    +0.000 A 
ATOM      5  C   UNL     1       5.090   4.890  16.409  0.00  0.00    +0.000 A 
ATOM      6  C   UNL     1       4.248   3.818  16.759  0.00  0.00    +0.000 A 
ENDROOT
BRANCH   4   7
ATOM      7  N   UNL     1       6.544   6.733  17.020  0.00  0.00    +0.000 N 
ATOM      8  C   UNL     1       7.621   7.217  17.732  0.00  0.00    +0.000 C 
ATOM      9  O   UNL     1       8.100   6.767  18.766  0.00  0.00    +0.000 OA
ATOM     10  H   UNL     1       6.317   7.260  16.190  0.00  0.00    +0.000 HD
BRANCH   8  11
ATOM     11  O   UNL     1       8.093   8.362  17.131  0.00  0.00    +0.000 OA
BRANCH  11  12
ATOM     12  N   UNL     1       7.981   9.392  18.078  0.00  0.00    +0.000 NA
ATOM     13  C   UNL     1       9.129   9.918  18.336  0.00  0.00    +0.000 C 
BRANCH  13  14
ATOM     14  C   UNL     1       9.202  11.113  19.197  0.00  0.00    +0.000 A 
ATOM     15  C   UNL     1       9.023  12.388  18.636  0.00  0.00    +0.000 A 
ATOM     16  C   UNL     1       9.173  13.523  19.429  0.00  0.00    +0.000 A 
ATOM     17  C   UNL     1       9.495  13.377  20.773  0.00  0.00    +0.000 A 
ATOM     18  F   UNL     1       9.652  14.467  21.534  0.00  0.00    +0.000 F 
ATOM     19  C   UNL     1       9.665  12.115  21.340  0.00  0.00    +0.000 A 
ATOM     20  C   UNL     1       9.518  10.973  20.550  0.00  0.00    +0.000 A 
ENDBRANCH  13  14
ENDBRANCH  11  12
ENDBRANCH   8  11
ENDBRANCH   4   7
BRANCH   1  21
ATOM     21  O   UNL     1       3.181   2.460  18.381  0.00  0.00    +0.000 OA
BRANCH  21  22
ATOM     22  C   UNL     1       1.993   2.811  19.097  0.00  0.00    +0.000 C 
BRANCH  22  23
ATOM     23  C   UNL     1       2.120   2.548  20.590  0.00  0.00    +0.000 C 
BRANCH  23  24
ATOM     24  C   UNL     1       1.770   3.828  21.355  0.00  0.00    +0.000 C 
BRANCH  24  25
ATOM     25  C   UNL     1       1.084   4.854  20.464  0.00  0.00    +0.000 C 
BRANCH  25  26
ATOM     26  C   UNL     1       1.730   6.233  20.606  0.00  0.00    +0.000 C 
BRANCH  26  27
ATOM     27  C   UNL     1       0.720   7.253  21.129  0.00  0.00    +0.000 C 
BRANCH  27  28
ATOM     28  C   UNL     1       1.404   8.556  21.539  0.00  0.00    +0.000 C 
BRANCH  28  30
ATOM     29  C   UNL     1      -0.383   9.550  23.008  0.00  0.00    +0.000 C 
ATOM     30  C   UNL     1       0.384   9.682  21.703  0.00  0.00    +0.000 C 
ENDBRANCH  28  30
ENDBRANCH  27  28
ENDBRANCH  26  27
ENDBRANCH  25  26
ENDBRANCH  24  25
ENDBRANCH  23  24
ENDBRANCH  22  23
ENDBRANCH  21  22
ENDBRANCH   1  21
TORSDOF 13
ENDMDL
