MODEL 1
REMARK VINA RESULT:      -7.3      0.000      0.000
REMARK  Name = 
REMARK  5 active torsions:
REMARK  status: ('A' for Active; 'I' for Inactive)
REMARK    1  A    between atoms: N_1  and  C_2
REMARK    2  A    between atoms: C_2  and  C_3
REMARK    3  A    between atoms: C_3  and  N_4
REMARK    4  A    between atoms: N_4  and  C_5
REMARK    5  A    between atoms: C_5  and  C_6
REMARK                            x       y       z     vdW  Elec       q    Type
REMARK                         _______ _______ _______ _____ _____    ______ ____
ROOT
ATOM      1  C   UNL     1       3.166   5.807  18.327  0.00  0.00    +0.000 A 
ATOM      2  C   UNL     1       2.567   4.696  19.001  0.00  0.00    +0.000 A 
ATOM      3  C   UNL     1       1.651   4.861  20.073  0.00  0.00    +0.000 A 
ATOM      4  C   UNL     1       1.100   3.758  20.725  0.00  0.00    +0.000 A 
ATOM      5  C   UNL     1       1.433   2.468  20.328  0.00  0.00    +0.000 A 
ATOM      6  C   UNL     1       2.318   2.272  19.270  0.00  0.00    +0.000 A 
ATOM      7  C   UNL     1       2.889   3.372  18.605  0.00  0.00    +0.000 A 
ATOM      8  C   UNL     1       3.773   3.147  17.555  0.00  0.00    +0.000 A 
ATOM      9  C   UNL     1       4.365   4.214  16.877  0.00  0.00    +0.000 A 
ATOM     10  C   UNL     1       5.255   3.937  15.824  0.00  0.00    +0.000 A 
ATOM     11  C   UNL     1       5.871   4.973  15.129  0.00  0.00    +0.000 A 
ATOM     12  C   UNL     1       5.608   6.293  15.474  0.00  0.00    +0.000 A 
ATOM     13  C   UNL     1       4.727   6.589  16.516  0.00  0.00    +0.000 A 
ATOM     14  C   UNL     1       4.078   5.557  17.246  0.00  0.00    +0.000 A 
ENDROOT
BRANCH   1  15
ATOM     15  C   UNL     1       2.827   7.228  18.791  0.00  0.00    +0.000 C 
BRANCH  15  16
ATOM     16  N   UNL     1       1.884   7.885  17.876  0.00  0.00    +0.000 NA
ATOM     17  H   UNL     1       2.069   7.533  16.907  0.00  0.00    +0.000 HD
BRANCH  16  18
ATOM     18  C   UNL     1       1.990   9.350  17.886  0.00  0.00    +0.000 C 
BRANCH  18  19
ATOM     19  C   UNL     1       0.799   9.945  18.639  0.00  0.00    +0.000 C 
BRANCH  19  20
ATOM     20  N   UNL     1      -0.307  10.203  17.720  0.00  0.00    +0.000 NA
ATOM     21  H   UNL     1      -0.748  11.117  17.970  0.00  0.00    +0.000 HD
ATOM     22  H   UNL     1      -1.027   9.453  17.833  0.00  0.00    +0.000 HD
ENDBRANCH  19  20
ENDBRANCH  18  19
ENDBRANCH  16  18
ENDBRANCH  15  16
ENDBRANCH   1  15
TORSDOF 5
ENDMDL
MODEL 2
REMARK VINA RESULT:      -7.2      0.063      4.201
REMARK  Name = 
REMARK  5 active torsions:
REMARK  status: ('A' for Active; 'I' for Inactive)
REMARK    1  A    between atoms: N_1  and  C_2
REMARK    2  A    between atoms: C_2  and  C_3
REMARK    3  A    between atoms: C_3  and  N_4
REMARK    4  A    between atoms: N_4  and  C_5
REMARK    5  A    between atoms: C_5  and  C_6
REMARK                            x       y       z     vdW  Elec       q    Type
REMARK                         _______ _______ _______ _____ _____    ______ ____
ROOT
ATOM      1  C   UNL     1       3.172   5.800  18.351  0.00  0.00    +0.000 A 
ATOM      2  C   UNL     1       4.077   5.555  17.270  0.00  0.00    +0.000 A 
ATOM      3  C   UNL     1       4.730   6.605  16.574  0.00  0.00    +0.000 A 
ATOM      4  C   UNL     1       5.591   6.338  15.509  0.00  0.00    +0.000 A 
ATOM      5  C   UNL     1       5.833   5.027  15.114  0.00  0.00    +0.000 A 
ATOM      6  C   UNL     1       5.218   3.972  15.786  0.00  0.00    +0.000 A 
ATOM      7  C   UNL     1       4.343   4.224  16.857  0.00  0.00    +0.000 A 
ATOM      8  C   UNL     1       3.739   3.153  17.507  0.00  0.00    +0.000 A 
ATOM      9  C   UNL     1       2.858   3.364  18.569  0.00  0.00    +0.000 A 
ATOM     10  C   UNL     1       2.270   2.249  19.193  0.00  0.00    +0.000 A 
ATOM     11  C   UNL     1       1.381   2.419  20.250  0.00  0.00    +0.000 A 
ATOM     12  C   UNL     1       1.069   3.698  20.695  0.00  0.00    +0.000 A 
ATOM     13  C   UNL     1       1.643   4.817  20.090  0.00  0.00    +0.000 A 
ATOM     14  C   UNL     1       2.556   4.682  19.009  0.00  0.00    +0.000 A 
ENDROOT
BRANCH   1  15
ATOM     15  C   UNL     1       2.877   7.247  18.761  0.00  0.00    +0.000 C 
BRANCH  15  16
ATOM     16  N   UNL     1       1.847   7.851  17.907  0.00  0.00    +0.000 NA
ATOM     17  H   UNL     1       1.962   7.472  16.937  0.00  0.00    +0.000 HD
BRANCH  16  18
ATOM     18  C   UNL     1       1.916   9.318  17.863  0.00  0.00    +0.000 C 
BRANCH  18  19
ATOM     19  C   UNL     1       0.734   9.909  18.633  0.00  0.00    +0.000 C 
BRANCH  19  20
ATOM     20  N   UNL     1      -0.350  10.254  17.716  0.00  0.00    +0.000 NA
ATOM     21  H   UNL     1      -0.963  10.969  18.170  0.00  0.00    +0.000 HD
ATOM     22  H   UNL     1      -0.926   9.401  17.531  0.00  0.00    +0.000 HD
ENDBRANCH  19  20
ENDBRANCH  18  19
ENDBRANCH  16  18
ENDBRANCH  15  16
ENDBRANCH   1  15
TORSDOF 5
ENDMDL
MODEL 3
REMARK VINA RESULT:      -7.1      2.379      4.882
REMARK  Name = 
REMARK  5 active torsions:
REMARK  status: ('A' for Active; 'I' for Inactive)
REMARK    1  A    between atoms: N_1  and  C_2
REMARK    2  A    between atoms: C_2  and  C_3
REMARK    3  A    between atoms: C_3  and  N_4
REMARK    4  A    between atoms: N_4  and  C_5
REMARK    5  A    between atoms: C_5  and  C_6
REMARK                            x       y       z     vdW  Elec       q    Type
REMARK                         _______ _______ _______ _____ _____    ______ ____
ROOT
ATOM      1  C   UNL     1       3.449   5.796  18.489  0.00  0.00    +0.000 A 
ATOM      2  C   UNL     1       3.243   4.749  19.442  0.00  0.00    +0.000 A 
ATOM      3  C   UNL     1       3.893   3.492  19.343  0.00  0.00    +0.000 A 
ATOM      4  C   UNL     1       3.656   2.481  20.274  0.00  0.00    +0.000 A 
ATOM      5  C   UNL     1       2.776   2.693  21.331  0.00  0.00    +0.000 A 
ATOM      6  C   UNL     1       2.131   3.921  21.465  0.00  0.00    +0.000 A 
ATOM      7  C   UNL     1       2.354   4.948  20.531  0.00  0.00    +0.000 A 
ATOM      8  C   UNL     1       1.694   6.163  20.685  0.00  0.00    +0.000 A 
ATOM      9  C   UNL     1       1.885   7.203  19.775  0.00  0.00    +0.000 A 
ATOM     10  C   UNL     1       1.193   8.412  19.971  0.00  0.00    +0.000 A 
ATOM     11  C   UNL     1       1.350   9.468  19.080  0.00  0.00    +0.000 A 
ATOM     12  C   UNL     1       2.196   9.333  17.986  0.00  0.00    +0.000 A 
ATOM     13  C   UNL     1       2.892   8.142  17.774  0.00  0.00    +0.000 A 
ATOM     14  C   UNL     1       2.758   7.043  18.664  0.00  0.00    +0.000 A 
ENDROOT
BRANCH   1  15
ATOM     15  C   UNL     1       4.390   5.548  17.304  0.00  0.00    +0.000 C 
BRANCH  15  16
ATOM     16  N   UNL     1       5.695   6.191  17.507  0.00  0.00    +0.000 NA
ATOM     17  H   UNL     1       5.999   6.607  16.596  0.00  0.00    +0.000 HD
BRANCH  16  18
ATOM     18  C   UNL     1       6.730   5.263  17.983  0.00  0.00    +0.000 C 
BRANCH  18  19
ATOM     19  C   UNL     1       7.755   6.028  18.823  0.00  0.00    +0.000 C 
BRANCH  19  20
ATOM     20  N   UNL     1       7.810   5.486  20.178  0.00  0.00    +0.000 NA
ATOM     21  H   UNL     1       7.438   6.201  20.844  0.00  0.00    +0.000 HD
ATOM     22  H   UNL     1       8.807   5.293  20.430  0.00  0.00    +0.000 HD
ENDBRANCH  19  20
ENDBRANCH  18  19
ENDBRANCH  16  18
ENDBRANCH  15  16
ENDBRANCH   1  15
TORSDOF 5
ENDMDL
MODEL 4
REMARK VINA RESULT:      -7.1      2.387      5.610
REMARK  Name = 
REMARK  5 active torsions:
REMARK  status: ('A' for Active; 'I' for Inactive)
REMARK    1  A    between atoms: N_1  and  C_2
REMARK    2  A    between atoms: C_2  and  C_3
REMARK    3  A    between atoms: C_3  and  N_4
REMARK    4  A    between atoms: N_4  and  C_5
REMARK    5  A    between atoms: C_5  and  C_6
REMARK                            x       y       z     vdW  Elec       q    Type
REMARK                         _______ _______ _______ _____ _____    ______ ____
ROOT
ATOM      1  C   UNL     1       3.391   5.795  18.498  0.00  0.00    +0.000 A 
ATOM      2  C   UNL     1       2.713   7.041  18.687  0.00  0.00    +0.000 A 
ATOM      3  C   UNL     1       2.863   8.132  17.791  0.00  0.00    +0.000 A 
ATOM      4  C   UNL     1       2.207   9.343  18.012  0.00  0.00    +0.000 A 
ATOM      5  C   UNL     1       1.380   9.500  19.120  0.00  0.00    +0.000 A 
ATOM      6  C   UNL     1       1.200   8.445  20.011  0.00  0.00    +0.000 A 
ATOM      7  C   UNL     1       1.859   7.220  19.806  0.00  0.00    +0.000 A 
ATOM      8  C   UNL     1       1.665   6.184  20.715  0.00  0.00    +0.000 A 
ATOM      9  C   UNL     1       2.308   4.956  20.549  0.00  0.00    +0.000 A 
ATOM     10  C   UNL     1       2.084   3.940  21.495  0.00  0.00    +0.000 A 
ATOM     11  C   UNL     1       2.713   2.706  21.368  0.00  0.00    +0.000 A 
ATOM     12  C   UNL     1       3.571   2.471  20.301  0.00  0.00    +0.000 A 
ATOM     13  C   UNL     1       3.807   3.466  19.351  0.00  0.00    +0.000 A 
ATOM     14  C   UNL     1       3.180   4.738  19.447  0.00  0.00    +0.000 A 
ENDROOT
BRANCH   1  15
ATOM     15  C   UNL     1       4.331   5.635  17.299  0.00  0.00    +0.000 C 
BRANCH  15  16
ATOM     16  N   UNL     1       5.647   6.234  17.560  0.00  0.00    +0.000 NA
ATOM     17  H   UNL     1       6.035   6.580  16.651  0.00  0.00    +0.000 HD
BRANCH  16  18
ATOM     18  C   UNL     1       6.600   5.296  18.167  0.00  0.00    +0.000 C 
BRANCH  18  19
ATOM     19  C   UNL     1       7.726   6.078  18.847  0.00  0.00    +0.000 C 
BRANCH  19  20
ATOM     20  N   UNL     1       8.008   5.520  20.167  0.00  0.00    +0.000 NA
ATOM     21  H   UNL     1       8.691   6.140  20.659  0.00  0.00    +0.000 HD
ATOM     22  H   UNL     1       8.448   4.577  20.054  0.00  0.00    +0.000 HD
ENDBRANCH  19  20
ENDBRANCH  18  19
ENDBRANCH  16  18
ENDBRANCH  15  16
ENDBRANCH   1  15
TORSDOF 5
ENDMDL
MODEL 5
REMARK VINA RESULT:      -7.1      2.278      4.945
REMARK  Name = 
REMARK  5 active torsions:
REMARK  status: ('A' for Active; 'I' for Inactive)
REMARK    1  A    between atoms: N_1  and  C_2
REMARK    2  A    between atoms: C_2  and  C_3
REMARK    3  A    between atoms: C_3  and  N_4
REMARK    4  A    between atoms: N_4  and  C_5
REMARK    5  A    between atoms: C_5  and  C_6
REMARK                            x       y       z     vdW  Elec       q    Type
REMARK                         _______ _______ _______ _____ _____    ______ ____
ROOT
ATOM      1  C   UNL     1       3.403   5.766  18.406  0.00  0.00    +0.000 A 
ATOM      2  C   UNL     1       3.224   4.728  19.374  0.00  0.00    +0.000 A 
ATOM      3  C   UNL     1       3.855   3.463  19.258  0.00  0.00    +0.000 A 
ATOM      4  C   UNL     1       3.644   2.462  20.206  0.00  0.00    +0.000 A 
ATOM      5  C   UNL     1       2.812   2.692  21.297  0.00  0.00    +0.000 A 
ATOM      6  C   UNL     1       2.188   3.929  21.448  0.00  0.00    +0.000 A 
ATOM      7  C   UNL     1       2.384   4.946  20.498  0.00  0.00    +0.000 A 
ATOM      8  C   UNL     1       1.745   6.170  20.670  0.00  0.00    +0.000 A 
ATOM      9  C   UNL     1       1.910   7.201  19.744  0.00  0.00    +0.000 A 
ATOM     10  C   UNL     1       1.241   8.419  19.960  0.00  0.00    +0.000 A 
ATOM     11  C   UNL     1       1.374   9.468  19.056  0.00  0.00    +0.000 A 
ATOM     12  C   UNL     1       2.172   9.315  17.928  0.00  0.00    +0.000 A 
ATOM     13  C   UNL     1       2.845   8.114  17.696  0.00  0.00    +0.000 A 
ATOM     14  C   UNL     1       2.734   7.022  18.599  0.00  0.00    +0.000 A 
ENDROOT
BRANCH   1  15
ATOM     15  C   UNL     1       4.291   5.498  17.185  0.00  0.00    +0.000 C 
BRANCH  15  16
ATOM     16  N   UNL     1       5.693   5.845  17.450  0.00  0.00    +0.000 NA
ATOM     17  H   UNL     1       5.930   6.699  16.893  0.00  0.00    +0.000 HD
BRANCH  16  18
ATOM     18  C   UNL     1       6.632   4.768  17.105  0.00  0.00    +0.000 C 
BRANCH  18  19
ATOM     19  C   UNL     1       6.551   4.479  15.605  0.00  0.00    +0.000 C 
BRANCH  19  20
ATOM     20  N   UNL     1       7.549   5.261  14.881  0.00  0.00    +0.000 NA
ATOM     21  H   UNL     1       8.351   4.639  14.630  0.00  0.00    +0.000 HD
ATOM     22  H   UNL     1       7.909   6.019  15.506  0.00  0.00    +0.000 HD
ENDBRANCH  19  20
ENDBRANCH  18  19
ENDBRANCH  16  18
ENDBRANCH  15  16
ENDBRANCH   1  15
TORSDOF 5
ENDMDL
MODEL 6
REMARK VINA RESULT:      -7.0      2.274      5.642
REMARK  Name = 
REMARK  5 active torsions:
REMARK  status: ('A' for Active; 'I' for Inactive)
REMARK    1  A    between atoms: N_1  and  C_2
REMARK    2  A    between atoms: C_2  and  C_3
REMARK    3  A    between atoms: C_3  and  N_4
REMARK    4  A    between atoms: N_4  and  C_5
REMARK    5  A    between atoms: C_5  and  C_6
REMARK                            x       y       z     vdW  Elec       q    Type
REMARK                         _______ _______ _______ _____ _____    ______ ____
ROOT
ATOM      1  C   UNL     1       3.385   5.740  18.416  0.00  0.00    +0.000 A 
ATOM      2  C   UNL     1       2.727   6.994  18.618  0.00  0.00    +0.000 A 
ATOM      3  C   UNL     1       2.852   8.073  17.704  0.00  0.00    +0.000 A 
ATOM      4  C   UNL     1       2.216   9.293  17.937  0.00  0.00    +0.000 A 
ATOM      5  C   UNL     1       1.435   9.471  19.074  0.00  0.00    +0.000 A 
ATOM      6  C   UNL     1       1.281   8.427  19.984  0.00  0.00    +0.000 A 
ATOM      7  C   UNL     1       1.920   7.194  19.768  0.00  0.00    +0.000 A 
ATOM      8  C   UNL     1       1.753   6.170  20.695  0.00  0.00    +0.000 A 
ATOM      9  C   UNL     1       2.378   4.935  20.518  0.00  0.00    +0.000 A 
ATOM     10  C   UNL     1       2.182   3.931  21.484  0.00  0.00    +0.000 A 
ATOM     11  C   UNL     1       2.794   2.689  21.347  0.00  0.00    +0.000 A 
ATOM     12  C   UNL     1       3.606   2.434  20.250  0.00  0.00    +0.000 A 
ATOM     13  C   UNL     1       3.813   3.416  19.279  0.00  0.00    +0.000 A 
ATOM     14  C   UNL     1       3.203   4.695  19.385  0.00  0.00    +0.000 A 
ENDROOT
BRANCH   1  15
ATOM     15  C   UNL     1       4.276   5.557  17.182  0.00  0.00    +0.000 C 
BRANCH  15  16
ATOM     16  N   UNL     1       5.685   5.833  17.488  0.00  0.00    +0.000 NA
ATOM     17  H   UNL     1       5.962   6.711  16.990  0.00  0.00    +0.000 HD
BRANCH  16  18
ATOM     18  C   UNL     1       6.589   4.746  17.088  0.00  0.00    +0.000 C 
BRANCH  18  19
ATOM     19  C   UNL     1       6.499   4.535  15.575  0.00  0.00    +0.000 C 
BRANCH  19  20
ATOM     20  N   UNL     1       7.510   5.335  14.889  0.00  0.00    +0.000 NA
ATOM     21  H   UNL     1       8.451   4.910  15.059  0.00  0.00    +0.000 HD
ATOM     22  H   UNL     1       7.513   6.301  15.290  0.00  0.00    +0.000 HD
ENDBRANCH  19  20
ENDBRANCH  18  19
ENDBRANCH  16  18
ENDBRANCH  15  16
ENDBRANCH   1  15
TORSDOF 5
ENDMDL
MODEL 7
REMARK VINA RESULT:      -7.0      2.237      4.900
REMARK  Name = 
REMARK  5 active torsions:
REMARK  status: ('A' for Active; 'I' for Inactive)
REMARK    1  A    between atoms: N_1  and  C_2
REMARK    2  A    between atoms: C_2  and  C_3
REMARK    3  A    between atoms: C_3  and  N_4
REMARK    4  A    between atoms: N_4  and  C_5
REMARK    5  A    between atoms: C_5  and  C_6
REMARK                            x       y       z     vdW  Elec       q    Type
REMARK                         _______ _______ _______ _____ _____    ______ ____
ROOT
ATOM      1  C   UNL     1       2.568   6.048  19.798  0.00  0.00    +0.000 A 
ATOM      2  C   UNL     1       1.916   7.318  19.897  0.00  0.00    +0.000 A 
ATOM      3  C   UNL     1       1.045   7.644  20.969  0.00  0.00    +0.000 A 
ATOM      4  C   UNL     1       0.406   8.882  21.028  0.00  0.00    +0.000 A 
ATOM      5  C   UNL     1       0.620   9.831  20.034  0.00  0.00    +0.000 A 
ATOM      6  C   UNL     1       1.480   9.548  18.975  0.00  0.00    +0.000 A 
ATOM      7  C   UNL     1       2.127   8.303  18.896  0.00  0.00    +0.000 A 
ATOM      8  C   UNL     1       2.978   8.044  17.826  0.00  0.00    +0.000 A 
ATOM      9  C   UNL     1       3.632   6.817  17.710  0.00  0.00    +0.000 A 
ATOM     10  C   UNL     1       4.479   6.602  16.608  0.00  0.00    +0.000 A 
ATOM     11  C   UNL     1       5.142   5.389  16.454  0.00  0.00    +0.000 A 
ATOM     12  C   UNL     1       4.968   4.379  17.392  0.00  0.00    +0.000 A 
ATOM     13  C   UNL     1       4.132   4.573  18.493  0.00  0.00    +0.000 A 
ATOM     14  C   UNL     1       3.441   5.799  18.685  0.00  0.00    +0.000 A 
ENDROOT
BRANCH   1  15
ATOM     15  C   UNL     1       2.302   4.990  20.874  0.00  0.00    +0.000 C 
BRANCH  15  16
ATOM     16  N   UNL     1       1.089   4.215  20.581  0.00  0.00    +0.000 NA
ATOM     17  H   UNL     1       0.447   4.288  21.405  0.00  0.00    +0.000 HD
BRANCH  16  18
ATOM     18  C   UNL     1       1.360   2.798  20.304  0.00  0.00    +0.000 C 
BRANCH  18  19
ATOM     19  C   UNL     1       0.972   2.474  18.860  0.00  0.00    +0.000 C 
BRANCH  19  20
ATOM     20  N   UNL     1       2.028   1.703  18.209  0.00  0.00    +0.000 NA
ATOM     21  H   UNL     1       1.692   1.396  17.268  0.00  0.00    +0.000 HD
ATOM     22  H   UNL     1       2.228   0.848  18.778  0.00  0.00    +0.000 HD
ENDBRANCH  19  20
ENDBRANCH  18  19
ENDBRANCH  16  18
ENDBRANCH  15  16
ENDBRANCH   1  15
TORSDOF 5
ENDMDL
MODEL 8
REMARK VINA RESULT:      -7.0      2.935      4.646
REMARK  Name = 
REMARK  5 active torsions:
REMARK  status: ('A' for Active; 'I' for Inactive)
REMARK    1  A    between atoms: N_1  and  C_2
REMARK    2  A    between atoms: C_2  and  C_3
REMARK    3  A    between atoms: C_3  and  N_4
REMARK    4  A    between atoms: N_4  and  C_5
REMARK    5  A    between atoms: C_5  and  C_6
REMARK                            x       y       z     vdW  Elec       q    Type
REMARK                         _______ _______ _______ _____ _____    ______ ____
ROOT
ATOM      1  C   UNL     1       4.073   4.709  18.640  0.00  0.00    +0.000 A 
ATOM      2  C   UNL     1       3.502   3.944  19.706  0.00  0.00    +0.000 A 
ATOM      3  C   UNL     1       3.934   2.627  20.013  0.00  0.00    +0.000 A 
ATOM      4  C   UNL     1       3.345   1.896  21.044  0.00  0.00    +0.000 A 
ATOM      5  C   UNL     1       2.319   2.453  21.801  0.00  0.00    +0.000 A 
ATOM      6  C   UNL     1       1.880   3.748  21.534  0.00  0.00    +0.000 A 
ATOM      7  C   UNL     1       2.459   4.496  20.494  0.00  0.00    +0.000 A 
ATOM      8  C   UNL     1       1.999   5.786  20.246  0.00  0.00    +0.000 A 
ATOM      9  C   UNL     1       2.544   6.556  19.218  0.00  0.00    +0.000 A 
ATOM     10  C   UNL     1       2.044   7.852  19.004  0.00  0.00    +0.000 A 
ATOM     11  C   UNL     1       2.556   8.647  17.984  0.00  0.00    +0.000 A 
ATOM     12  C   UNL     1       3.569   8.161  17.167  0.00  0.00    +0.000 A 
ATOM     13  C   UNL     1       4.081   6.877  17.364  0.00  0.00    +0.000 A 
ATOM     14  C   UNL     1       3.583   6.037  18.397  0.00  0.00    +0.000 A 
ENDROOT
BRANCH   1  15
ATOM     15  C   UNL     1       5.177   4.081  17.782  0.00  0.00    +0.000 C 
BRANCH  15  16
ATOM     16  N   UNL     1       6.485   4.155  18.445  0.00  0.00    +0.000 NA
ATOM     17  H   UNL     1       6.328   4.400  19.451  0.00  0.00    +0.000 HD
BRANCH  16  18
ATOM     18  C   UNL     1       7.385   5.147  17.842  0.00  0.00    +0.000 C 
BRANCH  18  19
ATOM     19  C   UNL     1       7.847   6.138  18.913  0.00  0.00    +0.000 C 
BRANCH  19  20
ATOM     20  N   UNL     1       7.876   5.494  20.223  0.00  0.00    +0.000 NA
ATOM     21  H   UNL     1       7.409   6.121  20.919  0.00  0.00    +0.000 HD
ATOM     22  H   UNL     1       8.871   5.364  20.519  0.00  0.00    +0.000 HD
ENDBRANCH  19  20
ENDBRANCH  18  19
ENDBRANCH  16  18
ENDBRANCH  15  16
ENDBRANCH   1  15
TORSDOF 5
ENDMDL
MODEL 9
REMARK VINA RESULT:      -7.0      2.239      5.764
REMARK  Name = 
REMARK  5 active torsions:
REMARK  status: ('A' for Active; 'I' for Inactive)
REMARK    1  A    between atoms: N_1  and  C_2
REMARK    2  A    between atoms: C_2  and  C_3
REMARK    3  A    between atoms: C_3  and  N_4
REMARK    4  A    between atoms: N_4  and  C_5
REMARK    5  A    between atoms: C_5  and  C_6
REMARK                            x       y       z     vdW  Elec       q    Type
REMARK                         _______ _______ _______ _____ _____    ______ ____
ROOT
ATOM      1  C   UNL     1       2.554   6.065  19.780  0.00  0.00    +0.000 A 
ATOM      2  C   UNL     1       3.417   5.821  18.665  0.00  0.00    +0.000 A 
ATOM      3  C   UNL     1       4.096   4.588  18.485  0.00  0.00    +0.000 A 
ATOM      4  C   UNL     1       4.949   4.386  17.400  0.00  0.00    +0.000 A 
ATOM      5  C   UNL     1       5.144   5.395  16.463  0.00  0.00    +0.000 A 
ATOM      6  C   UNL     1       4.482   6.613  16.604  0.00  0.00    +0.000 A 
ATOM      7  C   UNL     1       3.624   6.835  17.694  0.00  0.00    +0.000 A 
ATOM      8  C   UNL     1       2.979   8.063  17.813  0.00  0.00    +0.000 A 
ATOM      9  C   UNL     1       2.126   8.322  18.886  0.00  0.00    +0.000 A 
ATOM     10  C   UNL     1       1.499   9.579  18.964  0.00  0.00    +0.000 A 
ATOM     11  C   UNL     1       0.647   9.879  20.023  0.00  0.00    +0.000 A 
ATOM     12  C   UNL     1       0.413   8.933  21.014  0.00  0.00    +0.000 A 
ATOM     13  C   UNL     1       1.025   7.680  20.954  0.00  0.00    +0.000 A 
ATOM     14  C   UNL     1       1.898   7.338  19.887  0.00  0.00    +0.000 A 
ENDROOT
BRANCH   1  15
ATOM     15  C   UNL     1       2.369   4.965  20.832  0.00  0.00    +0.000 C 
BRANCH  15  16
ATOM     16  N   UNL     1       1.122   4.219  20.620  0.00  0.00    +0.000 NA
ATOM     17  H   UNL     1       0.531   4.320  21.478  0.00  0.00    +0.000 HD
BRANCH  16  18
ATOM     18  C   UNL     1       1.340   2.791  20.349  0.00  0.00    +0.000 C 
BRANCH  18  19
ATOM     19  C   UNL     1       0.968   2.483  18.898  0.00  0.00    +0.000 C 
BRANCH  19  20
ATOM     20  N   UNL     1       2.017   1.692  18.260  0.00  0.00    +0.000 NA
ATOM     21  H   UNL     1       2.103   0.777  18.759  0.00  0.00    +0.000 HD
ATOM     22  H   UNL     1       2.929   2.198  18.349  0.00  0.00    +0.000 HD
ENDBRANCH  19  20
ENDBRANCH  18  19
ENDBRANCH  16  18
ENDBRANCH  15  16
ENDBRANCH   1  15
TORSDOF 5
ENDMDL
