MODEL 1
REMARK VINA RESULT:      -7.3      0.000      0.000
REMARK  Name = 
REMARK  4 active torsions:
REMARK  status: ('A' for Active; 'I' for Inactive)
REMARK    1  A    between atoms: C_1  and  O_2
REMARK    2  A    between atoms: O_2  and  C_3
REMARK    3  A    between atoms: C_10  and  C_11
REMARK    4  A    between atoms: N_16  and  C_17
REMARK                            x       y       z     vdW  Elec       q    Type
REMARK                         _______ _______ _______ _____ _____    ______ ____
ROOT
ATOM      1  C   UNL     1      -0.221  12.912  20.266  0.00  0.00    +0.000 A 
ATOM      2  C   UNL     1      -0.353  12.304  21.511  0.00  0.00    +0.000 A 
ATOM      3  C   UNL     1       0.134  11.002  21.711  0.00  0.00    +0.000 A 
ATOM      4  C   UNL     1       0.738  10.275  20.695  0.00  0.00    +0.000 A 
ATOM      5  N   UNL     1       1.126   9.013  20.934  0.00  0.00    +0.000 NA
ATOM      6  C   UNL     1       1.617   8.351  19.866  0.00  0.00    +0.000 A 
ATOM      7  S   UNL     1       2.100   6.719  19.969  0.00  0.00    +0.000 S 
ATOM      8  C   UNL     1       2.542   6.671  18.311  0.00  0.00    +0.000 A 
ATOM      9  C   UNL     1       2.266   7.872  17.690  0.00  0.00    +0.000 A 
ATOM     10  C   UNL     1       1.788   8.867  18.590  0.00  0.00    +0.000 A 
ATOM     11  C   UNL     1       1.448  10.210  18.387  0.00  0.00    +0.000 A 
ATOM     12  C   UNL     1       0.882  10.916  19.446  0.00  0.00    +0.000 A 
ATOM     13  C   UNL     1       0.430  12.224  19.248  0.00  0.00    +0.000 A 
ENDROOT
BRANCH   8  14
ATOM     14  C   UNL     1       3.071   5.448  17.729  0.00  0.00    +0.000 C 
ATOM     15  O   UNL     1       2.384   4.433  17.600  0.00  0.00    +0.000 OA
ATOM     16  N   UNL     1       4.399   5.477  17.259  0.00  0.00    +0.000 N 
ATOM     17  C   UNL     1       4.878   4.253  16.610  0.00  0.00    +0.000 C 
ATOM     18  C   UNL     1       6.177   4.463  15.807  0.00  0.00    +0.000 C 
ATOM     19  N   UNL     1       7.250   5.181  16.524  0.00  0.00    +0.000 NA
ATOM     20  C   UNL     1       7.854   4.354  17.568  0.00  0.00    +0.000 C 
ATOM     21  C   UNL     1       6.706   6.434  17.076  0.00  0.00    +0.000 C 
ATOM     22  C   UNL     1       5.447   6.252  17.942  0.00  0.00    +0.000 C 
ENDBRANCH   8  14
BRANCH   1  24
ATOM     23  C   UNL     1      -0.071  14.747  18.774  0.00  0.00    +0.000 C 
ATOM     24  O   UNL     1      -0.676  14.148  19.911  0.00  0.00    +0.000 OA
ENDBRANCH   1  24
TORSDOF 2
ENDMDL
MODEL 2
REMARK VINA RESULT:      -7.0      2.314      8.269
REMARK  Name = 
REMARK  4 active torsions:
REMARK  status: ('A' for Active; 'I' for Inactive)
REMARK    1  A    between atoms: C_1  and  O_2
REMARK    2  A    between atoms: O_2  and  C_3
REMARK    3  A    between atoms: C_10  and  C_11
REMARK    4  A    between atoms: N_16  and  C_17
REMARK                            x       y       z     vdW  Elec       q    Type
REMARK                         _______ _______ _______ _____ _____    ______ ____
ROOT
ATOM      1  C   UNL     1       5.461   4.603  17.342  0.00  0.00    +0.000 A 
ATOM      2  C   UNL     1       5.208   4.152  18.633  0.00  0.00    +0.000 A 
ATOM      3  C   UNL     1       4.264   4.813  19.436  0.00  0.00    +0.000 A 
ATOM      4  C   UNL     1       3.572   5.933  18.993  0.00  0.00    +0.000 A 
ATOM      5  N   UNL     1       2.731   6.556  19.830  0.00  0.00    +0.000 NA
ATOM      6  C   UNL     1       2.173   7.686  19.348  0.00  0.00    +0.000 A 
ATOM      7  S   UNL     1       1.127   8.643  20.295  0.00  0.00    +0.000 S 
ATOM      8  C   UNL     1       0.911   9.784  19.032  0.00  0.00    +0.000 A 
ATOM      9  C   UNL     1       1.677   9.456  17.932  0.00  0.00    +0.000 A 
ATOM     10  C   UNL     1       2.362   8.217  18.081  0.00  0.00    +0.000 A 
ATOM     11  C   UNL     1       3.185   7.505  17.200  0.00  0.00    +0.000 A 
ATOM     12  C   UNL     1       3.828   6.363  17.673  0.00  0.00    +0.000 A 
ATOM     13  C   UNL     1       4.741   5.689  16.857  0.00  0.00    +0.000 A 
ENDROOT
BRANCH   8  14
ATOM     14  C   UNL     1       0.056  10.943  19.230  0.00  0.00    +0.000 C 
ATOM     15  O   UNL     1      -1.171  10.878  19.134  0.00  0.00    +0.000 OA
ATOM     16  N   UNL     1       0.680  12.152  19.597  0.00  0.00    +0.000 N 
ATOM     17  C   UNL     1      -0.214  13.283  19.863  0.00  0.00    +0.000 C 
ATOM     18  C   UNL     1       0.483  14.445  20.600  0.00  0.00    +0.000 C 
ATOM     19  N   UNL     1       1.776  14.868  20.024  0.00  0.00    +0.000 NA
ATOM     20  C   UNL     1       1.601  15.580  18.758  0.00  0.00    +0.000 C 
ATOM     21  C   UNL     1       2.641  13.687  19.864  0.00  0.00    +0.000 C 
ATOM     22  C   UNL     1       2.002  12.533  19.072  0.00  0.00    +0.000 C 
ENDBRANCH   8  14
BRANCH   1  24
ATOM     23  C   UNL     1       6.079   4.244  15.083  0.00  0.00    +0.000 C 
ATOM     24  O   UNL     1       6.371   4.091  16.464  0.00  0.00    +0.000 OA
ENDBRANCH   1  24
TORSDOF 2
ENDMDL
MODEL 3
REMARK VINA RESULT:      -7.0      2.695      8.489
REMARK  Name = 
REMARK  4 active torsions:
REMARK  status: ('A' for Active; 'I' for Inactive)
REMARK    1  A    between atoms: C_1  and  O_2
REMARK    2  A    between atoms: O_2  and  C_3
REMARK    3  A    between atoms: C_10  and  C_11
REMARK    4  A    between atoms: N_16  and  C_17
REMARK                            x       y       z     vdW  Elec       q    Type
REMARK                         _______ _______ _______ _____ _____    ______ ____
ROOT
ATOM      1  C   UNL     1       5.825   4.928  16.720  0.00  0.00    +0.000 A 
ATOM      2  C   UNL     1       5.715   4.209  17.906  0.00  0.00    +0.000 A 
ATOM      3  C   UNL     1       4.785   4.602  18.881  0.00  0.00    +0.000 A 
ATOM      4  C   UNL     1       3.966   5.712  18.717  0.00  0.00    +0.000 A 
ATOM      5  N   UNL     1       3.143   6.071  19.713  0.00  0.00    +0.000 NA
ATOM      6  C   UNL     1       2.453   7.212  19.504  0.00  0.00    +0.000 A 
ATOM      7  S   UNL     1       1.407   7.854  20.688  0.00  0.00    +0.000 S 
ATOM      8  C   UNL     1       0.993   9.193  19.697  0.00  0.00    +0.000 A 
ATOM      9  C   UNL     1       1.695   9.166  18.509  0.00  0.00    +0.000 A 
ATOM     10  C   UNL     1       2.494   7.997  18.362  0.00  0.00    +0.000 A 
ATOM     11  C   UNL     1       3.302   7.557  17.307  0.00  0.00    +0.000 A 
ATOM     12  C   UNL     1       4.078   6.415  17.499  0.00  0.00    +0.000 A 
ATOM     13  C   UNL     1       4.978   6.010  16.509  0.00  0.00    +0.000 A 
ENDROOT
BRANCH   8  14
ATOM     14  C   UNL     1       0.060  10.199  20.178  0.00  0.00    +0.000 C 
ATOM     15  O   UNL     1       0.119  10.655  21.321  0.00  0.00    +0.000 OA
ATOM     16  N   UNL     1      -0.895  10.685  19.263  0.00  0.00    +0.000 N 
ATOM     17  C   UNL     1      -1.772  11.752  19.755  0.00  0.00    +0.000 C 
ATOM     18  C   UNL     1      -2.528  12.482  18.626  0.00  0.00    +0.000 C 
ATOM     19  N   UNL     1      -3.200  11.601  17.649  0.00  0.00    +0.000 NA
ATOM     20  C   UNL     1      -4.379  10.953  18.221  0.00  0.00    +0.000 C 
ATOM     21  C   UNL     1      -2.231  10.613  17.146  0.00  0.00    +0.000 C 
ATOM     22  C   UNL     1      -1.508   9.816  18.246  0.00  0.00    +0.000 C 
ENDBRANCH   8  14
BRANCH   1  24
ATOM     23  C   UNL     1       6.180   4.059  14.544  0.00  0.00    +0.000 C 
ATOM     24  O   UNL     1       6.703   4.692  15.702  0.00  0.00    +0.000 OA
ENDBRANCH   1  24
TORSDOF 2
ENDMDL
MODEL 4
REMARK VINA RESULT:      -7.0      2.450      3.569
REMARK  Name = 
REMARK  4 active torsions:
REMARK  status: ('A' for Active; 'I' for Inactive)
REMARK    1  A    between atoms: C_1  and  O_2
REMARK    2  A    between atoms: O_2  and  C_3
REMARK    3  A    between atoms: C_10  and  C_11
REMARK    4  A    between atoms: N_16  and  C_17
REMARK                            x       y       z     vdW  Elec       q    Type
REMARK                         _______ _______ _______ _____ _____    ______ ____
ROOT
ATOM      1  C   UNL     1      -1.664  12.523  22.379  0.00  0.00    +0.000 A 
ATOM      2  C   UNL     1      -1.770  13.129  21.131  0.00  0.00    +0.000 A 
ATOM      3  C   UNL     1      -1.193  12.522  20.004  0.00  0.00    +0.000 A 
ATOM      4  C   UNL     1      -0.492  11.327  20.086  0.00  0.00    +0.000 A 
ATOM      5  N   UNL     1       0.089  10.831  18.984  0.00  0.00    +0.000 NA
ATOM      6  C   UNL     1       0.826   9.717  19.175  0.00  0.00    +0.000 A 
ATOM      7  S   UNL     1       1.686   8.984  17.898  0.00  0.00    +0.000 S 
ATOM      8  C   UNL     1       2.300   7.753  18.923  0.00  0.00    +0.000 A 
ATOM      9  C   UNL     1       1.892   7.946  20.228  0.00  0.00    +0.000 A 
ATOM     10  C   UNL     1       0.994   9.041  20.373  0.00  0.00    +0.000 A 
ATOM     11  C   UNL     1       0.313   9.535  21.493  0.00  0.00    +0.000 A 
ATOM     12  C   UNL     1      -0.413  10.716  21.357  0.00  0.00    +0.000 A 
ATOM     13  C   UNL     1      -1.013  11.298  22.477  0.00  0.00    +0.000 A 
ENDROOT
BRANCH   8  14
ATOM     14  C   UNL     1       3.180   6.727  18.390  0.00  0.00    +0.000 C 
ATOM     15  O   UNL     1       3.964   6.950  17.465  0.00  0.00    +0.000 OA
ATOM     16  N   UNL     1       3.149   5.461  19.010  0.00  0.00    +0.000 N 
ATOM     17  C   UNL     1       4.101   4.470  18.499  0.00  0.00    +0.000 C 
ATOM     18  C   UNL     1       4.273   3.258  19.435  0.00  0.00    +0.000 C 
ATOM     19  N   UNL     1       3.015   2.644  19.906  0.00  0.00    +0.000 NA
ATOM     20  C   UNL     1       2.335   1.911  18.839  0.00  0.00    +0.000 C 
ATOM     21  C   UNL     1       2.152   3.693  20.476  0.00  0.00    +0.000 C 
ATOM     22  C   UNL     1       1.901   4.888  19.539  0.00  0.00    +0.000 C 
ENDBRANCH   8  14
BRANCH   1  24
ATOM     23  C   UNL     1      -3.533  13.248  23.643  0.00  0.00    +0.000 C 
ATOM     24  O   UNL     1      -2.135  13.008  23.563  0.00  0.00    +0.000 OA
ENDBRANCH   1  24
TORSDOF 2
ENDMDL
MODEL 5
REMARK VINA RESULT:      -7.0      1.478      2.131
REMARK  Name = 
REMARK  4 active torsions:
REMARK  status: ('A' for Active; 'I' for Inactive)
REMARK    1  A    between atoms: C_1  and  O_2
REMARK    2  A    between atoms: O_2  and  C_3
REMARK    3  A    between atoms: C_10  and  C_11
REMARK    4  A    between atoms: N_16  and  C_17
REMARK                            x       y       z     vdW  Elec       q    Type
REMARK                         _______ _______ _______ _____ _____    ______ ____
ROOT
ATOM      1  C   UNL     1      -0.494  11.933  22.283  0.00  0.00    +0.000 A 
ATOM      2  C   UNL     1      -0.193  12.566  21.081  0.00  0.00    +0.000 A 
ATOM      3  C   UNL     1       0.363  11.832  20.021  0.00  0.00    +0.000 A 
ATOM      4  C   UNL     1       0.648  10.478  20.129  0.00  0.00    +0.000 A 
ATOM      5  N   UNL     1       1.237   9.848  19.102  0.00  0.00    +0.000 NA
ATOM      6  C   UNL     1       1.561   8.558  19.329  0.00  0.00    +0.000 A 
ATOM      7  S   UNL     1       2.371   7.620  18.158  0.00  0.00    +0.000 S 
ATOM      8  C   UNL     1       2.398   6.241  19.178  0.00  0.00    +0.000 A 
ATOM      9  C   UNL     1       1.845   6.525  20.411  0.00  0.00    +0.000 A 
ATOM     10  C   UNL     1       1.305   7.841  20.487  0.00  0.00    +0.000 A 
ATOM     11  C   UNL     1       0.619   8.499  21.515  0.00  0.00    +0.000 A 
ATOM     12  C   UNL     1       0.316   9.849  21.349  0.00  0.00    +0.000 A 
ATOM     13  C   UNL     1      -0.268  10.566  22.396  0.00  0.00    +0.000 A 
ENDROOT
BRANCH   8  14
ATOM     14  C   UNL     1       3.009   5.003  18.721  0.00  0.00    +0.000 C 
ATOM     15  O   UNL     1       2.514   3.900  18.960  0.00  0.00    +0.000 OA
ATOM     16  N   UNL     1       4.174   5.108  17.937  0.00  0.00    +0.000 N 
ATOM     17  C   UNL     1       4.724   3.847  17.428  0.00  0.00    +0.000 C 
ATOM     18  C   UNL     1       5.755   4.048  16.300  0.00  0.00    +0.000 C 
ATOM     19  N   UNL     1       6.804   5.051  16.579  0.00  0.00    +0.000 NA
ATOM     20  C   UNL     1       7.763   4.572  17.574  0.00  0.00    +0.000 C 
ATOM     21  C   UNL     1       6.165   6.308  17.006  0.00  0.00    +0.000 C 
ATOM     22  C   UNL     1       5.180   6.155  18.177  0.00  0.00    +0.000 C 
ENDBRANCH   8  14
BRANCH   1  24
ATOM     23  C   UNL     1      -1.120  13.932  23.390  0.00  0.00    +0.000 C 
ATOM     24  O   UNL     1      -0.998  12.518  23.408  0.00  0.00    +0.000 OA
ENDBRANCH   1  24
TORSDOF 2
ENDMDL
MODEL 6
REMARK VINA RESULT:      -6.9      2.793      8.145
REMARK  Name = 
REMARK  4 active torsions:
REMARK  status: ('A' for Active; 'I' for Inactive)
REMARK    1  A    between atoms: C_1  and  O_2
REMARK    2  A    between atoms: O_2  and  C_3
REMARK    3  A    between atoms: C_10  and  C_11
REMARK    4  A    between atoms: N_16  and  C_17
REMARK                            x       y       z     vdW  Elec       q    Type
REMARK                         _______ _______ _______ _____ _____    ______ ____
ROOT
ATOM      1  C   UNL     1       3.538   4.577  18.699  0.00  0.00    +0.000 A 
ATOM      2  C   UNL     1       3.138   4.507  20.029  0.00  0.00    +0.000 A 
ATOM      3  C   UNL     1       2.441   5.579  20.611  0.00  0.00    +0.000 A 
ATOM      4  C   UNL     1       2.145   6.737  19.904  0.00  0.00    +0.000 A 
ATOM      5  N   UNL     1       1.533   7.750  20.535  0.00  0.00    +0.000 NA
ATOM      6  C   UNL     1       1.368   8.869  19.799  0.00  0.00    +0.000 A 
ATOM      7  S   UNL     1       0.666  10.276  20.456  0.00  0.00    +0.000 S 
ATOM      8  C   UNL     1       0.838  11.137  18.982  0.00  0.00    +0.000 A 
ATOM      9  C   UNL     1       1.476  10.367  18.030  0.00  0.00    +0.000 A 
ATOM     10  C   UNL     1       1.732   9.037  18.472  0.00  0.00    +0.000 A 
ATOM     11  C   UNL     1       2.298   7.939  17.814  0.00  0.00    +0.000 A 
ATOM     12  C   UNL     1       2.541   6.781  18.550  0.00  0.00    +0.000 A 
ATOM     13  C   UNL     1       3.205   5.704  17.956  0.00  0.00    +0.000 A 
ENDROOT
BRANCH   8  14
ATOM     14  C   UNL     1       0.391  12.517  18.882  0.00  0.00    +0.000 C 
ATOM     15  O   UNL     1      -0.794  12.812  18.721  0.00  0.00    +0.000 OA
ATOM     16  N   UNL     1       1.365  13.524  19.033  0.00  0.00    +0.000 N 
ATOM     17  C   UNL     1       0.872  14.905  19.003  0.00  0.00    +0.000 C 
ATOM     18  C   UNL     1       1.900  15.926  19.530  0.00  0.00    +0.000 C 
ATOM     19  N   UNL     1       3.259  15.797  18.966  0.00  0.00    +0.000 NA
ATOM     20  C   UNL     1       3.314  16.238  17.573  0.00  0.00    +0.000 C 
ATOM     21  C   UNL     1       3.709  14.402  19.108  0.00  0.00    +0.000 C 
ATOM     22  C   UNL     1       2.738  13.359  18.529  0.00  0.00    +0.000 C 
ENDBRANCH   8  14
BRANCH   1  24
ATOM     23  C   UNL     1       3.658   2.354  17.888  0.00  0.00    +0.000 C 
ATOM     24  O   UNL     1       4.251   3.638  18.012  0.00  0.00    +0.000 OA
ENDBRANCH   1  24
TORSDOF 2
ENDMDL
MODEL 7
REMARK VINA RESULT:      -6.7      2.344      8.490
REMARK  Name = 
REMARK  4 active torsions:
REMARK  status: ('A' for Active; 'I' for Inactive)
REMARK    1  A    between atoms: C_1  and  O_2
REMARK    2  A    between atoms: O_2  and  C_3
REMARK    3  A    between atoms: C_10  and  C_11
REMARK    4  A    between atoms: N_16  and  C_17
REMARK                            x       y       z     vdW  Elec       q    Type
REMARK                         _______ _______ _______ _____ _____    ______ ____
ROOT
ATOM      1  C   UNL     1       5.718   4.741  15.770  0.00  0.00    +0.000 A 
ATOM      2  C   UNL     1       5.436   3.654  16.590  0.00  0.00    +0.000 A 
ATOM      3  C   UNL     1       4.527   3.791  17.651  0.00  0.00    +0.000 A 
ATOM      4  C   UNL     1       3.897   4.997  17.933  0.00  0.00    +0.000 A 
ATOM      5  N   UNL     1       3.087   5.079  18.998  0.00  0.00    +0.000 NA
ATOM      6  C   UNL     1       2.592   6.308  19.251  0.00  0.00    +0.000 A 
ATOM      7  S   UNL     1       1.596   6.612  20.600  0.00  0.00    +0.000 S 
ATOM      8  C   UNL     1       1.444   8.275  20.203  0.00  0.00    +0.000 A 
ATOM      9  C   UNL     1       2.195   8.589  19.088  0.00  0.00    +0.000 A 
ATOM     10  C   UNL     1       2.813   7.450  18.496  0.00  0.00    +0.000 A 
ATOM     11  C   UNL     1       3.599   7.320  17.345  0.00  0.00    +0.000 A 
ATOM     12  C   UNL     1       4.180   6.082  17.077  0.00  0.00    +0.000 A 
ATOM     13  C   UNL     1       5.058   5.944  15.999  0.00  0.00    +0.000 A 
ENDROOT
BRANCH   8  14
ATOM     14  C   UNL     1       0.652   9.159  21.042  0.00  0.00    +0.000 C 
ATOM     15  O   UNL     1       0.533   8.980  22.255  0.00  0.00    +0.000 OA
ATOM     16  N   UNL     1       0.059  10.278  20.423  0.00  0.00    +0.000 N 
ATOM     17  C   UNL     1      -0.670  11.192  21.309  0.00  0.00    +0.000 C 
ATOM     18  C   UNL     1      -0.973  12.555  20.655  0.00  0.00    +0.000 C 
ATOM     19  N   UNL     1      -1.563  12.485  19.302  0.00  0.00    +0.000 NA
ATOM     20  C   UNL     1      -2.951  12.027  19.337  0.00  0.00    +0.000 C 
ATOM     21  C   UNL     1      -0.727  11.615  18.457  0.00  0.00    +0.000 C 
ATOM     22  C   UNL     1      -0.463  10.220  19.049  0.00  0.00    +0.000 C 
ENDBRANCH   8  14
BRANCH   1  24
ATOM     23  C   UNL     1       6.300   3.948  13.614  0.00  0.00    +0.000 C 
ATOM     24  O   UNL     1       6.602   4.771  14.731  0.00  0.00    +0.000 OA
ENDBRANCH   1  24
TORSDOF 2
ENDMDL
MODEL 8
REMARK VINA RESULT:      -6.7      3.731      9.924
REMARK  Name = 
REMARK  4 active torsions:
REMARK  status: ('A' for Active; 'I' for Inactive)
REMARK    1  A    between atoms: C_1  and  O_2
REMARK    2  A    between atoms: O_2  and  C_3
REMARK    3  A    between atoms: C_10  and  C_11
REMARK    4  A    between atoms: N_16  and  C_17
REMARK                            x       y       z     vdW  Elec       q    Type
REMARK                         _______ _______ _______ _____ _____    ______ ____
ROOT
ATOM      1  C   UNL     1       2.374   6.714  19.092  0.00  0.00    +0.000 A 
ATOM      2  C   UNL     1       2.424   7.553  17.983  0.00  0.00    +0.000 A 
ATOM      3  C   UNL     1       1.973   8.879  18.085  0.00  0.00    +0.000 A 
ATOM      4  C   UNL     1       1.452   9.394  19.264  0.00  0.00    +0.000 A 
ATOM      5  N   UNL     1       0.981  10.649  19.279  0.00  0.00    +0.000 NA
ATOM      6  C   UNL     1       0.409  11.035  20.438  0.00  0.00    +0.000 A 
ATOM      7  S   UNL     1      -0.299  12.575  20.618  0.00  0.00    +0.000 S 
ATOM      8  C   UNL     1      -0.754  12.255  22.241  0.00  0.00    +0.000 A 
ATOM      9  C   UNL     1      -0.414  10.968  22.607  0.00  0.00    +0.000 A 
ATOM     10  C   UNL     1       0.310  10.276  21.595  0.00  0.00    +0.000 A 
ATOM     11  C   UNL     1       0.880   8.997  21.577  0.00  0.00    +0.000 A 
ATOM     12  C   UNL     1       1.429   8.534  20.384  0.00  0.00    +0.000 A 
ATOM     13  C   UNL     1       1.907   7.224  20.299  0.00  0.00    +0.000 A 
ENDROOT
BRANCH   8  14
ATOM     14  C   UNL     1      -1.460  13.262  23.017  0.00  0.00    +0.000 C 
ATOM     15  O   UNL     1      -0.909  13.904  23.913  0.00  0.00    +0.000 OA
ATOM     16  N   UNL     1      -2.800  13.525  22.669  0.00  0.00    +0.000 N 
ATOM     17  C   UNL     1      -3.461  14.598  23.419  0.00  0.00    +0.000 C 
ATOM     18  C   UNL     1      -4.769  15.078  22.761  0.00  0.00    +0.000 C 
ATOM     19  N   UNL     1      -5.704  14.005  22.365  0.00  0.00    +0.000 NA
ATOM     20  C   UNL     1      -6.341  13.383  23.526  0.00  0.00    +0.000 C 
ATOM     21  C   UNL     1      -4.981  13.013  21.551  0.00  0.00    +0.000 C 
ATOM     22  C   UNL     1      -3.705  12.460  22.208  0.00  0.00    +0.000 C 
ENDBRANCH   8  14
BRANCH   1  24
ATOM     23  C   UNL     1       1.717   4.469  19.468  0.00  0.00    +0.000 C 
ATOM     24  O   UNL     1       2.737   5.400  19.137  0.00  0.00    +0.000 OA
ENDBRANCH   1  24
TORSDOF 2
ENDMDL
MODEL 9
REMARK VINA RESULT:      -6.7      3.857      9.936
REMARK  Name = 
REMARK  4 active torsions:
REMARK  status: ('A' for Active; 'I' for Inactive)
REMARK    1  A    between atoms: C_1  and  O_2
REMARK    2  A    between atoms: O_2  and  C_3
REMARK    3  A    between atoms: C_10  and  C_11
REMARK    4  A    between atoms: N_16  and  C_17
REMARK                            x       y       z     vdW  Elec       q    Type
REMARK                         _______ _______ _______ _____ _____    ______ ____
ROOT
ATOM      1  C   UNL     1       2.452   7.358  19.020  0.00  0.00    +0.000 A 
ATOM      2  C   UNL     1       2.154   8.163  17.925  0.00  0.00    +0.000 A 
ATOM      3  C   UNL     1       1.353   9.305  18.091  0.00  0.00    +0.000 A 
ATOM      4  C   UNL     1       0.821   9.662  19.323  0.00  0.00    +0.000 A 
ATOM      5  N   UNL     1       0.014  10.730  19.403  0.00  0.00    +0.000 NA
ATOM      6  C   UNL     1      -0.531  10.948  20.617  0.00  0.00    +0.000 A 
ATOM      7  S   UNL     1      -1.631  12.222  20.889  0.00  0.00    +0.000 S 
ATOM      8  C   UNL     1      -1.818  11.804  22.543  0.00  0.00    +0.000 A 
ATOM      9  C   UNL     1      -1.091  10.672  22.852  0.00  0.00    +0.000 A 
ATOM     10  C   UNL     1      -0.298  10.206  21.765  0.00  0.00    +0.000 A 
ATOM     11  C   UNL     1       0.610   9.144  21.673  0.00  0.00    +0.000 A 
ATOM     12  C   UNL     1       1.153   8.845  20.425  0.00  0.00    +0.000 A 
ATOM     13  C   UNL     1       1.976   7.726  20.273  0.00  0.00    +0.000 A 
ENDROOT
BRANCH   8  14
ATOM     14  C   UNL     1      -2.706  12.575  23.398  0.00  0.00    +0.000 C 
ATOM     15  O   UNL     1      -3.823  12.168  23.720  0.00  0.00    +0.000 OA
ATOM     16  N   UNL     1      -2.219  13.798  23.900  0.00  0.00    +0.000 N 
ATOM     17  C   UNL     1      -3.107  14.515  24.820  0.00  0.00    +0.000 C 
ATOM     18  C   UNL     1      -2.390  15.631  25.606  0.00  0.00    +0.000 C 
ATOM     19  N   UNL     1      -1.564  16.544  24.789  0.00  0.00    +0.000 NA
ATOM     20  C   UNL     1      -2.384  17.440  23.976  0.00  0.00    +0.000 C 
ATOM     21  C   UNL     1      -0.647  15.746  23.957  0.00  0.00    +0.000 C 
ATOM     22  C   UNL     1      -1.337  14.668  23.105  0.00  0.00    +0.000 C 
ENDBRANCH   8  14
BRANCH   1  24
ATOM     23  C   UNL     1       2.550   5.061  18.447  0.00  0.00    +0.000 C 
ATOM     24  O   UNL     1       3.179   6.204  19.008  0.00  0.00    +0.000 OA
ENDBRANCH   1  24
TORSDOF 2
ENDMDL
