MODEL 1
REMARK VINA RESULT:      -7.4      0.000      0.000
REMARK  Name = 
REMARK  11 active torsions:
REMARK  status: ('A' for Active; 'I' for Inactive)
REMARK    1  A    between atoms: C_1  and  C_2
REMARK    2  A    between atoms: C_2  and  O_3
REMARK    3  A    between atoms: O_3  and  P_4
REMARK    4  A    between atoms: P_4  and  C_6
REMARK    5  A    between atoms: P_4  and  C_15
REMARK    6  A    between atoms: C_9  and  N_10
REMARK    7  A    between atoms: N_10  and  C_11
REMARK    8  A    between atoms: N_10  and  C_12
REMARK    9  A    between atoms: C_15  and  O_16
REMARK   10  A    between atoms: C_15  and  C_17
REMARK   11  A    between atoms: C_20  and  C_21
REMARK                            x       y       z     vdW  Elec       q    Type
REMARK                         _______ _______ _______ _____ _____    ______ ____
ROOT
ATOM      1  P   UNL     1       3.062   5.352  19.241  0.00  0.00    +0.000 P 
ATOM      2  O   UNL     1       2.862   4.672  17.870  0.00  0.00    +0.000 OA
ENDROOT
BRANCH   1   3
ATOM      3  C   UNL     1       2.393   7.130  19.239  0.00  0.00    +0.000 A 
ATOM      4  C   UNL     1       1.771   7.632  20.387  0.00  0.00    +0.000 A 
ATOM      5  C   UNL     1       1.127   8.870  20.349  0.00  0.00    +0.000 A 
ATOM      6  C   UNL     1       1.061   9.646  19.173  0.00  0.00    +0.000 A 
ATOM      7  C   UNL     1       1.704   9.133  18.038  0.00  0.00    +0.000 A 
ATOM      8  C   UNL     1       2.356   7.885  18.061  0.00  0.00    +0.000 A 
BRANCH   6   9
ATOM      9  N   UNL     1       0.385  10.872  19.205  0.00  0.00    +0.000 N 
ATOM     10  C   UNL     1      -0.843  10.985  19.986  0.00  0.00    +0.000 C 
ATOM     11  C   UNL     1       1.255  12.052  19.282  0.00  0.00    +0.000 C 
ENDBRANCH   6   9
ENDBRANCH   1   3
BRANCH   1  12
ATOM     12  O   UNL     1       1.459   4.897  19.706  0.00  0.00    +0.000 OA
BRANCH  12  14
ATOM     13  C   UNL     1       1.500   3.089  21.281  0.00  0.00    +0.000 C 
ATOM     14  C   UNL     1       1.330   3.488  19.832  0.00  0.00    +0.000 C 
ENDBRANCH  12  14
ENDBRANCH   1  12
BRANCH   1  15
ATOM     15  C   UNL     1       4.758   5.833  18.749  0.00  0.00    +0.000 C 
BRANCH  15  16
ATOM     16  C   UNL     1       5.128   5.333  17.358  0.00  0.00    +0.000 A 
ATOM     17  C   UNL     1       5.563   4.016  17.172  0.00  0.00    +0.000 A 
ATOM     18  C   UNL     1       5.899   3.550  15.898  0.00  0.00    +0.000 A 
ATOM     19  C   UNL     1       5.813   4.396  14.786  0.00  0.00    +0.000 A 
ATOM     20  C   UNL     1       6.129   3.896  13.407  0.00  0.00    +0.000 C 
ATOM     21  C   UNL     1       5.404   5.719  14.972  0.00  0.00    +0.000 A 
ATOM     22  C   UNL     1       5.067   6.187  16.244  0.00  0.00    +0.000 A 
ENDBRANCH  15  16
BRANCH  15  23
ATOM     23  O   UNL     1       5.744   5.284  19.649  0.00  0.00    +0.000 OA
ATOM     24  H   UNL     1       5.299   4.937  20.437  0.00  0.00    +0.000 HD
ENDBRANCH  15  23
ENDBRANCH   1  15
TORSDOF 7
ENDMDL
MODEL 2
REMARK VINA RESULT:      -7.4      0.374      1.073
REMARK  Name = 
REMARK  11 active torsions:
REMARK  status: ('A' for Active; 'I' for Inactive)
REMARK    1  A    between atoms: C_1  and  C_2
REMARK    2  A    between atoms: C_2  and  O_3
REMARK    3  A    between atoms: O_3  and  P_4
REMARK    4  A    between atoms: P_4  and  C_6
REMARK    5  A    between atoms: P_4  and  C_15
REMARK    6  A    between atoms: C_9  and  N_10
REMARK    7  A    between atoms: N_10  and  C_11
REMARK    8  A    between atoms: N_10  and  C_12
REMARK    9  A    between atoms: C_15  and  O_16
REMARK   10  A    between atoms: C_15  and  C_17
REMARK   11  A    between atoms: C_20  and  C_21
REMARK                            x       y       z     vdW  Elec       q    Type
REMARK                         _______ _______ _______ _____ _____    ______ ____
ROOT
ATOM      1  P   UNL     1       3.101   5.356  19.329  0.00  0.00    +0.000 P 
ATOM      2  O   UNL     1       2.876   4.656  17.972  0.00  0.00    +0.000 OA
ENDROOT
BRANCH   1   3
ATOM      3  C   UNL     1       2.402   7.122  19.323  0.00  0.00    +0.000 A 
ATOM      4  C   UNL     1       1.774   7.618  20.471  0.00  0.00    +0.000 A 
ATOM      5  C   UNL     1       1.109   8.845  20.431  0.00  0.00    +0.000 A 
ATOM      6  C   UNL     1       1.028   9.616  19.252  0.00  0.00    +0.000 A 
ATOM      7  C   UNL     1       1.678   9.111  18.117  0.00  0.00    +0.000 A 
ATOM      8  C   UNL     1       2.350   7.874  18.143  0.00  0.00    +0.000 A 
BRANCH   6   9
ATOM      9  N   UNL     1       0.331  10.831  19.281  0.00  0.00    +0.000 N 
ATOM     10  C   UNL     1      -1.105  10.831  19.018  0.00  0.00    +0.000 C 
ATOM     11  C   UNL     1       0.746  11.751  20.347  0.00  0.00    +0.000 C 
ENDBRANCH   6   9
ENDBRANCH   1   3
BRANCH   1  12
ATOM     12  O   UNL     1       1.519   4.881  19.842  0.00  0.00    +0.000 OA
BRANCH  12  14
ATOM     13  C   UNL     1       2.026   3.313  21.584  0.00  0.00    +0.000 C 
ATOM     14  C   UNL     1       1.472   3.505  20.191  0.00  0.00    +0.000 C 
ENDBRANCH  12  14
ENDBRANCH   1  12
BRANCH   1  15
ATOM     15  C   UNL     1       4.775   5.859  18.786  0.00  0.00    +0.000 C 
BRANCH  15  16
ATOM     16  C   UNL     1       5.118   5.346  17.393  0.00  0.00    +0.000 A 
ATOM     17  C   UNL     1       5.046   6.201  16.287  0.00  0.00    +0.000 A 
ATOM     18  C   UNL     1       5.364   5.738  15.008  0.00  0.00    +0.000 A 
ATOM     19  C   UNL     1       5.754   4.409  14.809  0.00  0.00    +0.000 A 
ATOM     20  C   UNL     1       6.141   3.910  13.447  0.00  0.00    +0.000 C 
ATOM     21  C   UNL     1       5.802   3.546  15.907  0.00  0.00    +0.000 A 
ATOM     22  C   UNL     1       5.485   4.006  17.187  0.00  0.00    +0.000 A 
ENDBRANCH  15  16
BRANCH  15  23
ATOM     23  O   UNL     1       5.794   5.340  19.667  0.00  0.00    +0.000 OA
ATOM     24  H   UNL     1       6.246   4.601  19.231  0.00  0.00    +0.000 HD
ENDBRANCH  15  23
ENDBRANCH   1  15
TORSDOF 7
ENDMDL
MODEL 3
REMARK VINA RESULT:      -7.1      0.523      1.130
REMARK  Name = 
REMARK  11 active torsions:
REMARK  status: ('A' for Active; 'I' for Inactive)
REMARK    1  A    between atoms: C_1  and  C_2
REMARK    2  A    between atoms: C_2  and  O_3
REMARK    3  A    between atoms: O_3  and  P_4
REMARK    4  A    between atoms: P_4  and  C_6
REMARK    5  A    between atoms: P_4  and  C_15
REMARK    6  A    between atoms: C_9  and  N_10
REMARK    7  A    between atoms: N_10  and  C_11
REMARK    8  A    between atoms: N_10  and  C_12
REMARK    9  A    between atoms: C_15  and  O_16
REMARK   10  A    between atoms: C_15  and  C_17
REMARK   11  A    between atoms: C_20  and  C_21
REMARK                            x       y       z     vdW  Elec       q    Type
REMARK                         _______ _______ _______ _____ _____    ______ ____
ROOT
ATOM      1  P   UNL     1       3.062   5.078  19.196  0.00  0.00    +0.000 P 
ATOM      2  O   UNL     1       2.891   4.477  17.785  0.00  0.00    +0.000 OA
ENDROOT
BRANCH   1   3
ATOM      3  C   UNL     1       2.216   6.773  19.336  0.00  0.00    +0.000 A 
ATOM      4  C   UNL     1       2.273   7.661  18.256  0.00  0.00    +0.000 A 
ATOM      5  C   UNL     1       1.805   8.969  18.401  0.00  0.00    +0.000 A 
ATOM      6  C   UNL     1       1.281   9.448  19.620  0.00  0.00    +0.000 A 
ATOM      7  C   UNL     1       1.217   8.538  20.685  0.00  0.00    +0.000 A 
ATOM      8  C   UNL     1       1.688   7.217  20.554  0.00  0.00    +0.000 A 
BRANCH   6   9
ATOM      9  N   UNL     1       0.843  10.776  19.696  0.00  0.00    +0.000 N 
ATOM     10  C   UNL     1       0.554  11.353  21.006  0.00  0.00    +0.000 C 
ATOM     11  C   UNL     1       1.512  11.697  18.769  0.00  0.00    +0.000 C 
ENDBRANCH   6   9
ENDBRANCH   1   3
BRANCH   1  12
ATOM     12  O   UNL     1       1.528   4.429  19.664  0.00  0.00    +0.000 OA
BRANCH  12  14
ATOM     13  C   UNL     1       1.892   3.127  21.645  0.00  0.00    +0.000 C 
ATOM     14  C   UNL     1       1.649   3.101  20.153  0.00  0.00    +0.000 C 
ENDBRANCH  12  14
ENDBRANCH   1  12
BRANCH   1  15
ATOM     15  C   UNL     1       4.685   5.765  18.702  0.00  0.00    +0.000 C 
BRANCH  15  16
ATOM     16  C   UNL     1       5.118   5.305  17.315  0.00  0.00    +0.000 A 
ATOM     17  C   UNL     1       5.632   4.017  17.125  0.00  0.00    +0.000 A 
ATOM     18  C   UNL     1       6.025   3.589  15.854  0.00  0.00    +0.000 A 
ATOM     19  C   UNL     1       5.917   4.442  14.750  0.00  0.00    +0.000 A 
ATOM     20  C   UNL     1       6.295   3.980  13.374  0.00  0.00    +0.000 C 
ATOM     21  C   UNL     1       5.429   5.737  14.941  0.00  0.00    +0.000 A 
ATOM     22  C   UNL     1       5.034   6.168  16.209  0.00  0.00    +0.000 A 
ENDBRANCH  15  16
BRANCH  15  23
ATOM     23  O   UNL     1       5.731   5.350  19.606  0.00  0.00    +0.000 OA
ATOM     24  H   UNL     1       6.590   5.458  19.170  0.00  0.00    +0.000 HD
ENDBRANCH  15  23
ENDBRANCH   1  15
TORSDOF 7
ENDMDL
MODEL 4
REMARK VINA RESULT:      -7.1      0.499      1.505
REMARK  Name = 
REMARK  11 active torsions:
REMARK  status: ('A' for Active; 'I' for Inactive)
REMARK    1  A    between atoms: C_1  and  C_2
REMARK    2  A    between atoms: C_2  and  O_3
REMARK    3  A    between atoms: O_3  and  P_4
REMARK    4  A    between atoms: P_4  and  C_6
REMARK    5  A    between atoms: P_4  and  C_15
REMARK    6  A    between atoms: C_9  and  N_10
REMARK    7  A    between atoms: N_10  and  C_11
REMARK    8  A    between atoms: N_10  and  C_12
REMARK    9  A    between atoms: C_15  and  O_16
REMARK   10  A    between atoms: C_15  and  C_17
REMARK   11  A    between atoms: C_20  and  C_21
REMARK                            x       y       z     vdW  Elec       q    Type
REMARK                         _______ _______ _______ _____ _____    ______ ____
ROOT
ATOM      1  P   UNL     1       3.088   5.190  19.314  0.00  0.00    +0.000 P 
ATOM      2  O   UNL     1       2.920   4.485  17.951  0.00  0.00    +0.000 OA
ENDROOT
BRANCH   1   3
ATOM      3  C   UNL     1       2.231   6.885  19.329  0.00  0.00    +0.000 A 
ATOM      4  C   UNL     1       2.313   7.707  18.201  0.00  0.00    +0.000 A 
ATOM      5  C   UNL     1       1.836   9.018  18.254  0.00  0.00    +0.000 A 
ATOM      6  C   UNL     1       1.276   9.566  19.427  0.00  0.00    +0.000 A 
ATOM      7  C   UNL     1       1.187   8.721  20.542  0.00  0.00    +0.000 A 
ATOM      8  C   UNL     1       1.667   7.397  20.504  0.00  0.00    +0.000 A 
BRANCH   6   9
ATOM      9  N   UNL     1       0.831  10.894  19.412  0.00  0.00    +0.000 N 
ATOM     10  C   UNL     1      -0.430  11.212  18.747  0.00  0.00    +0.000 C 
ATOM     11  C   UNL     1       1.050  11.629  20.664  0.00  0.00    +0.000 C 
ENDBRANCH   6   9
ENDBRANCH   1   3
BRANCH   1  12
ATOM     12  O   UNL     1       1.559   4.567  19.830  0.00  0.00    +0.000 OA
BRANCH  12  14
ATOM     13  C   UNL     1       2.126   3.086  21.629  0.00  0.00    +0.000 C 
ATOM     14  C   UNL     1       1.648   3.198  20.199  0.00  0.00    +0.000 C 
ENDBRANCH  12  14
ENDBRANCH   1  12
BRANCH   1  15
ATOM     15  C   UNL     1       4.706   5.849  18.768  0.00  0.00    +0.000 C 
BRANCH  15  16
ATOM     16  C   UNL     1       5.103   5.354  17.382  0.00  0.00    +0.000 A 
ATOM     17  C   UNL     1       5.010   6.205  16.275  0.00  0.00    +0.000 A 
ATOM     18  C   UNL     1       5.377   5.759  15.002  0.00  0.00    +0.000 A 
ATOM     19  C   UNL     1       5.838   4.452  14.813  0.00  0.00    +0.000 A 
ATOM     20  C   UNL     1       6.277   3.974  13.459  0.00  0.00    +0.000 C 
ATOM     21  C   UNL     1       5.908   3.592  15.912  0.00  0.00    +0.000 A 
ATOM     22  C   UNL     1       5.542   4.035  17.185  0.00  0.00    +0.000 A 
ENDBRANCH  15  16
BRANCH  15  23
ATOM     23  O   UNL     1       5.768   5.444  19.658  0.00  0.00    +0.000 OA
ATOM     24  H   UNL     1       6.183   6.233  20.039  0.00  0.00    +0.000 HD
ENDBRANCH  15  23
ENDBRANCH   1  15
TORSDOF 7
ENDMDL
MODEL 5
REMARK VINA RESULT:      -7.1      1.142      1.569
REMARK  Name = 
REMARK  11 active torsions:
REMARK  status: ('A' for Active; 'I' for Inactive)
REMARK    1  A    between atoms: C_1  and  C_2
REMARK    2  A    between atoms: C_2  and  O_3
REMARK    3  A    between atoms: O_3  and  P_4
REMARK    4  A    between atoms: P_4  and  C_6
REMARK    5  A    between atoms: P_4  and  C_15
REMARK    6  A    between atoms: C_9  and  N_10
REMARK    7  A    between atoms: N_10  and  C_11
REMARK    8  A    between atoms: N_10  and  C_12
REMARK    9  A    between atoms: C_15  and  O_16
REMARK   10  A    between atoms: C_15  and  C_17
REMARK   11  A    between atoms: C_20  and  C_21
REMARK                            x       y       z     vdW  Elec       q    Type
REMARK                         _______ _______ _______ _____ _____    ______ ____
ROOT
ATOM      1  P   UNL     1       3.797   4.682  19.430  0.00  0.00    +0.000 P 
ATOM      2  O   UNL     1       3.731   4.035  18.030  0.00  0.00    +0.000 OA
ENDROOT
BRANCH   1   3
ATOM      3  C   UNL     1       2.685   6.218  19.538  0.00  0.00    +0.000 A 
ATOM      4  C   UNL     1       2.719   7.166  18.510  0.00  0.00    +0.000 A 
ATOM      5  C   UNL     1       2.038   8.377  18.651  0.00  0.00    +0.000 A 
ATOM      6  C   UNL     1       1.314   8.699  19.818  0.00  0.00    +0.000 A 
ATOM      7  C   UNL     1       1.278   7.729  20.830  0.00  0.00    +0.000 A 
ATOM      8  C   UNL     1       1.962   6.505  20.702  0.00  0.00    +0.000 A 
BRANCH   6   9
ATOM      9  N   UNL     1       0.668   9.939  19.897  0.00  0.00    +0.000 N 
ATOM     10  C   UNL     1       0.697  10.675  21.157  0.00  0.00    +0.000 C 
ATOM     11  C   UNL     1       0.812  10.783  18.705  0.00  0.00    +0.000 C 
ENDBRANCH   6   9
ENDBRANCH   1   3
BRANCH   1  12
ATOM     12  O   UNL     1       2.389   3.800  19.909  0.00  0.00    +0.000 OA
BRANCH  12  14
ATOM     13  C   UNL     1       0.626   2.539  18.882  0.00  0.00    +0.000 C 
ATOM     14  C   UNL     1       2.121   2.721  19.025  0.00  0.00    +0.000 C 
ENDBRANCH  12  14
ENDBRANCH   1  12
BRANCH   1  15
ATOM     15  C   UNL     1       5.287   5.616  18.923  0.00  0.00    +0.000 C 
BRANCH  15  16
ATOM     16  C   UNL     1       5.697   5.328  17.483  0.00  0.00    +0.000 A 
ATOM     17  C   UNL     1       6.758   4.456  17.212  0.00  0.00    +0.000 A 
ATOM     18  C   UNL     1       7.135   4.184  15.894  0.00  0.00    +0.000 A 
ATOM     19  C   UNL     1       6.463   4.784  14.823  0.00  0.00    +0.000 A 
ATOM     20  C   UNL     1       6.830   4.467  13.403  0.00  0.00    +0.000 C 
ATOM     21  C   UNL     1       5.421   5.675  15.092  0.00  0.00    +0.000 A 
ATOM     22  C   UNL     1       5.041   5.949  16.407  0.00  0.00    +0.000 A 
ENDBRANCH  15  16
BRANCH  15  23
ATOM     23  O   UNL     1       6.427   5.276  19.741  0.00  0.00    +0.000 OA
ATOM     24  H   UNL     1       7.083   5.989  19.685  0.00  0.00    +0.000 HD
ENDBRANCH  15  23
ENDBRANCH   1  15
TORSDOF 7
ENDMDL
MODEL 6
REMARK VINA RESULT:      -7.0      1.003      1.030
REMARK  Name = 
REMARK  11 active torsions:
REMARK  status: ('A' for Active; 'I' for Inactive)
REMARK    1  A    between atoms: C_1  and  C_2
REMARK    2  A    between atoms: C_2  and  O_3
REMARK    3  A    between atoms: O_3  and  P_4
REMARK    4  A    between atoms: P_4  and  C_6
REMARK    5  A    between atoms: P_4  and  C_15
REMARK    6  A    between atoms: C_9  and  N_10
REMARK    7  A    between atoms: N_10  and  C_11
REMARK    8  A    between atoms: N_10  and  C_12
REMARK    9  A    between atoms: C_15  and  O_16
REMARK   10  A    between atoms: C_15  and  C_17
REMARK   11  A    between atoms: C_20  and  C_21
REMARK                            x       y       z     vdW  Elec       q    Type
REMARK                         _______ _______ _______ _____ _____    ______ ____
ROOT
ATOM      1  P   UNL     1       3.556   5.077  19.313  0.00  0.00    +0.000 P 
ATOM      2  O   UNL     1       3.454   4.454  17.904  0.00  0.00    +0.000 OA
ENDROOT
BRANCH   1   3
ATOM      3  C   UNL     1       2.710   6.777  19.383  0.00  0.00    +0.000 A 
ATOM      4  C   UNL     1       2.025   7.156  20.543  0.00  0.00    +0.000 A 
ATOM      5  C   UNL     1       1.259   8.324  20.553  0.00  0.00    +0.000 A 
ATOM      6  C   UNL     1       1.131   9.146  19.414  0.00  0.00    +0.000 A 
ATOM      7  C   UNL     1       1.838   8.758  18.267  0.00  0.00    +0.000 A 
ATOM      8  C   UNL     1       2.612   7.582  18.242  0.00  0.00    +0.000 A 
BRANCH   6   9
ATOM      9  N   UNL     1       0.333  10.295  19.492  0.00  0.00    +0.000 N 
ATOM     10  C   UNL     1      -0.651  10.547  18.443  0.00  0.00    +0.000 C 
ATOM     11  C   UNL     1      -0.132  10.630  20.843  0.00  0.00    +0.000 C 
ENDBRANCH   6   9
ENDBRANCH   1   3
BRANCH   1  12
ATOM     12  O   UNL     1       1.999   4.440  19.713  0.00  0.00    +0.000 OA
BRANCH  12  14
ATOM     13  C   UNL     1       0.611   2.575  19.125  0.00  0.00    +0.000 C 
ATOM     14  C   UNL     1       1.418   3.748  18.617  0.00  0.00    +0.000 C 
ENDBRANCH  12  14
ENDBRANCH   1  12
BRANCH   1  15
ATOM     15  C   UNL     1       5.204   5.752  18.889  0.00  0.00    +0.000 C 
BRANCH  15  16
ATOM     16  C   UNL     1       5.626   5.415  17.464  0.00  0.00    +0.000 A 
ATOM     17  C   UNL     1       6.615   4.454  17.228  0.00  0.00    +0.000 A 
ATOM     18  C   UNL     1       7.003   4.137  15.923  0.00  0.00    +0.000 A 
ATOM     19  C   UNL     1       6.412   4.781  14.830  0.00  0.00    +0.000 A 
ATOM     20  C   UNL     1       6.788   4.419  13.422  0.00  0.00    +0.000 C 
ATOM     21  C   UNL     1       5.443   5.760  15.063  0.00  0.00    +0.000 A 
ATOM     22  C   UNL     1       5.053   6.078  16.366  0.00  0.00    +0.000 A 
ENDBRANCH  15  16
BRANCH  15  23
ATOM     23  O   UNL     1       6.231   5.215  19.749  0.00  0.00    +0.000 OA
ATOM     24  H   UNL     1       7.072   5.657  19.556  0.00  0.00    +0.000 HD
ENDBRANCH  15  23
ENDBRANCH   1  15
TORSDOF 7
ENDMDL
MODEL 7
REMARK VINA RESULT:      -7.0      0.940      1.661
REMARK  Name = 
REMARK  11 active torsions:
REMARK  status: ('A' for Active; 'I' for Inactive)
REMARK    1  A    between atoms: C_1  and  C_2
REMARK    2  A    between atoms: C_2  and  O_3
REMARK    3  A    between atoms: O_3  and  P_4
REMARK    4  A    between atoms: P_4  and  C_6
REMARK    5  A    between atoms: P_4  and  C_15
REMARK    6  A    between atoms: C_9  and  N_10
REMARK    7  A    between atoms: N_10  and  C_11
REMARK    8  A    between atoms: N_10  and  C_12
REMARK    9  A    between atoms: C_15  and  O_16
REMARK   10  A    between atoms: C_15  and  C_17
REMARK   11  A    between atoms: C_20  and  C_21
REMARK                            x       y       z     vdW  Elec       q    Type
REMARK                         _______ _______ _______ _____ _____    ______ ____
ROOT
ATOM      1  P   UNL     1       3.670   4.955  19.380  0.00  0.00    +0.000 P 
ATOM      2  O   UNL     1       3.678   4.173  18.049  0.00  0.00    +0.000 OA
ENDROOT
BRANCH   1   3
ATOM      3  C   UNL     1       2.630   6.539  19.249  0.00  0.00    +0.000 A 
ATOM      4  C   UNL     1       2.589   7.236  18.036  0.00  0.00    +0.000 A 
ATOM      5  C   UNL     1       1.969   8.486  17.969  0.00  0.00    +0.000 A 
ATOM      6  C   UNL     1       1.385   9.096  19.098  0.00  0.00    +0.000 A 
ATOM      7  C   UNL     1       1.421   8.373  20.300  0.00  0.00    +0.000 A 
ATOM      8  C   UNL     1       2.044   7.114  20.383  0.00  0.00    +0.000 A 
BRANCH   6   9
ATOM      9  N   UNL     1       0.793  10.358  18.960  0.00  0.00    +0.000 N 
ATOM     10  C   UNL     1      -0.305  10.728  19.848  0.00  0.00    +0.000 C 
ATOM     11  C   UNL     1       1.735  11.450  18.683  0.00  0.00    +0.000 C 
ENDBRANCH   6   9
ENDBRANCH   1   3
BRANCH   1  12
ATOM     12  O   UNL     1       2.188   4.184  19.829  0.00  0.00    +0.000 OA
BRANCH  12  14
ATOM     13  C   UNL     1       0.788   2.445  18.954  0.00  0.00    +0.000 C 
ATOM     14  C   UNL     1       1.440   3.783  18.690  0.00  0.00    +0.000 C 
ENDBRANCH  12  14
ENDBRANCH   1  12
BRANCH   1  15
ATOM     15  C   UNL     1       5.239   5.770  18.905  0.00  0.00    +0.000 C 
BRANCH  15  16
ATOM     16  C   UNL     1       5.667   5.433  17.482  0.00  0.00    +0.000 A 
ATOM     17  C   UNL     1       5.051   6.057  16.391  0.00  0.00    +0.000 A 
ATOM     18  C   UNL     1       5.443   5.756  15.084  0.00  0.00    +0.000 A 
ATOM     19  C   UNL     1       6.455   4.820  14.843  0.00  0.00    +0.000 A 
ATOM     20  C   UNL     1       6.915   4.519  13.447  0.00  0.00    +0.000 C 
ATOM     21  C   UNL     1       7.054   4.176  15.929  0.00  0.00    +0.000 A 
ATOM     22  C   UNL     1       6.665   4.475  17.236  0.00  0.00    +0.000 A 
ENDBRANCH  15  16
BRANCH  15  23
ATOM     23  O   UNL     1       6.327   5.360  19.760  0.00  0.00    +0.000 OA
ATOM     24  H   UNL     1       6.813   6.145  20.056  0.00  0.00    +0.000 HD
ENDBRANCH  15  23
ENDBRANCH   1  15
TORSDOF 7
ENDMDL
MODEL 8
REMARK VINA RESULT:      -7.0      0.986      1.562
REMARK  Name = 
REMARK  11 active torsions:
REMARK  status: ('A' for Active; 'I' for Inactive)
REMARK    1  A    between atoms: C_1  and  C_2
REMARK    2  A    between atoms: C_2  and  O_3
REMARK    3  A    between atoms: O_3  and  P_4
REMARK    4  A    between atoms: P_4  and  C_6
REMARK    5  A    between atoms: P_4  and  C_15
REMARK    6  A    between atoms: C_9  and  N_10
REMARK    7  A    between atoms: N_10  and  C_11
REMARK    8  A    between atoms: N_10  and  C_12
REMARK    9  A    between atoms: C_15  and  O_16
REMARK   10  A    between atoms: C_15  and  C_17
REMARK   11  A    between atoms: C_20  and  C_21
REMARK                            x       y       z     vdW  Elec       q    Type
REMARK                         _______ _______ _______ _____ _____    ______ ____
ROOT
ATOM      1  P   UNL     1       2.945   4.300  18.777  0.00  0.00    +0.000 P 
ATOM      2  O   UNL     1       2.925   3.984  17.267  0.00  0.00    +0.000 OA
ENDROOT
BRANCH   1   3
ATOM      3  C   UNL     1       2.513   6.119  19.112  0.00  0.00    +0.000 A 
ATOM      4  C   UNL     1       2.056   6.496  20.380  0.00  0.00    +0.000 A 
ATOM      5  C   UNL     1       1.575   7.789  20.595  0.00  0.00    +0.000 A 
ATOM      6  C   UNL     1       1.515   8.748  19.563  0.00  0.00    +0.000 A 
ATOM      7  C   UNL     1       1.993   8.357  18.304  0.00  0.00    +0.000 A 
ATOM      8  C   UNL     1       2.478   7.056  18.072  0.00  0.00    +0.000 A 
BRANCH   6   9
ATOM      9  N   UNL     1       1.006  10.022  19.848  0.00  0.00    +0.000 N 
ATOM     10  C   UNL     1       1.063  11.055  18.817  0.00  0.00    +0.000 C 
ATOM     11  C   UNL     1      -0.233  10.027  20.634  0.00  0.00    +0.000 C 
ENDBRANCH   6   9
ENDBRANCH   1   3
BRANCH   1  12
ATOM     12  O   UNL     1       1.240   4.023  18.863  0.00  0.00    +0.000 OA
BRANCH  12  14
ATOM     13  C   UNL     1       2.082   2.747  20.711  0.00  0.00    +0.000 C 
ATOM     14  C   UNL     1       0.925   2.971  19.763  0.00  0.00    +0.000 C 
ENDBRANCH  12  14
ENDBRANCH   1  12
BRANCH   1  15
ATOM     15  C   UNL     1       4.750   4.594  18.686  0.00  0.00    +0.000 C 
BRANCH  15  16
ATOM     16  C   UNL     1       5.260   4.664  17.252  0.00  0.00    +0.000 A 
ATOM     17  C   UNL     1       5.314   5.891  16.580  0.00  0.00    +0.000 A 
ATOM     18  C   UNL     1       5.785   5.962  15.266  0.00  0.00    +0.000 A 
ATOM     19  C   UNL     1       6.208   4.807  14.598  0.00  0.00    +0.000 A 
ATOM     20  C   UNL     1       6.757   4.876  13.204  0.00  0.00    +0.000 C 
ATOM     21  C   UNL     1       6.132   3.578  15.258  0.00  0.00    +0.000 A 
ATOM     22  C   UNL     1       5.661   3.503  16.570  0.00  0.00    +0.000 A 
ENDBRANCH  15  16
BRANCH  15  23
ATOM     23  O   UNL     1       5.490   3.531  19.324  0.00  0.00    +0.000 OA
ATOM     24  H   UNL     1       5.543   2.774  18.721  0.00  0.00    +0.000 HD
ENDBRANCH  15  23
ENDBRANCH   1  15
TORSDOF 7
ENDMDL
MODEL 9
REMARK VINA RESULT:      -7.0      0.891      1.134
REMARK  Name = 
REMARK  11 active torsions:
REMARK  status: ('A' for Active; 'I' for Inactive)
REMARK    1  A    between atoms: C_1  and  C_2
REMARK    2  A    between atoms: C_2  and  O_3
REMARK    3  A    between atoms: O_3  and  P_4
REMARK    4  A    between atoms: P_4  and  C_6
REMARK    5  A    between atoms: P_4  and  C_15
REMARK    6  A    between atoms: C_9  and  N_10
REMARK    7  A    between atoms: N_10  and  C_11
REMARK    8  A    between atoms: N_10  and  C_12
REMARK    9  A    between atoms: C_15  and  O_16
REMARK   10  A    between atoms: C_15  and  C_17
REMARK   11  A    between atoms: C_20  and  C_21
REMARK                            x       y       z     vdW  Elec       q    Type
REMARK                         _______ _______ _______ _____ _____    ______ ____
ROOT
ATOM      1  P   UNL     1       2.926   4.392  18.854  0.00  0.00    +0.000 P 
ATOM      2  O   UNL     1       2.858   4.051  17.350  0.00  0.00    +0.000 OA
ENDROOT
BRANCH   1   3
ATOM      3  C   UNL     1       2.488   6.213  19.174  0.00  0.00    +0.000 A 
ATOM      4  C   UNL     1       1.972   6.587  20.419  0.00  0.00    +0.000 A 
ATOM      5  C   UNL     1       1.489   7.882  20.615  0.00  0.00    +0.000 A 
ATOM      6  C   UNL     1       1.485   8.846  19.585  0.00  0.00    +0.000 A 
ATOM      7  C   UNL     1       2.022   8.456  18.350  0.00  0.00    +0.000 A 
ATOM      8  C   UNL     1       2.510   7.153  18.137  0.00  0.00    +0.000 A 
BRANCH   6   9
ATOM      9  N   UNL     1       0.971  10.122  19.850  0.00  0.00    +0.000 N 
ATOM     10  C   UNL     1       0.984  11.125  18.789  0.00  0.00    +0.000 C 
ATOM     11  C   UNL     1      -0.244  10.136  20.674  0.00  0.00    +0.000 C 
ENDBRANCH   6   9
ENDBRANCH   1   3
BRANCH   1  12
ATOM     12  O   UNL     1       1.227   4.102  19.002  0.00  0.00    +0.000 OA
BRANCH  12  14
ATOM     13  C   UNL     1       2.039   2.903  20.913  0.00  0.00    +0.000 C 
ATOM     14  C   UNL     1       0.956   3.006  19.863  0.00  0.00    +0.000 C 
ENDBRANCH  12  14
ENDBRANCH   1  12
BRANCH   1  15
ATOM     15  C   UNL     1       4.724   4.699  18.697  0.00  0.00    +0.000 C 
BRANCH  15  16
ATOM     16  C   UNL     1       5.197   4.683  17.249  0.00  0.00    +0.000 A 
ATOM     17  C   UNL     1       5.660   3.496  16.669  0.00  0.00    +0.000 A 
ATOM     18  C   UNL     1       6.091   3.474  15.340  0.00  0.00    +0.000 A 
ATOM     19  C   UNL     1       6.071   4.641  14.567  0.00  0.00    +0.000 A 
ATOM     20  C   UNL     1       6.489   4.622  13.125  0.00  0.00    +0.000 C 
ATOM     21  C   UNL     1       5.633   5.832  15.150  0.00  0.00    +0.000 A 
ATOM     22  C   UNL     1       5.202   5.858  16.478  0.00  0.00    +0.000 A 
ENDBRANCH  15  16
BRANCH  15  23
ATOM     23  O   UNL     1       5.494   3.688  19.382  0.00  0.00    +0.000 OA
ATOM     24  H   UNL     1       6.300   3.504  18.876  0.00  0.00    +0.000 HD
ENDBRANCH  15  23
ENDBRANCH   1  15
TORSDOF 7
ENDMDL
