MODEL 1
REMARK VINA RESULT:      -6.7      0.000      0.000
REMARK  Name = 
REMARK  15 active torsions:
REMARK  status: ('A' for Active; 'I' for Inactive)
REMARK    1  A    between atoms: C_1  and  C_2
REMARK    2  A    between atoms: C_2  and  O_4
REMARK    3  A    between atoms: O_4  and  C_5
REMARK    4  A    between atoms: C_5  and  C_6
REMARK    5  A    between atoms: C_8  and  O_9
REMARK    6  A    between atoms: O_9  and  C_10
REMARK    7  A    between atoms: C_10  and  C_11
REMARK    8  A    between atoms: C_13  and  N_14
REMARK    9  A    between atoms: N_14  and  C_15
REMARK   10  A    between atoms: C_17  and  O_18
REMARK   11  A    between atoms: O_18  and  C_19
REMARK   12  A    between atoms: C_19  and  C_20
REMARK   13  A    between atoms: C_22  and  O_23
REMARK   14  A    between atoms: O_23  and  C_24
REMARK   15  A    between atoms: C_24  and  C_25
REMARK                            x       y       z     vdW  Elec       q    Type
REMARK                         _______ _______ _______ _____ _____    ______ ____
ROOT
ATOM      1  C   UNL     1       4.396   4.336  16.868  0.00  0.00    +0.000 C 
ATOM      2  O   UNL     1       4.369   3.322  17.890  0.00  0.00    +0.000 OA
ATOM      3  C   UNL     1       3.316   3.476  18.849  0.00  0.00    +0.000 C 
ATOM      4  C   UNL     1       3.521   4.830  19.567  0.00  0.00    +0.000 C 
ATOM      5  C   UNL     1       3.321   5.940  18.514  0.00  0.00    +0.000 C 
ATOM      6  C   UNL     1       4.431   5.779  17.446  0.00  0.00    +0.000 C 
ENDROOT
BRANCH   4   7
ATOM      7  N   UNL     1       2.638   4.980  20.776  0.00  0.00    +0.000 N 
ATOM      8  H   UNL     1       2.774   5.893  21.243  0.00  0.00    +0.000 HD
BRANCH   7   9
ATOM      9  C   UNL     1       2.344   3.920  21.546  0.00  0.00    +0.000 C 
ATOM     10  N   UNL     1       2.048   3.032  22.223  0.00  0.00    +0.000 NA
ENDBRANCH   7   9
ENDBRANCH   4   7
BRANCH   1  11
ATOM     11  C   UNL     1       5.618   4.031  15.984  0.00  0.00    +0.000 C 
BRANCH  11  12
ATOM     12  O   UNL     1       5.559   4.703  14.718  0.00  0.00    +0.000 OA
BRANCH  12  14
ATOM     13  C   UNL     1       6.627   3.821  12.831  0.00  0.00    +0.000 C 
ATOM     14  C   UNL     1       6.726   4.722  14.021  0.00  0.00    +0.000 C 
ATOM     15  O   UNL     1       7.731   5.339  14.343  0.00  0.00    +0.000 OA
ENDBRANCH  12  14
ENDBRANCH  11  12
ENDBRANCH   1  11
BRANCH   3  16
ATOM     16  O   UNL     1       2.028   3.444  18.209  0.00  0.00    +0.000 OA
BRANCH  16  17
ATOM     17  C   UNL     1       1.217   2.411  18.553  0.00  0.00    +0.000 C 
ATOM     18  C   UNL     1       2.026   1.244  19.040  0.00  0.00    +0.000 C 
ATOM     19  O   UNL     1      -0.004   2.426  18.521  0.00  0.00    +0.000 OA
ENDBRANCH  16  17
ENDBRANCH   3  16
BRANCH   5  20
ATOM     20  O   UNL     1       3.383   7.262  19.090  0.00  0.00    +0.000 OA
BRANCH  20  21
ATOM     21  C   UNL     1       2.202   7.931  19.171  0.00  0.00    +0.000 C 
ATOM     22  C   UNL     1       1.849   8.573  17.865  0.00  0.00    +0.000 C 
ATOM     23  O   UNL     1       1.502   7.986  20.176  0.00  0.00    +0.000 OA
ENDBRANCH  20  21
ENDBRANCH   5  20
BRANCH   6  24
ATOM     24  O   UNL     1       5.729   5.996  18.060  0.00  0.00    +0.000 OA
BRANCH  24  25
ATOM     25  C   UNL     1       6.547   6.906  17.464  0.00  0.00    +0.000 C 
ATOM     26  C   UNL     1       7.844   7.012  18.209  0.00  0.00    +0.000 C 
ATOM     27  O   UNL     1       6.289   7.535  16.448  0.00  0.00    +0.000 OA
ENDBRANCH  24  25
ENDBRANCH   6  24
TORSDOF 11
ENDMDL
MODEL 2
REMARK VINA RESULT:      -6.3      2.847      6.035
REMARK  Name = 
REMARK  15 active torsions:
REMARK  status: ('A' for Active; 'I' for Inactive)
REMARK    1  A    between atoms: C_1  and  C_2
REMARK    2  A    between atoms: C_2  and  O_4
REMARK    3  A    between atoms: O_4  and  C_5
REMARK    4  A    between atoms: C_5  and  C_6
REMARK    5  A    between atoms: C_8  and  O_9
REMARK    6  A    between atoms: O_9  and  C_10
REMARK    7  A    between atoms: C_10  and  C_11
REMARK    8  A    between atoms: C_13  and  N_14
REMARK    9  A    between atoms: N_14  and  C_15
REMARK   10  A    between atoms: C_17  and  O_18
REMARK   11  A    between atoms: O_18  and  C_19
REMARK   12  A    between atoms: C_19  and  C_20
REMARK   13  A    between atoms: C_22  and  O_23
REMARK   14  A    between atoms: O_23  and  C_24
REMARK   15  A    between atoms: C_24  and  C_25
REMARK                            x       y       z     vdW  Elec       q    Type
REMARK                         _______ _______ _______ _____ _____    ______ ____
ROOT
ATOM      1  C   UNL     1       4.514   3.382  20.175  0.00  0.00    +0.000 C 
ATOM      2  O   UNL     1       5.467   3.252  19.103  0.00  0.00    +0.000 OA
ATOM      3  C   UNL     1       5.775   4.480  18.432  0.00  0.00    +0.000 C 
ATOM      4  C   UNL     1       4.468   5.020  17.807  0.00  0.00    +0.000 C 
ATOM      5  C   UNL     1       3.521   5.382  18.971  0.00  0.00    +0.000 C 
ATOM      6  C   UNL     1       3.194   4.074  19.732  0.00  0.00    +0.000 C 
ENDROOT
BRANCH   4   7
ATOM      7  N   UNL     1       4.714   6.160  16.854  0.00  0.00    +0.000 N 
ATOM      8  H   UNL     1       3.887   6.776  16.767  0.00  0.00    +0.000 HD
BRANCH   7   9
ATOM      9  C   UNL     1       5.487   5.991  15.769  0.00  0.00    +0.000 C 
ATOM     10  N   UNL     1       6.128   5.801  14.827  0.00  0.00    +0.000 NA
ENDBRANCH   7   9
ENDBRANCH   4   7
BRANCH   1  11
ATOM     11  C   UNL     1       4.276   1.963  20.720  0.00  0.00    +0.000 C 
BRANCH  11  12
ATOM     12  O   UNL     1       5.286   1.038  20.296  0.00  0.00    +0.000 OA
BRANCH  12  14
ATOM     13  C   UNL     1       6.173  -1.042  20.905  0.00  0.00    +0.000 C 
ATOM     14  C   UNL     1       5.922   0.379  21.301  0.00  0.00    +0.000 C 
ATOM     15  O   UNL     1       6.203   0.856  22.391  0.00  0.00    +0.000 OA
ENDBRANCH  12  14
ENDBRANCH  11  12
ENDBRANCH   1  11
BRANCH   3  16
ATOM     16  O   UNL     1       6.322   5.444  19.349  0.00  0.00    +0.000 OA
BRANCH  16  17
ATOM     17  C   UNL     1       7.654   5.683  19.238  0.00  0.00    +0.000 C 
ATOM     18  C   UNL     1       7.905   6.874  18.359  0.00  0.00    +0.000 C 
ATOM     19  O   UNL     1       8.537   5.057  19.804  0.00  0.00    +0.000 OA
ENDBRANCH  16  17
ENDBRANCH   3  16
BRANCH   5  20
ATOM     20  O   UNL     1       2.300   6.001  18.513  0.00  0.00    +0.000 OA
BRANCH  20  21
ATOM     21  C   UNL     1       2.222   7.349  18.670  0.00  0.00    +0.000 C 
ATOM     22  C   UNL     1       1.857   7.714  20.075  0.00  0.00    +0.000 C 
ATOM     23  O   UNL     1       2.443   8.166  17.782  0.00  0.00    +0.000 OA
ENDBRANCH  20  21
ENDBRANCH   5  20
BRANCH   6  24
ATOM     24  O   UNL     1       2.474   3.169  18.855  0.00  0.00    +0.000 OA
BRANCH  24  25
ATOM     25  C   UNL     1       1.188   2.876  19.194  0.00  0.00    +0.000 C 
ATOM     26  C   UNL     1       0.860   3.443  20.542  0.00  0.00    +0.000 C 
ATOM     27  O   UNL     1       0.391   2.265  18.498  0.00  0.00    +0.000 OA
ENDBRANCH  24  25
ENDBRANCH   6  24
TORSDOF 11
ENDMDL
MODEL 3
REMARK VINA RESULT:      -6.0      2.288      6.153
REMARK  Name = 
REMARK  15 active torsions:
REMARK  status: ('A' for Active; 'I' for Inactive)
REMARK    1  A    between atoms: C_1  and  C_2
REMARK    2  A    between atoms: C_2  and  O_4
REMARK    3  A    between atoms: O_4  and  C_5
REMARK    4  A    between atoms: C_5  and  C_6
REMARK    5  A    between atoms: C_8  and  O_9
REMARK    6  A    between atoms: O_9  and  C_10
REMARK    7  A    between atoms: C_10  and  C_11
REMARK    8  A    between atoms: C_13  and  N_14
REMARK    9  A    between atoms: N_14  and  C_15
REMARK   10  A    between atoms: C_17  and  O_18
REMARK   11  A    between atoms: O_18  and  C_19
REMARK   12  A    between atoms: C_19  and  C_20
REMARK   13  A    between atoms: C_22  and  O_23
REMARK   14  A    between atoms: O_23  and  C_24
REMARK   15  A    between atoms: C_24  and  C_25
REMARK                            x       y       z     vdW  Elec       q    Type
REMARK                         _______ _______ _______ _____ _____    ______ ____
ROOT
ATOM      1  C   UNL     1       3.126   7.383  17.399  0.00  0.00    +0.000 C 
ATOM      2  O   UNL     1       4.555   7.560  17.424  0.00  0.00    +0.000 OA
ATOM      3  C   UNL     1       5.305   6.371  17.148  0.00  0.00    +0.000 C 
ATOM      4  C   UNL     1       4.963   5.331  18.240  0.00  0.00    +0.000 C 
ATOM      5  C   UNL     1       3.474   4.962  18.069  0.00  0.00    +0.000 C 
ATOM      6  C   UNL     1       2.641   6.240  18.333  0.00  0.00    +0.000 C 
ENDROOT
BRANCH   4   7
ATOM      7  N   UNL     1       5.886   4.142  18.212  0.00  0.00    +0.000 N 
ATOM      8  H   UNL     1       5.522   3.357  18.779  0.00  0.00    +0.000 HD
BRANCH   7   9
ATOM      9  C   UNL     1       7.217   4.310  18.154  0.00  0.00    +0.000 C 
ATOM     10  N   UNL     1       8.363   4.457  18.156  0.00  0.00    +0.000 NA
ENDBRANCH   7   9
ENDBRANCH   4   7
BRANCH   1  11
ATOM     11  C   UNL     1       2.512   8.744  17.773  0.00  0.00    +0.000 C 
BRANCH  11  12
ATOM     12  O   UNL     1       1.084   8.753  17.642  0.00  0.00    +0.000 OA
BRANCH  12  14
ATOM     13  C   UNL     1      -0.947   9.917  17.692  0.00  0.00    +0.000 C 
ATOM     14  C   UNL     1       0.464   9.837  18.182  0.00  0.00    +0.000 C 
ATOM     15  O   UNL     1       0.991  10.658  18.917  0.00  0.00    +0.000 OA
ENDBRANCH  12  14
ENDBRANCH  11  12
ENDBRANCH   1  11
BRANCH   3  16
ATOM     16  O   UNL     1       4.981   5.849  15.848  0.00  0.00    +0.000 OA
BRANCH  16  17
ATOM     17  C   UNL     1       6.023   5.361  15.126  0.00  0.00    +0.000 C 
ATOM     18  C   UNL     1       5.570   4.239  14.237  0.00  0.00    +0.000 C 
ATOM     19  O   UNL     1       7.166   5.793  15.148  0.00  0.00    +0.000 OA
ENDBRANCH  16  17
ENDBRANCH   3  16
BRANCH   5  20
ATOM     20  O   UNL     1       3.062   3.912  18.970  0.00  0.00    +0.000 OA
BRANCH  20  21
ATOM     21  C   UNL     1       2.255   2.956  18.440  0.00  0.00    +0.000 C 
ATOM     22  C   UNL     1       1.484   2.240  19.506  0.00  0.00    +0.000 C 
ATOM     23  O   UNL     1       2.150   2.721  17.241  0.00  0.00    +0.000 OA
ENDBRANCH  20  21
ENDBRANCH   5  20
BRANCH   6  24
ATOM     24  O   UNL     1       2.825   6.663  19.710  0.00  0.00    +0.000 OA
BRANCH  24  25
ATOM     25  C   UNL     1       1.755   6.532  20.542  0.00  0.00    +0.000 C 
ATOM     26  C   UNL     1       1.378   7.862  21.122  0.00  0.00    +0.000 C 
ATOM     27  O   UNL     1       1.156   5.492  20.771  0.00  0.00    +0.000 OA
ENDBRANCH  24  25
ENDBRANCH   6  24
TORSDOF 11
ENDMDL
MODEL 4
REMARK VINA RESULT:      -5.9      2.793      6.046
REMARK  Name = 
REMARK  15 active torsions:
REMARK  status: ('A' for Active; 'I' for Inactive)
REMARK    1  A    between atoms: C_1  and  C_2
REMARK    2  A    between atoms: C_2  and  O_4
REMARK    3  A    between atoms: O_4  and  C_5
REMARK    4  A    between atoms: C_5  and  C_6
REMARK    5  A    between atoms: C_8  and  O_9
REMARK    6  A    between atoms: O_9  and  C_10
REMARK    7  A    between atoms: C_10  and  C_11
REMARK    8  A    between atoms: C_13  and  N_14
REMARK    9  A    between atoms: N_14  and  C_15
REMARK   10  A    between atoms: C_17  and  O_18
REMARK   11  A    between atoms: O_18  and  C_19
REMARK   12  A    between atoms: C_19  and  C_20
REMARK   13  A    between atoms: C_22  and  O_23
REMARK   14  A    between atoms: O_23  and  C_24
REMARK   15  A    between atoms: C_24  and  C_25
REMARK                            x       y       z     vdW  Elec       q    Type
REMARK                         _______ _______ _______ _____ _____    ______ ____
ROOT
ATOM      1  C   UNL     1       4.450   3.636  20.251  0.00  0.00    +0.000 C 
ATOM      2  O   UNL     1       5.358   3.422  19.155  0.00  0.00    +0.000 OA
ATOM      3  C   UNL     1       5.720   4.612  18.444  0.00  0.00    +0.000 C 
ATOM      4  C   UNL     1       4.430   5.218  17.845  0.00  0.00    +0.000 C 
ATOM      5  C   UNL     1       3.544   5.665  19.027  0.00  0.00    +0.000 C 
ATOM      6  C   UNL     1       3.162   4.398  19.831  0.00  0.00    +0.000 C 
ENDROOT
BRANCH   4   7
ATOM      7  N   UNL     1       4.714   6.317  16.857  0.00  0.00    +0.000 N 
ATOM      8  H   UNL     1       3.909   6.958  16.749  0.00  0.00    +0.000 HD
BRANCH   7   9
ATOM      9  C   UNL     1       5.481   6.087  15.778  0.00  0.00    +0.000 C 
ATOM     10  N   UNL     1       6.115   5.927  14.827  0.00  0.00    +0.000 NA
ENDBRANCH   7   9
ENDBRANCH   4   7
BRANCH   1  11
ATOM     11  C   UNL     1       4.142   2.247  20.839  0.00  0.00    +0.000 C 
BRANCH  11  12
ATOM     12  O   UNL     1       5.243   1.716  21.590  0.00  0.00    +0.000 OA
BRANCH  12  14
ATOM     13  C   UNL     1       6.431  -0.164  22.322  0.00  0.00    +0.000 C 
ATOM     14  C   UNL     1       5.645   0.471  21.219  0.00  0.00    +0.000 C 
ATOM     15  O   UNL     1       5.444  -0.039  20.127  0.00  0.00    +0.000 OA
ENDBRANCH  12  14
ENDBRANCH  11  12
ENDBRANCH   1  11
BRANCH   3  16
ATOM     16  O   UNL     1       6.354   5.561  19.319  0.00  0.00    +0.000 OA
BRANCH  16  17
ATOM     17  C   UNL     1       7.690   5.732  19.145  0.00  0.00    +0.000 C 
ATOM     18  C   UNL     1       7.965   6.984  18.364  0.00  0.00    +0.000 C 
ATOM     19  O   UNL     1       8.563   5.005  19.594  0.00  0.00    +0.000 OA
ENDBRANCH  16  17
ENDBRANCH   3  16
BRANCH   5  20
ATOM     20  O   UNL     1       2.349   6.348  18.591  0.00  0.00    +0.000 OA
BRANCH  20  21
ATOM     21  C   UNL     1       2.158   7.595  19.099  0.00  0.00    +0.000 C 
ATOM     22  C   UNL     1       2.157   8.629  18.016  0.00  0.00    +0.000 C 
ATOM     23  O   UNL     1       1.985   7.842  20.287  0.00  0.00    +0.000 OA
ENDBRANCH  20  21
ENDBRANCH   5  20
BRANCH   6  24
ATOM     24  O   UNL     1       2.359   3.519  18.999  0.00  0.00    +0.000 OA
BRANCH  24  25
ATOM     25  C   UNL     1       1.109   3.221  19.447  0.00  0.00    +0.000 C 
ATOM     26  C   UNL     1       0.540   2.065  18.680  0.00  0.00    +0.000 C 
ATOM     27  O   UNL     1       0.528   3.785  20.363  0.00  0.00    +0.000 OA
ENDBRANCH  24  25
ENDBRANCH   6  24
TORSDOF 11
ENDMDL
MODEL 5
REMARK VINA RESULT:      -5.8      2.195      4.795
REMARK  Name = 
REMARK  15 active torsions:
REMARK  status: ('A' for Active; 'I' for Inactive)
REMARK    1  A    between atoms: C_1  and  C_2
REMARK    2  A    between atoms: C_2  and  O_4
REMARK    3  A    between atoms: O_4  and  C_5
REMARK    4  A    between atoms: C_5  and  C_6
REMARK    5  A    between atoms: C_8  and  O_9
REMARK    6  A    between atoms: O_9  and  C_10
REMARK    7  A    between atoms: C_10  and  C_11
REMARK    8  A    between atoms: C_13  and  N_14
REMARK    9  A    between atoms: N_14  and  C_15
REMARK   10  A    between atoms: C_17  and  O_18
REMARK   11  A    between atoms: O_18  and  C_19
REMARK   12  A    between atoms: C_19  and  C_20
REMARK   13  A    between atoms: C_22  and  O_23
REMARK   14  A    between atoms: O_23  and  C_24
REMARK   15  A    between atoms: C_24  and  C_25
REMARK                            x       y       z     vdW  Elec       q    Type
REMARK                         _______ _______ _______ _____ _____    ______ ____
ROOT
ATOM      1  C   UNL     1       2.927   6.306  18.558  0.00  0.00    +0.000 C 
ATOM      2  O   UNL     1       1.974   5.241  18.387  0.00  0.00    +0.000 OA
ATOM      3  C   UNL     1       2.315   4.026  19.066  0.00  0.00    +0.000 C 
ATOM      4  C   UNL     1       3.659   3.522  18.492  0.00  0.00    +0.000 C 
ATOM      5  C   UNL     1       4.737   4.557  18.876  0.00  0.00    +0.000 C 
ATOM      6  C   UNL     1       4.376   5.891  18.177  0.00  0.00    +0.000 C 
ENDROOT
BRANCH   4   7
ATOM      7  N   UNL     1       3.985   2.120  18.934  0.00  0.00    +0.000 N 
ATOM      8  H   UNL     1       3.239   1.451  18.676  0.00  0.00    +0.000 HD
BRANCH   7   9
ATOM      9  C   UNL     1       4.656   1.901  20.076  0.00  0.00    +0.000 C 
ATOM     10  N   UNL     1       5.196   1.683  21.074  0.00  0.00    +0.000 NA
ENDBRANCH   7   9
ENDBRANCH   4   7
BRANCH   1  11
ATOM     11  C   UNL     1       2.417   7.487  17.713  0.00  0.00    +0.000 C 
BRANCH  11  12
ATOM     12  O   UNL     1       2.525   8.740  18.403  0.00  0.00    +0.000 OA
BRANCH  12  14
ATOM     13  C   UNL     1       0.454   9.821  18.257  0.00  0.00    +0.000 C 
ATOM     14  C   UNL     1       1.430   9.095  19.127  0.00  0.00    +0.000 C 
ATOM     15  O   UNL     1       1.283   8.901  20.325  0.00  0.00    +0.000 OA
ENDBRANCH  12  14
ENDBRANCH  11  12
ENDBRANCH   1  11
BRANCH   3  16
ATOM     16  O   UNL     1       2.432   4.245  20.483  0.00  0.00    +0.000 OA
BRANCH  16  17
ATOM     17  C   UNL     1       1.756   3.376  21.278  0.00  0.00    +0.000 C 
ATOM     18  C   UNL     1       0.560   2.824  20.559  0.00  0.00    +0.000 C 
ATOM     19  O   UNL     1       2.086   3.042  22.406  0.00  0.00    +0.000 OA
ENDBRANCH  16  17
ENDBRANCH   3  16
BRANCH   5  20
ATOM     20  O   UNL     1       6.063   4.141  18.484  0.00  0.00    +0.000 OA
BRANCH  20  21
ATOM     21  C   UNL     1       7.092   4.828  19.045  0.00  0.00    +0.000 C 
ATOM     22  C   UNL     1       8.269   4.897  18.122  0.00  0.00    +0.000 C 
ATOM     23  O   UNL     1       7.058   5.347  20.155  0.00  0.00    +0.000 OA
ENDBRANCH  20  21
ENDBRANCH   5  20
BRANCH   6  24
ATOM     24  O   UNL     1       4.440   5.716  16.736  0.00  0.00    +0.000 OA
BRANCH  24  25
ATOM     25  C   UNL     1       5.420   6.391  16.077  0.00  0.00    +0.000 C 
ATOM     26  C   UNL     1       6.023   7.438  16.965  0.00  0.00    +0.000 C 
ATOM     27  O   UNL     1       5.791   6.170  14.934  0.00  0.00    +0.000 OA
ENDBRANCH  24  25
ENDBRANCH   6  24
TORSDOF 11
ENDMDL
MODEL 6
REMARK VINA RESULT:      -5.8      1.921      5.531
REMARK  Name = 
REMARK  15 active torsions:
REMARK  status: ('A' for Active; 'I' for Inactive)
REMARK    1  A    between atoms: C_1  and  C_2
REMARK    2  A    between atoms: C_2  and  O_4
REMARK    3  A    between atoms: O_4  and  C_5
REMARK    4  A    between atoms: C_5  and  C_6
REMARK    5  A    between atoms: C_8  and  O_9
REMARK    6  A    between atoms: O_9  and  C_10
REMARK    7  A    between atoms: C_10  and  C_11
REMARK    8  A    between atoms: C_13  and  N_14
REMARK    9  A    between atoms: N_14  and  C_15
REMARK   10  A    between atoms: C_17  and  O_18
REMARK   11  A    between atoms: O_18  and  C_19
REMARK   12  A    between atoms: C_19  and  C_20
REMARK   13  A    between atoms: C_22  and  O_23
REMARK   14  A    between atoms: O_23  and  C_24
REMARK   15  A    between atoms: C_24  and  C_25
REMARK                            x       y       z     vdW  Elec       q    Type
REMARK                         _______ _______ _______ _____ _____    ______ ____
ROOT
ATOM      1  C   UNL     1       3.703   6.570  17.619  0.00  0.00    +0.000 C 
ATOM      2  O   UNL     1       5.094   6.349  17.917  0.00  0.00    +0.000 OA
ATOM      3  C   UNL     1       5.497   4.975  17.881  0.00  0.00    +0.000 C 
ATOM      4  C   UNL     1       4.683   4.213  18.952  0.00  0.00    +0.000 C 
ATOM      5  C   UNL     1       3.204   4.249  18.512  0.00  0.00    +0.000 C 
ATOM      6  C   UNL     1       2.750   5.729  18.514  0.00  0.00    +0.000 C 
ENDROOT
BRANCH   4   7
ATOM      7  N   UNL     1       5.207   2.822  19.192  0.00  0.00    +0.000 N 
ATOM      8  H   UNL     1       5.183   2.247  18.332  0.00  0.00    +0.000 HD
BRANCH   7   9
ATOM      9  C   UNL     1       4.997   2.205  20.366  0.00  0.00    +0.000 C 
ATOM     10  N   UNL     1       4.772   1.657  21.358  0.00  0.00    +0.000 NA
ENDBRANCH   7   9
ENDBRANCH   4   7
BRANCH   1  11
ATOM     11  C   UNL     1       3.461   8.083  17.767  0.00  0.00    +0.000 C 
BRANCH  11  12
ATOM     12  O   UNL     1       2.124   8.459  17.410  0.00  0.00    +0.000 OA
BRANCH  12  14
ATOM     13  C   UNL     1       0.328   9.759  18.163  0.00  0.00    +0.000 C 
ATOM     14  C   UNL     1       1.768   9.724  17.762  0.00  0.00    +0.000 C 
ATOM     15  O   UNL     1       2.499  10.703  17.709  0.00  0.00    +0.000 OA
ENDBRANCH  12  14
ENDBRANCH  11  12
ENDBRANCH   1  11
BRANCH   3  16
ATOM     16  O   UNL     1       5.263   4.404  16.581  0.00  0.00    +0.000 OA
BRANCH  16  17
ATOM     17  C   UNL     1       6.318   4.417  15.726  0.00  0.00    +0.000 C 
ATOM     18  C   UNL     1       5.856   4.199  14.315  0.00  0.00    +0.000 C 
ATOM     19  O   UNL     1       7.482   4.622  16.038  0.00  0.00    +0.000 OA
ENDBRANCH  16  17
ENDBRANCH   3  16
BRANCH   5  20
ATOM     20  O   UNL     1       2.353   3.473  19.383  0.00  0.00    +0.000 OA
BRANCH  20  21
ATOM     21  C   UNL     1       1.527   2.584  18.771  0.00  0.00    +0.000 C 
ATOM     22  C   UNL     1       2.240   1.836  17.686  0.00  0.00    +0.000 C 
ATOM     23  O   UNL     1       0.356   2.398  19.079  0.00  0.00    +0.000 OA
ENDBRANCH  20  21
ENDBRANCH   5  20
BRANCH   6  24
ATOM     24  O   UNL     1       2.811   6.253  19.867  0.00  0.00    +0.000 OA
BRANCH  24  25
ATOM     25  C   UNL     1       1.626   6.411  20.519  0.00  0.00    +0.000 C 
ATOM     26  C   UNL     1       1.471   7.825  20.990  0.00  0.00    +0.000 C 
ATOM     27  O   UNL     1       0.783   5.541  20.681  0.00  0.00    +0.000 OA
ENDBRANCH  24  25
ENDBRANCH   6  24
TORSDOF 11
ENDMDL
MODEL 7
REMARK VINA RESULT:      -5.7      2.261      4.877
REMARK  Name = 
REMARK  15 active torsions:
REMARK  status: ('A' for Active; 'I' for Inactive)
REMARK    1  A    between atoms: C_1  and  C_2
REMARK    2  A    between atoms: C_2  and  O_4
REMARK    3  A    between atoms: O_4  and  C_5
REMARK    4  A    between atoms: C_5  and  C_6
REMARK    5  A    between atoms: C_8  and  O_9
REMARK    6  A    between atoms: O_9  and  C_10
REMARK    7  A    between atoms: C_10  and  C_11
REMARK    8  A    between atoms: C_13  and  N_14
REMARK    9  A    between atoms: N_14  and  C_15
REMARK   10  A    between atoms: C_17  and  O_18
REMARK   11  A    between atoms: O_18  and  C_19
REMARK   12  A    between atoms: C_19  and  C_20
REMARK   13  A    between atoms: C_22  and  O_23
REMARK   14  A    between atoms: O_23  and  C_24
REMARK   15  A    between atoms: C_24  and  C_25
REMARK                            x       y       z     vdW  Elec       q    Type
REMARK                         _______ _______ _______ _____ _____    ______ ____
ROOT
ATOM      1  C   UNL     1       3.310   6.421  18.611  0.00  0.00    +0.000 C 
ATOM      2  O   UNL     1       2.245   5.458  18.505  0.00  0.00    +0.000 OA
ATOM      3  C   UNL     1       2.547   4.175  19.067  0.00  0.00    +0.000 C 
ATOM      4  C   UNL     1       3.756   3.593  18.299  0.00  0.00    +0.000 C 
ATOM      5  C   UNL     1       4.968   4.501  18.599  0.00  0.00    +0.000 C 
ATOM      6  C   UNL     1       4.655   5.905  18.027  0.00  0.00    +0.000 C 
ENDROOT
BRANCH   4   7
ATOM      7  N   UNL     1       3.996   2.142  18.619  0.00  0.00    +0.000 N 
ATOM      8  H   UNL     1       3.225   1.540  18.283  0.00  0.00    +0.000 HD
BRANCH   7   9
ATOM      9  C   UNL     1       4.624   1.785  19.751  0.00  0.00    +0.000 C 
ATOM     10  N   UNL     1       5.172   1.527  20.735  0.00  0.00    +0.000 NA
ENDBRANCH   7   9
ENDBRANCH   4   7
BRANCH   1  11
ATOM     11  C   UNL     1       2.817   7.696  17.905  0.00  0.00    +0.000 C 
BRANCH  11  12
ATOM     12  O   UNL     1       1.782   8.363  18.641  0.00  0.00    +0.000 OA
BRANCH  12  14
ATOM     13  C   UNL     1       0.448  10.233  19.094  0.00  0.00    +0.000 C 
ATOM     14  C   UNL     1       1.596   9.671  18.317  0.00  0.00    +0.000 C 
ATOM     15  O   UNL     1       2.235  10.287  17.477  0.00  0.00    +0.000 OA
ENDBRANCH  12  14
ENDBRANCH  11  12
ENDBRANCH   1  11
BRANCH   3  16
ATOM     16  O   UNL     1       2.857   4.288  20.468  0.00  0.00    +0.000 OA
BRANCH  16  17
ATOM     17  C   UNL     1       2.081   3.558  21.310  0.00  0.00    +0.000 C 
ATOM     18  C   UNL     1       0.810   3.141  20.629  0.00  0.00    +0.000 C 
ATOM     19  O   UNL     1       2.380   3.235  22.450  0.00  0.00    +0.000 OA
ENDBRANCH  16  17
ENDBRANCH   3  16
BRANCH   5  20
ATOM     20  O   UNL     1       6.189   3.995  18.020  0.00  0.00    +0.000 OA
BRANCH  20  21
ATOM     21  C   UNL     1       7.340   4.562  18.469  0.00  0.00    +0.000 C 
ATOM     22  C   UNL     1       7.090   5.430  19.663  0.00  0.00    +0.000 C 
ATOM     23  O   UNL     1       8.447   4.370  17.978  0.00  0.00    +0.000 OA
ENDBRANCH  20  21
ENDBRANCH   5  20
BRANCH   6  24
ATOM     24  O   UNL     1       4.525   5.821  16.583  0.00  0.00    +0.000 OA
BRANCH  24  25
ATOM     25  C   UNL     1       5.583   6.256  15.844  0.00  0.00    +0.000 C 
ATOM     26  C   UNL     1       6.351   7.302  16.594  0.00  0.00    +0.000 C 
ATOM     27  O   UNL     1       5.895   5.841  14.737  0.00  0.00    +0.000 OA
ENDBRANCH  24  25
ENDBRANCH   6  24
TORSDOF 11
ENDMDL
MODEL 8
REMARK VINA RESULT:      -5.7      1.784      4.631
REMARK  Name = 
REMARK  15 active torsions:
REMARK  status: ('A' for Active; 'I' for Inactive)
REMARK    1  A    between atoms: C_1  and  C_2
REMARK    2  A    between atoms: C_2  and  O_4
REMARK    3  A    between atoms: O_4  and  C_5
REMARK    4  A    between atoms: C_5  and  C_6
REMARK    5  A    between atoms: C_8  and  O_9
REMARK    6  A    between atoms: O_9  and  C_10
REMARK    7  A    between atoms: C_10  and  C_11
REMARK    8  A    between atoms: C_13  and  N_14
REMARK    9  A    between atoms: N_14  and  C_15
REMARK   10  A    between atoms: C_17  and  O_18
REMARK   11  A    between atoms: O_18  and  C_19
REMARK   12  A    between atoms: C_19  and  C_20
REMARK   13  A    between atoms: C_22  and  O_23
REMARK   14  A    between atoms: O_23  and  C_24
REMARK   15  A    between atoms: C_24  and  C_25
REMARK                            x       y       z     vdW  Elec       q    Type
REMARK                         _______ _______ _______ _____ _____    ______ ____
ROOT
ATOM      1  C   UNL     1       5.017   6.350  17.836  0.00  0.00    +0.000 C 
ATOM      2  O   UNL     1       3.732   6.833  17.402  0.00  0.00    +0.000 OA
ATOM      3  C   UNL     1       2.636   6.427  18.229  0.00  0.00    +0.000 C 
ATOM      4  C   UNL     1       2.567   4.883  18.200  0.00  0.00    +0.000 C 
ATOM      5  C   UNL     1       3.848   4.355  18.880  0.00  0.00    +0.000 C 
ATOM      6  C   UNL     1       5.054   4.807  18.020  0.00  0.00    +0.000 C 
ENDROOT
BRANCH   4   7
ATOM      7  N   UNL     1       1.298   4.351  18.812  0.00  0.00    +0.000 N 
ATOM      8  H   UNL     1       1.161   4.696  19.778  0.00  0.00    +0.000 HD
BRANCH   7   9
ATOM      9  C   UNL     1       0.861   3.115  18.520  0.00  0.00    +0.000 C 
ATOM     10  N   UNL     1       0.515   2.034  18.307  0.00  0.00    +0.000 NA
ENDBRANCH   7   9
ENDBRANCH   4   7
BRANCH   1  11
ATOM     11  C   UNL     1       6.041   6.839  16.796  0.00  0.00    +0.000 C 
BRANCH  11  12
ATOM     12  O   UNL     1       6.671   8.067  17.185  0.00  0.00    +0.000 OA
BRANCH  12  14
ATOM     13  C   UNL     1       8.451   9.247  18.146  0.00  0.00    +0.000 C 
ATOM     14  C   UNL     1       7.771   7.926  17.973  0.00  0.00    +0.000 C 
ATOM     15  O   UNL     1       8.181   6.869  18.430  0.00  0.00    +0.000 OA
ENDBRANCH  12  14
ENDBRANCH  11  12
ENDBRANCH   1  11
BRANCH   3  16
ATOM     16  O   UNL     1       2.810   6.890  19.579  0.00  0.00    +0.000 OA
BRANCH  16  17
ATOM     17  C   UNL     1       1.918   7.819  20.010  0.00  0.00    +0.000 C 
ATOM     18  C   UNL     1       1.603   8.796  18.916  0.00  0.00    +0.000 C 
ATOM     19  O   UNL     1       1.398   7.844  21.116  0.00  0.00    +0.000 OA
ENDBRANCH  16  17
ENDBRANCH   3  16
BRANCH   5  20
ATOM     20  O   UNL     1       3.849   2.918  19.010  0.00  0.00    +0.000 OA
BRANCH  20  21
ATOM     21  C   UNL     1       4.157   2.432  20.242  0.00  0.00    +0.000 C 
ATOM     22  C   UNL     1       3.066   2.715  21.228  0.00  0.00    +0.000 C 
ATOM     23  O   UNL     1       5.185   1.820  20.510  0.00  0.00    +0.000 OA
ENDBRANCH  20  21
ENDBRANCH   5  20
BRANCH   6  24
ATOM     24  O   UNL     1       4.974   4.186  16.709  0.00  0.00    +0.000 OA
BRANCH  24  25
ATOM     25  C   UNL     1       6.145   4.023  16.034  0.00  0.00    +0.000 C 
ATOM     26  C   UNL     1       5.884   3.850  14.568  0.00  0.00    +0.000 C 
ATOM     27  O   UNL     1       7.261   4.042  16.532  0.00  0.00    +0.000 OA
ENDBRANCH  24  25
ENDBRANCH   6  24
TORSDOF 11
ENDMDL
MODEL 9
REMARK VINA RESULT:      -5.7      0.868      1.070
REMARK  Name = 
REMARK  15 active torsions:
REMARK  status: ('A' for Active; 'I' for Inactive)
REMARK    1  A    between atoms: C_1  and  C_2
REMARK    2  A    between atoms: C_2  and  O_4
REMARK    3  A    between atoms: O_4  and  C_5
REMARK    4  A    between atoms: C_5  and  C_6
REMARK    5  A    between atoms: C_8  and  O_9
REMARK    6  A    between atoms: O_9  and  C_10
REMARK    7  A    between atoms: C_10  and  C_11
REMARK    8  A    between atoms: C_13  and  N_14
REMARK    9  A    between atoms: N_14  and  C_15
REMARK   10  A    between atoms: C_17  and  O_18
REMARK   11  A    between atoms: O_18  and  C_19
REMARK   12  A    between atoms: C_19  and  C_20
REMARK   13  A    between atoms: C_22  and  O_23
REMARK   14  A    between atoms: O_23  and  C_24
REMARK   15  A    between atoms: C_24  and  C_25
REMARK                            x       y       z     vdW  Elec       q    Type
REMARK                         _______ _______ _______ _____ _____    ______ ____
ROOT
ATOM      1  C   UNL     1       4.910   4.358  16.653  0.00  0.00    +0.000 C 
ATOM      2  O   UNL     1       4.774   3.338  17.660  0.00  0.00    +0.000 OA
ATOM      3  C   UNL     1       3.603   3.464  18.477  0.00  0.00    +0.000 C 
ATOM      4  C   UNL     1       3.685   4.818  19.218  0.00  0.00    +0.000 C 
ATOM      5  C   UNL     1       3.597   5.929  18.150  0.00  0.00    +0.000 C 
ATOM      6  C   UNL     1       4.838   5.798  17.234  0.00  0.00    +0.000 C 
ENDROOT
BRANCH   4   7
ATOM      7  N   UNL     1       2.650   4.943  20.304  0.00  0.00    +0.000 N 
ATOM      8  H   UNL     1       2.499   5.929  20.582  0.00  0.00    +0.000 HD
BRANCH   7   9
ATOM      9  C   UNL     1       2.534   3.999  21.252  0.00  0.00    +0.000 C 
ATOM     10  N   UNL     1       2.431   3.224  22.102  0.00  0.00    +0.000 NA
ENDBRANCH   7   9
ENDBRANCH   4   7
BRANCH   1  11
ATOM     11  C   UNL     1       6.242   4.084  15.933  0.00  0.00    +0.000 C 
BRANCH  11  12
ATOM     12  O   UNL     1       6.474   4.994  14.848  0.00  0.00    +0.000 OA
BRANCH  12  14
ATOM     13  C   UNL     1       7.726   5.114  12.873  0.00  0.00    +0.000 C 
ATOM     14  C   UNL     1       6.647   4.408  13.633  0.00  0.00    +0.000 C 
ATOM     15  O   UNL     1       5.986   3.477  13.197  0.00  0.00    +0.000 OA
ENDBRANCH  12  14
ENDBRANCH  11  12
ENDBRANCH   1  11
BRANCH   3  16
ATOM     16  O   UNL     1       2.409   3.408  17.676  0.00  0.00    +0.000 OA
BRANCH  16  17
ATOM     17  C   UNL     1       1.367   2.718  18.208  0.00  0.00    +0.000 C 
ATOM     18  C   UNL     1       1.847   1.453  18.857  0.00  0.00    +0.000 C 
ATOM     19  O   UNL     1       0.201   3.084  18.209  0.00  0.00    +0.000 OA
ENDBRANCH  16  17
ENDBRANCH   3  16
BRANCH   5  20
ATOM     20  O   UNL     1       3.554   7.249  18.733  0.00  0.00    +0.000 OA
BRANCH  20  21
ATOM     21  C   UNL     1       2.539   8.052  18.316  0.00  0.00    +0.000 C 
ATOM     22  C   UNL     1       1.579   8.338  19.429  0.00  0.00    +0.000 C 
ATOM     23  O   UNL     1       2.433   8.504  17.182  0.00  0.00    +0.000 OA
ENDBRANCH  20  21
ENDBRANCH   5  20
BRANCH   6  24
ATOM     24  O   UNL     1       6.041   6.040  18.010  0.00  0.00    +0.000 OA
BRANCH  24  25
ATOM     25  C   UNL     1       6.847   7.056  17.596  0.00  0.00    +0.000 C 
ATOM     26  C   UNL     1       8.078   7.128  18.447  0.00  0.00    +0.000 C 
ATOM     27  O   UNL     1       6.627   7.795  16.647  0.00  0.00    +0.000 OA
ENDBRANCH  24  25
ENDBRANCH   6  24
TORSDOF 11
ENDMDL
