MODEL 1
REMARK VINA RESULT:      -7.1      0.000      0.000
REMARK  Name = 
REMARK  13 active torsions:
REMARK  status: ('A' for Active; 'I' for Inactive)
REMARK    1  A    between atoms: C_1  and  O_2
REMARK    2  A    between atoms: O_2  and  C_3
REMARK    3  A    between atoms: C_3  and  C_4
REMARK    4  A    between atoms: C_4  and  N_5
REMARK    5  A    between atoms: N_5  and  C_6
REMARK    6  A    between atoms: N_5  and  S_10
REMARK    7  A    between atoms: C_6  and  C_7
REMARK    8  A    between atoms: C_7  and  O_8
REMARK    9  A    between atoms: O_8  and  C_9
REMARK   10  A    between atoms: S_10  and  C_13
REMARK   11  A    between atoms: C_16  and  C_17
REMARK   12  A    between atoms: N_19  and  C_20
REMARK   13  A    between atoms: C_24  and  C_25
REMARK                            x       y       z     vdW  Elec       q    Type
REMARK                         _______ _______ _______ _____ _____    ______ ____
ROOT
ATOM      1  C   UNL     1       2.459   6.372  18.882  0.00  0.00    +0.000 A 
ATOM      2  C   UNL     1       2.499   7.350  17.890  0.00  0.00    +0.000 A 
ATOM      3  C   UNL     1       2.102   8.645  18.210  0.00  0.00    +0.000 A 
ATOM      4  C   UNL     1       1.654   8.980  19.505  0.00  0.00    +0.000 A 
ATOM      5  C   UNL     1       1.580   7.971  20.476  0.00  0.00    +0.000 A 
ATOM      6  C   UNL     1       1.987   6.669  20.163  0.00  0.00    +0.000 A 
ENDROOT
BRANCH   4   7
ATOM      7  C   UNL     1       1.298  10.417  19.749  0.00  0.00    +0.000 C 
ATOM      8  O   UNL     1       0.658  10.654  20.769  0.00  0.00    +0.000 OA
ATOM      9  N   UNL     1       1.662  11.342  18.779  0.00  0.00    +0.000 N 
ATOM     10  H   UNL     1       2.094  11.028  17.922  0.00  0.00    +0.000 HD
BRANCH   9  11
ATOM     11  C   UNL     1       1.450  12.720  18.848  0.00  0.00    +0.000 A 
ATOM     12  S   UNL     1       2.769  13.779  19.038  0.00  0.00    +0.000 S 
ATOM     13  C   UNL     1       1.794  15.150  18.912  0.00  0.00    +0.000 A 
ATOM     14  C   UNL     1       0.460  14.835  18.743  0.00  0.00    +0.000 A 
ATOM     15  C   UNL     1       0.243  13.401  18.717  0.00  0.00    +0.000 A 
ATOM     16  C   UNL     1      -0.578  15.920  18.644  0.00  0.00    +0.000 C 
ATOM     17  C   UNL     1       0.047  17.270  18.257  0.00  0.00    +0.000 C 
ATOM     18  C   UNL     1       1.287  17.585  19.103  0.00  0.00    +0.000 C 
ATOM     19  C   UNL     1       2.382  16.525  18.934  0.00  0.00    +0.000 C 
BRANCH  15  20
ATOM     20  C   UNL     1      -1.068  12.767  18.557  0.00  0.00    +0.000 C 
ATOM     21  N   UNL     1      -1.410  12.414  17.275  0.00  0.00    +0.000 N 
ATOM     22  O   UNL     1      -1.823  12.500  19.480  0.00  0.00    +0.000 OA
ATOM     23  H   UNL     1      -0.660  12.204  16.630  0.00  0.00    +0.000 HD
ATOM     24  H   UNL     1      -2.216  11.800  17.235  0.00  0.00    +0.000 HD
ENDBRANCH  15  20
ENDBRANCH   9  11
ENDBRANCH   4   7
BRANCH   1  25
ATOM     25  S   UNL     1       3.010   4.732  18.494  0.00  0.00    +0.000 S 
ATOM     26  O   UNL     1       2.071   4.216  17.523  0.00  0.00    +0.000 OA
ATOM     27  O   UNL     1       3.254   4.042  19.746  0.00  0.00    +0.000 OA
BRANCH  25  28
ATOM     28  N   UNL     1       4.561   4.946  17.739  0.00  0.00    +0.000 NA
BRANCH  28  29
ATOM     29  C   UNL     1       5.694   4.466  18.622  0.00  0.00    +0.000 C 
BRANCH  29  30
ATOM     30  C   UNL     1       6.645   5.540  19.163  0.00  0.00    +0.000 C 
BRANCH  30  32
ATOM     31  C   UNL     1       7.480   7.113  17.627  0.00  0.00    +0.000 C 
ATOM     32  O   UNL     1       7.696   5.844  18.245  0.00  0.00    +0.000 OA
ENDBRANCH  30  32
ENDBRANCH  29  30
ENDBRANCH  28  29
BRANCH  28  33
ATOM     33  C   UNL     1       4.611   4.326  16.356  0.00  0.00    +0.000 C 
BRANCH  33  34
ATOM     34  C   UNL     1       5.995   3.781  15.971  0.00  0.00    +0.000 C 
BRANCH  34  35
ATOM     35  O   UNL     1       6.577   4.552  14.910  0.00  0.00    +0.000 OA
ATOM     36  C   UNL     1       6.258   3.958  13.649  0.00  0.00    +0.000 C 
ENDBRANCH  34  35
ENDBRANCH  33  34
ENDBRANCH  28  33
ENDBRANCH  25  28
ENDBRANCH   1  25
TORSDOF 11
ENDMDL
MODEL 2
REMARK VINA RESULT:      -7.0      3.477      4.476
REMARK  Name = 
REMARK  13 active torsions:
REMARK  status: ('A' for Active; 'I' for Inactive)
REMARK    1  A    between atoms: C_1  and  O_2
REMARK    2  A    between atoms: O_2  and  C_3
REMARK    3  A    between atoms: C_3  and  C_4
REMARK    4  A    between atoms: C_4  and  N_5
REMARK    5  A    between atoms: N_5  and  C_6
REMARK    6  A    between atoms: N_5  and  S_10
REMARK    7  A    between atoms: C_6  and  C_7
REMARK    8  A    between atoms: C_7  and  O_8
REMARK    9  A    between atoms: O_8  and  C_9
REMARK   10  A    between atoms: S_10  and  C_13
REMARK   11  A    between atoms: C_16  and  C_17
REMARK   12  A    between atoms: N_19  and  C_20
REMARK   13  A    between atoms: C_24  and  C_25
REMARK                            x       y       z     vdW  Elec       q    Type
REMARK                         _______ _______ _______ _____ _____    ______ ____
ROOT
ATOM      1  C   UNL     1       2.177   7.658  18.825  0.00  0.00    +0.000 A 
ATOM      2  C   UNL     1       1.791   8.685  17.967  0.00  0.00    +0.000 A 
ATOM      3  C   UNL     1       1.076   9.760  18.489  0.00  0.00    +0.000 A 
ATOM      4  C   UNL     1       0.732   9.822  19.855  0.00  0.00    +0.000 A 
ATOM      5  C   UNL     1       1.094   8.757  20.692  0.00  0.00    +0.000 A 
ATOM      6  C   UNL     1       1.820   7.678  20.175  0.00  0.00    +0.000 A 
ENDROOT
BRANCH   4   7
ATOM      7  C   UNL     1       0.004  11.051  20.316  0.00  0.00    +0.000 C 
ATOM      8  O   UNL     1      -0.377  11.818  19.437  0.00  0.00    +0.000 OA
ATOM      9  N   UNL     1      -0.120  11.249  21.685  0.00  0.00    +0.000 N 
ATOM     10  H   UNL     1       0.325  10.609  22.327  0.00  0.00    +0.000 HD
BRANCH   9  11
ATOM     11  C   UNL     1      -0.792  12.308  22.297  0.00  0.00    +0.000 A 
ATOM     12  S   UNL     1      -2.229  12.023  23.162  0.00  0.00    +0.000 S 
ATOM     13  C   UNL     1      -2.345  13.630  23.663  0.00  0.00    +0.000 A 
ATOM     14  C   UNL     1      -1.317  14.410  23.175  0.00  0.00    +0.000 A 
ATOM     15  C   UNL     1      -0.399  13.643  22.355  0.00  0.00    +0.000 A 
ATOM     16  C   UNL     1      -1.258  15.882  23.480  0.00  0.00    +0.000 C 
ATOM     17  C   UNL     1      -2.104  16.239  24.713  0.00  0.00    +0.000 C 
ATOM     18  C   UNL     1      -3.501  15.610  24.647  0.00  0.00    +0.000 C 
ATOM     19  C   UNL     1      -3.438  14.079  24.580  0.00  0.00    +0.000 C 
BRANCH  15  20
ATOM     20  C   UNL     1       0.786  14.200  21.696  0.00  0.00    +0.000 C 
ATOM     21  N   UNL     1       0.595  14.671  20.421  0.00  0.00    +0.000 N 
ATOM     22  O   UNL     1       1.882  14.309  22.225  0.00  0.00    +0.000 OA
ATOM     23  H   UNL     1      -0.328  15.003  20.175  0.00  0.00    +0.000 HD
ATOM     24  H   UNL     1       1.373  15.229  20.085  0.00  0.00    +0.000 HD
ENDBRANCH  15  20
ENDBRANCH   9  11
ENDBRANCH   4   7
BRANCH   1  25
ATOM     25  S   UNL     1       3.129   6.310  18.176  0.00  0.00    +0.000 S 
ATOM     26  O   UNL     1       4.152   6.907  17.347  0.00  0.00    +0.000 OA
ATOM     27  O   UNL     1       2.200   5.333  17.640  0.00  0.00    +0.000 OA
BRANCH  25  28
ATOM     28  N   UNL     1       3.871   5.573  19.565  0.00  0.00    +0.000 NA
BRANCH  28  29
ATOM     29  C   UNL     1       3.242   4.237  19.904  0.00  0.00    +0.000 C 
BRANCH  29  30
ATOM     30  C   UNL     1       2.245   4.224  21.068  0.00  0.00    +0.000 C 
BRANCH  30  32
ATOM     31  C   UNL     1       1.000   2.796  19.674  0.00  0.00    +0.000 C 
ATOM     32  O   UNL     1       0.935   3.833  20.653  0.00  0.00    +0.000 OA
ENDBRANCH  30  32
ENDBRANCH  29  30
ENDBRANCH  28  29
BRANCH  28  33
ATOM     33  C   UNL     1       5.377   5.476  19.422  0.00  0.00    +0.000 C 
BRANCH  33  34
ATOM     34  C   UNL     1       5.843   4.299  18.552  0.00  0.00    +0.000 C 
BRANCH  34  35
ATOM     35  O   UNL     1       7.225   4.437  18.193  0.00  0.00    +0.000 OA
ATOM     36  C   UNL     1       7.559   5.822  18.075  0.00  0.00    +0.000 C 
ENDBRANCH  34  35
ENDBRANCH  33  34
ENDBRANCH  28  33
ENDBRANCH  25  28
ENDBRANCH   1  25
TORSDOF 11
ENDMDL
MODEL 3
REMARK VINA RESULT:      -7.0      2.834      3.047
REMARK  Name = 
REMARK  13 active torsions:
REMARK  status: ('A' for Active; 'I' for Inactive)
REMARK    1  A    between atoms: C_1  and  O_2
REMARK    2  A    between atoms: O_2  and  C_3
REMARK    3  A    between atoms: C_3  and  C_4
REMARK    4  A    between atoms: C_4  and  N_5
REMARK    5  A    between atoms: N_5  and  C_6
REMARK    6  A    between atoms: N_5  and  S_10
REMARK    7  A    between atoms: C_6  and  C_7
REMARK    8  A    between atoms: C_7  and  O_8
REMARK    9  A    between atoms: O_8  and  C_9
REMARK   10  A    between atoms: S_10  and  C_13
REMARK   11  A    between atoms: C_16  and  C_17
REMARK   12  A    between atoms: N_19  and  C_20
REMARK   13  A    between atoms: C_24  and  C_25
REMARK                            x       y       z     vdW  Elec       q    Type
REMARK                         _______ _______ _______ _____ _____    ______ ____
ROOT
ATOM      1  C   UNL     1       3.673   5.551  18.447  0.00  0.00    +0.000 A 
ATOM      2  C   UNL     1       3.703   6.651  17.593  0.00  0.00    +0.000 A 
ATOM      3  C   UNL     1       2.965   7.783  17.933  0.00  0.00    +0.000 A 
ATOM      4  C   UNL     1       2.189   7.829  19.110  0.00  0.00    +0.000 A 
ATOM      5  C   UNL     1       2.140   6.695  19.932  0.00  0.00    +0.000 A 
ATOM      6  C   UNL     1       2.887   5.559  19.601  0.00  0.00    +0.000 A 
ENDROOT
BRANCH   4   7
ATOM      7  C   UNL     1       1.475   9.117  19.400  0.00  0.00    +0.000 C 
ATOM      8  O   UNL     1       1.872  10.108  18.793  0.00  0.00    +0.000 OA
ATOM      9  N   UNL     1       0.478   9.095  20.366  0.00  0.00    +0.000 N 
ATOM     10  H   UNL     1       0.300   8.247  20.885  0.00  0.00    +0.000 HD
BRANCH   9  11
ATOM     11  C   UNL     1      -0.316  10.180  20.742  0.00  0.00    +0.000 A 
ATOM     12  S   UNL     1      -0.263  10.765  22.340  0.00  0.00    +0.000 S 
ATOM     13  C   UNL     1      -1.304  12.046  21.994  0.00  0.00    +0.000 A 
ATOM     14  C   UNL     1      -1.722  12.046  20.679  0.00  0.00    +0.000 A 
ATOM     15  C   UNL     1      -1.155  10.940  19.931  0.00  0.00    +0.000 A 
ATOM     16  C   UNL     1      -2.684  13.090  20.179  0.00  0.00    +0.000 C 
ATOM     17  C   UNL     1      -2.704  14.326  21.092  0.00  0.00    +0.000 C 
ATOM     18  C   UNL     1      -2.824  13.938  22.571  0.00  0.00    +0.000 C 
ATOM     19  C   UNL     1      -1.651  13.065  23.032  0.00  0.00    +0.000 C 
BRANCH  15  20
ATOM     20  C   UNL     1      -1.421  10.676  18.515  0.00  0.00    +0.000 C 
ATOM     21  N   UNL     1      -2.332   9.684  18.251  0.00  0.00    +0.000 N 
ATOM     22  O   UNL     1      -0.927  11.306  17.591  0.00  0.00    +0.000 OA
ATOM     23  H   UNL     1      -3.045   9.505  18.945  0.00  0.00    +0.000 HD
ATOM     24  H   UNL     1      -2.640   9.676  17.285  0.00  0.00    +0.000 HD
ENDBRANCH  15  20
ENDBRANCH   9  11
ENDBRANCH   4   7
BRANCH   1  25
ATOM     25  S   UNL     1       4.649   4.126  18.044  0.00  0.00    +0.000 S 
ATOM     26  O   UNL     1       3.798   3.273  17.246  0.00  0.00    +0.000 OA
ATOM     27  O   UNL     1       5.257   3.648  19.271  0.00  0.00    +0.000 OA
BRANCH  25  28
ATOM     28  N   UNL     1       5.945   4.733  17.057  0.00  0.00    +0.000 NA
BRANCH  28  29
ATOM     29  C   UNL     1       7.217   4.941  17.852  0.00  0.00    +0.000 C 
BRANCH  29  30
ATOM     30  C   UNL     1       7.534   6.379  18.278  0.00  0.00    +0.000 C 
BRANCH  30  32
ATOM     31  C   UNL     1       7.762   8.622  17.607  0.00  0.00    +0.000 C 
ATOM     32  O   UNL     1       7.559   7.278  17.169  0.00  0.00    +0.000 OA
ENDBRANCH  30  32
ENDBRANCH  29  30
ENDBRANCH  28  29
BRANCH  28  33
ATOM     33  C   UNL     1       6.173   3.876  15.827  0.00  0.00    +0.000 C 
BRANCH  33  34
ATOM     34  C   UNL     1       5.726   4.540  14.516  0.00  0.00    +0.000 C 
BRANCH  34  35
ATOM     35  O   UNL     1       6.579   4.162  13.427  0.00  0.00    +0.000 OA
ATOM     36  C   UNL     1       5.824   3.448  12.446  0.00  0.00    +0.000 C 
ENDBRANCH  34  35
ENDBRANCH  33  34
ENDBRANCH  28  33
ENDBRANCH  25  28
ENDBRANCH   1  25
TORSDOF 11
ENDMDL
MODEL 4
REMARK VINA RESULT:      -6.9      2.564      2.770
REMARK  Name = 
REMARK  13 active torsions:
REMARK  status: ('A' for Active; 'I' for Inactive)
REMARK    1  A    between atoms: C_1  and  O_2
REMARK    2  A    between atoms: O_2  and  C_3
REMARK    3  A    between atoms: C_3  and  C_4
REMARK    4  A    between atoms: C_4  and  N_5
REMARK    5  A    between atoms: N_5  and  C_6
REMARK    6  A    between atoms: N_5  and  S_10
REMARK    7  A    between atoms: C_6  and  C_7
REMARK    8  A    between atoms: C_7  and  O_8
REMARK    9  A    between atoms: O_8  and  C_9
REMARK   10  A    between atoms: S_10  and  C_13
REMARK   11  A    between atoms: C_16  and  C_17
REMARK   12  A    between atoms: N_19  and  C_20
REMARK   13  A    between atoms: C_24  and  C_25
REMARK                            x       y       z     vdW  Elec       q    Type
REMARK                         _______ _______ _______ _____ _____    ______ ____
ROOT
ATOM      1  C   UNL     1       2.782   6.465  18.779  0.00  0.00    +0.000 A 
ATOM      2  C   UNL     1       2.643   7.469  17.823  0.00  0.00    +0.000 A 
ATOM      3  C   UNL     1       1.986   8.645  18.177  0.00  0.00    +0.000 A 
ATOM      4  C   UNL     1       1.456   8.831  19.471  0.00  0.00    +0.000 A 
ATOM      5  C   UNL     1       1.570   7.790  20.404  0.00  0.00    +0.000 A 
ATOM      6  C   UNL     1       2.237   6.610  20.056  0.00  0.00    +0.000 A 
ENDROOT
BRANCH   4   7
ATOM      7  C   UNL     1       0.812  10.156  19.756  0.00  0.00    +0.000 C 
ATOM      8  O   UNL     1       1.328  11.136  19.225  0.00  0.00    +0.000 OA
ATOM      9  N   UNL     1      -0.262  10.173  20.636  0.00  0.00    +0.000 N 
ATOM     10  H   UNL     1      -0.542   9.323  21.103  0.00  0.00    +0.000 HD
BRANCH   9  11
ATOM     11  C   UNL     1      -1.006  11.300  20.991  0.00  0.00    +0.000 A 
ATOM     12  S   UNL     1      -0.945  11.897  22.584  0.00  0.00    +0.000 S 
ATOM     13  C   UNL     1      -1.917  13.224  22.212  0.00  0.00    +0.000 A 
ATOM     14  C   UNL     1      -2.318  13.231  20.891  0.00  0.00    +0.000 A 
ATOM     15  C   UNL     1      -1.796  12.091  20.162  0.00  0.00    +0.000 A 
ATOM     16  C   UNL     1      -3.221  14.315  20.369  0.00  0.00    +0.000 C 
ATOM     17  C   UNL     1      -3.192  15.560  21.270  0.00  0.00    +0.000 C 
ATOM     18  C   UNL     1      -3.350  15.194  22.751  0.00  0.00    +0.000 C 
ATOM     19  C   UNL     1      -2.228  14.269  23.236  0.00  0.00    +0.000 C 
BRANCH  15  20
ATOM     20  C   UNL     1      -2.056  11.827  18.745  0.00  0.00    +0.000 C 
ATOM     21  N   UNL     1      -1.268  12.511  17.854  0.00  0.00    +0.000 N 
ATOM     22  O   UNL     1      -2.876  11.019  18.333  0.00  0.00    +0.000 OA
ATOM     23  H   UNL     1      -0.345  12.787  18.159  0.00  0.00    +0.000 HD
ATOM     24  H   UNL     1      -1.334  12.150  16.908  0.00  0.00    +0.000 HD
ENDBRANCH  15  20
ENDBRANCH   9  11
ENDBRANCH   4   7
BRANCH   1  25
ATOM     25  S   UNL     1       3.660   4.986  18.348  0.00  0.00    +0.000 S 
ATOM     26  O   UNL     1       2.818   4.283  17.406  0.00  0.00    +0.000 OA
ATOM     27  O   UNL     1       4.098   4.359  19.580  0.00  0.00    +0.000 OA
BRANCH  25  28
ATOM     28  N   UNL     1       5.097   5.536  17.538  0.00  0.00    +0.000 NA
BRANCH  28  29
ATOM     29  C   UNL     1       6.203   5.880  18.513  0.00  0.00    +0.000 C 
BRANCH  29  30
ATOM     30  C   UNL     1       7.501   6.431  17.913  0.00  0.00    +0.000 C 
BRANCH  30  32
ATOM     31  C   UNL     1       7.988   8.726  17.739  0.00  0.00    +0.000 C 
ATOM     32  O   UNL     1       7.284   7.626  17.161  0.00  0.00    +0.000 OA
ENDBRANCH  30  32
ENDBRANCH  29  30
ENDBRANCH  28  29
BRANCH  28  33
ATOM     33  C   UNL     1       5.557   4.561  16.472  0.00  0.00    +0.000 C 
BRANCH  33  34
ATOM     34  C   UNL     1       5.512   5.134  15.047  0.00  0.00    +0.000 C 
BRANCH  34  35
ATOM     35  O   UNL     1       6.641   4.697  14.278  0.00  0.00    +0.000 OA
ATOM     36  C   UNL     1       6.216   3.768  13.278  0.00  0.00    +0.000 C 
ENDBRANCH  34  35
ENDBRANCH  33  34
ENDBRANCH  28  33
ENDBRANCH  25  28
ENDBRANCH   1  25
TORSDOF 11
ENDMDL
MODEL 5
REMARK VINA RESULT:      -6.9      2.905      3.741
REMARK  Name = 
REMARK  13 active torsions:
REMARK  status: ('A' for Active; 'I' for Inactive)
REMARK    1  A    between atoms: C_1  and  O_2
REMARK    2  A    between atoms: O_2  and  C_3
REMARK    3  A    between atoms: C_3  and  C_4
REMARK    4  A    between atoms: C_4  and  N_5
REMARK    5  A    between atoms: N_5  and  C_6
REMARK    6  A    between atoms: N_5  and  S_10
REMARK    7  A    between atoms: C_6  and  C_7
REMARK    8  A    between atoms: C_7  and  O_8
REMARK    9  A    between atoms: O_8  and  C_9
REMARK   10  A    between atoms: S_10  and  C_13
REMARK   11  A    between atoms: C_16  and  C_17
REMARK   12  A    between atoms: N_19  and  C_20
REMARK   13  A    between atoms: C_24  and  C_25
REMARK                            x       y       z     vdW  Elec       q    Type
REMARK                         _______ _______ _______ _____ _____    ______ ____
ROOT
ATOM      1  C   UNL     1       2.765   7.134  18.422  0.00  0.00    +0.000 A 
ATOM      2  C   UNL     1       2.486   8.270  17.665  0.00  0.00    +0.000 A 
ATOM      3  C   UNL     1       1.806   9.325  18.267  0.00  0.00    +0.000 A 
ATOM      4  C   UNL     1       1.390   9.261  19.613  0.00  0.00    +0.000 A 
ATOM      5  C   UNL     1       1.643   8.091  20.343  0.00  0.00    +0.000 A 
ATOM      6  C   UNL     1       2.335   7.031  19.747  0.00  0.00    +0.000 A 
ENDROOT
BRANCH   4   7
ATOM      7  C   UNL     1       0.709  10.476  20.171  0.00  0.00    +0.000 C 
ATOM      8  O   UNL     1       1.365  11.513  20.175  0.00  0.00    +0.000 OA
ATOM      9  N   UNL     1      -0.570  10.315  20.688  0.00  0.00    +0.000 N 
ATOM     10  H   UNL     1      -0.981   9.394  20.734  0.00  0.00    +0.000 HD
BRANCH   9  11
ATOM     11  C   UNL     1      -1.370  11.332  21.213  0.00  0.00    +0.000 A 
ATOM     12  S   UNL     1      -1.409  11.609  22.891  0.00  0.00    +0.000 S 
ATOM     13  C   UNL     1      -2.408  12.958  22.730  0.00  0.00    +0.000 A 
ATOM     14  C   UNL     1      -2.744  13.212  21.415  0.00  0.00    +0.000 A 
ATOM     15  C   UNL     1      -2.146  12.249  20.510  0.00  0.00    +0.000 A 
ATOM     16  C   UNL     1      -3.658  14.354  21.063  0.00  0.00    +0.000 C 
ATOM     17  C   UNL     1      -3.718  15.400  22.188  0.00  0.00    +0.000 C 
ATOM     18  C   UNL     1      -3.935  14.749  23.559  0.00  0.00    +0.000 C 
ATOM     19  C   UNL     1      -2.805  13.776  23.918  0.00  0.00    +0.000 C 
BRANCH  15  20
ATOM     20  C   UNL     1      -2.327  12.259  19.056  0.00  0.00    +0.000 C 
ATOM     21  N   UNL     1      -3.615  12.092  18.612  0.00  0.00    +0.000 N 
ATOM     22  O   UNL     1      -1.429  12.452  18.250  0.00  0.00    +0.000 OA
ATOM     23  H   UNL     1      -4.365  12.393  19.220  0.00  0.00    +0.000 HD
ATOM     24  H   UNL     1      -3.726  12.311  17.628  0.00  0.00    +0.000 HD
ENDBRANCH  15  20
ENDBRANCH   9  11
ENDBRANCH   4   7
BRANCH   1  25
ATOM     25  S   UNL     1       3.674   5.807  17.675  0.00  0.00    +0.000 S 
ATOM     26  O   UNL     1       4.465   6.407  16.625  0.00  0.00    +0.000 OA
ATOM     27  O   UNL     1       2.737   4.736  17.393  0.00  0.00    +0.000 OA
BRANCH  25  28
ATOM     28  N   UNL     1       4.727   5.221  18.929  0.00  0.00    +0.000 NA
BRANCH  28  29
ATOM     29  C   UNL     1       4.571   3.732  19.153  0.00  0.00    +0.000 C 
BRANCH  29  30
ATOM     30  C   UNL     1       3.421   3.292  20.067  0.00  0.00    +0.000 C 
BRANCH  30  32
ATOM     31  C   UNL     1       3.505   1.541  18.499  0.00  0.00    +0.000 C 
ATOM     32  O   UNL     1       2.800   2.089  19.613  0.00  0.00    +0.000 OA
ENDBRANCH  30  32
ENDBRANCH  29  30
ENDBRANCH  28  29
BRANCH  28  33
ATOM     33  C   UNL     1       6.171   5.616  18.688  0.00  0.00    +0.000 C 
BRANCH  33  34
ATOM     34  C   UNL     1       6.974   4.574  17.895  0.00  0.00    +0.000 C 
BRANCH  34  35
ATOM     35  O   UNL     1       7.561   5.156  16.723  0.00  0.00    +0.000 OA
ATOM     36  C   UNL     1       7.082   4.483  15.556  0.00  0.00    +0.000 C 
ENDBRANCH  34  35
ENDBRANCH  33  34
ENDBRANCH  28  33
ENDBRANCH  25  28
ENDBRANCH   1  25
TORSDOF 11
ENDMDL
MODEL 6
REMARK VINA RESULT:      -6.9      2.800      4.054
REMARK  Name = 
REMARK  13 active torsions:
REMARK  status: ('A' for Active; 'I' for Inactive)
REMARK    1  A    between atoms: C_1  and  O_2
REMARK    2  A    between atoms: O_2  and  C_3
REMARK    3  A    between atoms: C_3  and  C_4
REMARK    4  A    between atoms: C_4  and  N_5
REMARK    5  A    between atoms: N_5  and  C_6
REMARK    6  A    between atoms: N_5  and  S_10
REMARK    7  A    between atoms: C_6  and  C_7
REMARK    8  A    between atoms: C_7  and  O_8
REMARK    9  A    between atoms: O_8  and  C_9
REMARK   10  A    between atoms: S_10  and  C_13
REMARK   11  A    between atoms: C_16  and  C_17
REMARK   12  A    between atoms: N_19  and  C_20
REMARK   13  A    between atoms: C_24  and  C_25
REMARK                            x       y       z     vdW  Elec       q    Type
REMARK                         _______ _______ _______ _____ _____    ______ ____
ROOT
ATOM      1  C   UNL     1       4.317   6.062  18.232  0.00  0.00    +0.000 A 
ATOM      2  C   UNL     1       4.116   7.118  17.346  0.00  0.00    +0.000 A 
ATOM      3  C   UNL     1       3.125   8.053  17.633  0.00  0.00    +0.000 A 
ATOM      4  C   UNL     1       2.322   7.945  18.788  0.00  0.00    +0.000 A 
ATOM      5  C   UNL     1       2.514   6.851  19.643  0.00  0.00    +0.000 A 
ATOM      6  C   UNL     1       3.514   5.913  19.365  0.00  0.00    +0.000 A 
ENDROOT
BRANCH   4   7
ATOM      7  C   UNL     1       1.319   9.037  19.020  0.00  0.00    +0.000 C 
ATOM      8  O   UNL     1       0.670   9.397  18.043  0.00  0.00    +0.000 OA
ATOM      9  N   UNL     1       1.253   9.587  20.294  0.00  0.00    +0.000 N 
ATOM     10  H   UNL     1       1.907   9.292  21.004  0.00  0.00    +0.000 HD
BRANCH   9  11
ATOM     11  C   UNL     1       0.362  10.580  20.706  0.00  0.00    +0.000 A 
ATOM     12  S   UNL     1       0.022  11.900  19.687  0.00  0.00    +0.000 S 
ATOM     13  C   UNL     1      -1.133  12.526  20.745  0.00  0.00    +0.000 A 
ATOM     14  C   UNL     1      -1.269  11.765  21.889  0.00  0.00    +0.000 A 
ATOM     15  C   UNL     1      -0.381  10.618  21.883  0.00  0.00    +0.000 A 
ATOM     16  C   UNL     1      -2.225  12.176  22.975  0.00  0.00    +0.000 C 
ATOM     17  C   UNL     1      -3.295  13.147  22.451  0.00  0.00    +0.000 C 
ATOM     18  C   UNL     1      -2.678  14.279  21.620  0.00  0.00    +0.000 C 
ATOM     19  C   UNL     1      -1.924  13.746  20.396  0.00  0.00    +0.000 C 
BRANCH  15  20
ATOM     20  C   UNL     1      -0.296   9.633  22.964  0.00  0.00    +0.000 C 
ATOM     21  N   UNL     1      -0.908   8.428  22.725  0.00  0.00    +0.000 N 
ATOM     22  O   UNL     1       0.313   9.806  24.009  0.00  0.00    +0.000 OA
ATOM     23  H   UNL     1      -0.987   8.124  21.764  0.00  0.00    +0.000 HD
ATOM     24  H   UNL     1      -0.651   7.713  23.397  0.00  0.00    +0.000 HD
ENDBRANCH  15  20
ENDBRANCH   9  11
ENDBRANCH   4   7
BRANCH   1  25
ATOM     25  S   UNL     1       5.611   4.896  17.897  0.00  0.00    +0.000 S 
ATOM     26  O   UNL     1       5.793   4.143  19.117  0.00  0.00    +0.000 OA
ATOM     27  O   UNL     1       6.710   5.621  17.288  0.00  0.00    +0.000 OA
BRANCH  25  28
ATOM     28  N   UNL     1       4.967   3.853  16.665  0.00  0.00    +0.000 NA
BRANCH  28  29
ATOM     29  C   UNL     1       3.521   3.486  16.927  0.00  0.00    +0.000 C 
BRANCH  29  30
ATOM     30  C   UNL     1       3.274   2.314  17.884  0.00  0.00    +0.000 C 
BRANCH  30  32
ATOM     31  C   UNL     1       2.783   2.451  20.180  0.00  0.00    +0.000 C 
ATOM     32  O   UNL     1       2.272   2.612  18.857  0.00  0.00    +0.000 OA
ENDBRANCH  30  32
ENDBRANCH  29  30
ENDBRANCH  28  29
BRANCH  28  33
ATOM     33  C   UNL     1       5.169   4.423  15.274  0.00  0.00    +0.000 C 
BRANCH  33  34
ATOM     34  C   UNL     1       6.190   3.648  14.428  0.00  0.00    +0.000 C 
BRANCH  34  35
ATOM     35  O   UNL     1       6.792   4.496  13.440  0.00  0.00    +0.000 OA
ATOM     36  C   UNL     1       6.830   3.821  12.181  0.00  0.00    +0.000 C 
ENDBRANCH  34  35
ENDBRANCH  33  34
ENDBRANCH  28  33
ENDBRANCH  25  28
ENDBRANCH   1  25
TORSDOF 11
ENDMDL
MODEL 7
REMARK VINA RESULT:      -6.8      2.795      3.076
REMARK  Name = 
REMARK  13 active torsions:
REMARK  status: ('A' for Active; 'I' for Inactive)
REMARK    1  A    between atoms: C_1  and  O_2
REMARK    2  A    between atoms: O_2  and  C_3
REMARK    3  A    between atoms: C_3  and  C_4
REMARK    4  A    between atoms: C_4  and  N_5
REMARK    5  A    between atoms: N_5  and  C_6
REMARK    6  A    between atoms: N_5  and  S_10
REMARK    7  A    between atoms: C_6  and  C_7
REMARK    8  A    between atoms: C_7  and  O_8
REMARK    9  A    between atoms: O_8  and  C_9
REMARK   10  A    between atoms: S_10  and  C_13
REMARK   11  A    between atoms: C_16  and  C_17
REMARK   12  A    between atoms: N_19  and  C_20
REMARK   13  A    between atoms: C_24  and  C_25
REMARK                            x       y       z     vdW  Elec       q    Type
REMARK                         _______ _______ _______ _____ _____    ______ ____
ROOT
ATOM      1  C   UNL     1       3.403   5.731  18.739  0.00  0.00    +0.000 A 
ATOM      2  C   UNL     1       2.826   5.449  19.976  0.00  0.00    +0.000 A 
ATOM      3  C   UNL     1       2.012   6.410  20.570  0.00  0.00    +0.000 A 
ATOM      4  C   UNL     1       1.773   7.656  19.953  0.00  0.00    +0.000 A 
ATOM      5  C   UNL     1       2.399   7.935  18.730  0.00  0.00    +0.000 A 
ATOM      6  C   UNL     1       3.210   6.970  18.123  0.00  0.00    +0.000 A 
ENDROOT
BRANCH   4   7
ATOM      7  C   UNL     1       0.841   8.595  20.661  0.00  0.00    +0.000 C 
ATOM      8  O   UNL     1       0.519   8.283  21.803  0.00  0.00    +0.000 OA
ATOM      9  N   UNL     1       0.374   9.693  19.951  0.00  0.00    +0.000 N 
ATOM     10  H   UNL     1       0.616   9.802  18.977  0.00  0.00    +0.000 HD
BRANCH   9  11
ATOM     11  C   UNL     1      -0.467  10.689  20.452  0.00  0.00    +0.000 A 
ATOM     12  S   UNL     1      -0.330  11.187  22.073  0.00  0.00    +0.000 S 
ATOM     13  C   UNL     1      -1.489  12.398  21.887  0.00  0.00    +0.000 A 
ATOM     14  C   UNL     1      -2.010  12.437  20.609  0.00  0.00    +0.000 A 
ATOM     15  C   UNL     1      -1.423  11.423  19.755  0.00  0.00    +0.000 A 
ATOM     16  C   UNL     1      -3.085  13.427  20.248  0.00  0.00    +0.000 C 
ATOM     17  C   UNL     1      -3.125  14.605  21.235  0.00  0.00    +0.000 C 
ATOM     18  C   UNL     1      -3.096  14.128  22.692  0.00  0.00    +0.000 C 
ATOM     19  C   UNL     1      -1.828  13.327  23.009  0.00  0.00    +0.000 C 
BRANCH  15  20
ATOM     20  C   UNL     1      -1.781  11.217  18.349  0.00  0.00    +0.000 C 
ATOM     21  N   UNL     1      -1.553  12.281  17.512  0.00  0.00    +0.000 N 
ATOM     22  O   UNL     1      -2.210  10.168  17.892  0.00  0.00    +0.000 OA
ATOM     23  H   UNL     1      -0.814  12.925  17.760  0.00  0.00    +0.000 HD
ATOM     24  H   UNL     1      -1.615  12.032  16.530  0.00  0.00    +0.000 HD
ENDBRANCH  15  20
ENDBRANCH   9  11
ENDBRANCH   4   7
BRANCH   1  25
ATOM     25  S   UNL     1       4.401   4.492  17.955  0.00  0.00    +0.000 S 
ATOM     26  O   UNL     1       3.478   3.601  17.289  0.00  0.00    +0.000 OA
ATOM     27  O   UNL     1       5.346   4.000  18.940  0.00  0.00    +0.000 OA
BRANCH  25  28
ATOM     28  N   UNL     1       5.333   5.352  16.766  0.00  0.00    +0.000 NA
BRANCH  28  29
ATOM     29  C   UNL     1       6.699   5.746  17.289  0.00  0.00    +0.000 C 
BRANCH  29  30
ATOM     30  C   UNL     1       7.071   7.229  17.191  0.00  0.00    +0.000 C 
BRANCH  30  32
ATOM     31  C   UNL     1       8.286   9.015  18.123  0.00  0.00    +0.000 C 
ATOM     32  O   UNL     1       8.047   7.607  18.162  0.00  0.00    +0.000 OA
ENDBRANCH  30  32
ENDBRANCH  29  30
ENDBRANCH  28  29
BRANCH  28  33
ATOM     33  C   UNL     1       5.419   4.596  15.455  0.00  0.00    +0.000 C 
BRANCH  33  34
ATOM     34  C   UNL     1       6.856   4.370  14.962  0.00  0.00    +0.000 C 
BRANCH  34  35
ATOM     35  O   UNL     1       6.963   4.615  13.553  0.00  0.00    +0.000 OA
ATOM     36  C   UNL     1       6.192   3.651  12.833  0.00  0.00    +0.000 C 
ENDBRANCH  34  35
ENDBRANCH  33  34
ENDBRANCH  28  33
ENDBRANCH  25  28
ENDBRANCH   1  25
TORSDOF 11
ENDMDL
MODEL 8
REMARK VINA RESULT:      -6.8      2.767      3.833
REMARK  Name = 
REMARK  13 active torsions:
REMARK  status: ('A' for Active; 'I' for Inactive)
REMARK    1  A    between atoms: C_1  and  O_2
REMARK    2  A    between atoms: O_2  and  C_3
REMARK    3  A    between atoms: C_3  and  C_4
REMARK    4  A    between atoms: C_4  and  N_5
REMARK    5  A    between atoms: N_5  and  C_6
REMARK    6  A    between atoms: N_5  and  S_10
REMARK    7  A    between atoms: C_6  and  C_7
REMARK    8  A    between atoms: C_7  and  O_8
REMARK    9  A    between atoms: O_8  and  C_9
REMARK   10  A    between atoms: S_10  and  C_13
REMARK   11  A    between atoms: C_16  and  C_17
REMARK   12  A    between atoms: N_19  and  C_20
REMARK   13  A    between atoms: C_24  and  C_25
REMARK                            x       y       z     vdW  Elec       q    Type
REMARK                         _______ _______ _______ _____ _____    ______ ____
ROOT
ATOM      1  C   UNL     1       2.746   6.401  18.663  0.00  0.00    +0.000 A 
ATOM      2  C   UNL     1       2.516   7.655  18.099  0.00  0.00    +0.000 A 
ATOM      3  C   UNL     1       1.900   8.634  18.873  0.00  0.00    +0.000 A 
ATOM      4  C   UNL     1       1.499   8.379  20.201  0.00  0.00    +0.000 A 
ATOM      5  C   UNL     1       1.701   7.098  20.734  0.00  0.00    +0.000 A 
ATOM      6  C   UNL     1       2.329   6.112  19.964  0.00  0.00    +0.000 A 
ENDROOT
BRANCH   4   7
ATOM      7  C   UNL     1       0.889   9.524  20.957  0.00  0.00    +0.000 C 
ATOM      8  O   UNL     1       1.459   9.859  21.990  0.00  0.00    +0.000 OA
ATOM      9  N   UNL     1      -0.293  10.061  20.463  0.00  0.00    +0.000 N 
ATOM     10  H   UNL     1      -0.740   9.642  19.661  0.00  0.00    +0.000 HD
BRANCH   9  11
ATOM     11  C   UNL     1      -0.982  11.147  21.007  0.00  0.00    +0.000 A 
ATOM     12  S   UNL     1      -1.110  11.320  22.695  0.00  0.00    +0.000 S 
ATOM     13  C   UNL     1      -1.898  12.806  22.567  0.00  0.00    +0.000 A 
ATOM     14  C   UNL     1      -2.095  13.188  21.255  0.00  0.00    +0.000 A 
ATOM     15  C   UNL     1      -1.569  12.208  20.323  0.00  0.00    +0.000 A 
ATOM     16  C   UNL     1      -2.813  14.468  20.928  0.00  0.00    +0.000 C 
ATOM     17  C   UNL     1      -2.813  15.439  22.120  0.00  0.00    +0.000 C 
ATOM     18  C   UNL     1      -3.222  14.740  23.422  0.00  0.00    +0.000 C 
ATOM     19  C   UNL     1      -2.268  13.595  23.783  0.00  0.00    +0.000 C 
BRANCH  15  20
ATOM     20  C   UNL     1      -1.636  12.336  18.865  0.00  0.00    +0.000 C 
ATOM     21  N   UNL     1      -2.872  12.136  18.303  0.00  0.00    +0.000 N 
ATOM     22  O   UNL     1      -0.691  12.649  18.156  0.00  0.00    +0.000 OA
ATOM     23  H   UNL     1      -3.684  12.339  18.869  0.00  0.00    +0.000 HD
ATOM     24  H   UNL     1      -2.919  12.434  17.335  0.00  0.00    +0.000 HD
ENDBRANCH  15  20
ENDBRANCH   9  11
ENDBRANCH   4   7
BRANCH   1  25
ATOM     25  S   UNL     1       3.575   5.166  17.698  0.00  0.00    +0.000 S 
ATOM     26  O   UNL     1       4.321   5.882  16.689  0.00  0.00    +0.000 OA
ATOM     27  O   UNL     1       2.595   4.158  17.338  0.00  0.00    +0.000 OA
BRANCH  25  28
ATOM     28  N   UNL     1       4.682   4.403  18.800  0.00  0.00    +0.000 NA
BRANCH  28  29
ATOM     29  C   UNL     1       4.265   2.986  19.136  0.00  0.00    +0.000 C 
BRANCH  29  30
ATOM     30  C   UNL     1       3.564   2.777  20.483  0.00  0.00    +0.000 C 
BRANCH  30  32
ATOM     31  C   UNL     1       1.464   2.742  21.543  0.00  0.00    +0.000 C 
ATOM     32  O   UNL     1       2.174   2.488  20.330  0.00  0.00    +0.000 OA
ENDBRANCH  30  32
ENDBRANCH  29  30
ENDBRANCH  28  29
BRANCH  28  33
ATOM     33  C   UNL     1       6.115   4.476  18.309  0.00  0.00    +0.000 C 
BRANCH  33  34
ATOM     34  C   UNL     1       6.873   5.721  18.793  0.00  0.00    +0.000 C 
BRANCH  34  35
ATOM     35  O   UNL     1       7.789   6.189  17.794  0.00  0.00    +0.000 OA
ATOM     36  C   UNL     1       7.612   7.594  17.594  0.00  0.00    +0.000 C 
ENDBRANCH  34  35
ENDBRANCH  33  34
ENDBRANCH  28  33
ENDBRANCH  25  28
ENDBRANCH   1  25
TORSDOF 11
ENDMDL
MODEL 9
REMARK VINA RESULT:      -6.8      1.545      2.457
REMARK  Name = 
REMARK  13 active torsions:
REMARK  status: ('A' for Active; 'I' for Inactive)
REMARK    1  A    between atoms: C_1  and  O_2
REMARK    2  A    between atoms: O_2  and  C_3
REMARK    3  A    between atoms: C_3  and  C_4
REMARK    4  A    between atoms: C_4  and  N_5
REMARK    5  A    between atoms: N_5  and  C_6
REMARK    6  A    between atoms: N_5  and  S_10
REMARK    7  A    between atoms: C_6  and  C_7
REMARK    8  A    between atoms: C_7  and  O_8
REMARK    9  A    between atoms: O_8  and  C_9
REMARK   10  A    between atoms: S_10  and  C_13
REMARK   11  A    between atoms: C_16  and  C_17
REMARK   12  A    between atoms: N_19  and  C_20
REMARK   13  A    between atoms: C_24  and  C_25
REMARK                            x       y       z     vdW  Elec       q    Type
REMARK                         _______ _______ _______ _____ _____    ______ ____
ROOT
ATOM      1  C   UNL     1       2.298   6.108  18.932  0.00  0.00    +0.000 A 
ATOM      2  C   UNL     1       2.367   7.086  17.942  0.00  0.00    +0.000 A 
ATOM      3  C   UNL     1       2.049   8.400  18.275  0.00  0.00    +0.000 A 
ATOM      4  C   UNL     1       1.651   8.753  19.582  0.00  0.00    +0.000 A 
ATOM      5  C   UNL     1       1.548   7.745  20.552  0.00  0.00    +0.000 A 
ATOM      6  C   UNL     1       1.875   6.425  20.225  0.00  0.00    +0.000 A 
ENDROOT
BRANCH   4   7
ATOM      7  C   UNL     1       1.380  10.206  19.839  0.00  0.00    +0.000 C 
ATOM      8  O   UNL     1       0.941  10.490  20.949  0.00  0.00    +0.000 OA
ATOM      9  N   UNL     1       1.585  11.093  18.789  0.00  0.00    +0.000 N 
ATOM     10  H   UNL     1       1.847  10.742  17.879  0.00  0.00    +0.000 HD
BRANCH   9  11
ATOM     11  C   UNL     1       1.422  12.478  18.850  0.00  0.00    +0.000 A 
ATOM     12  S   UNL     1       2.780  13.492  19.003  0.00  0.00    +0.000 S 
ATOM     13  C   UNL     1       1.851  14.895  18.884  0.00  0.00    +0.000 A 
ATOM     14  C   UNL     1       0.504  14.625  18.747  0.00  0.00    +0.000 A 
ATOM     15  C   UNL     1       0.237  13.199  18.738  0.00  0.00    +0.000 A 
ATOM     16  C   UNL     1      -0.498  15.744  18.661  0.00  0.00    +0.000 C 
ATOM     17  C   UNL     1       0.165  17.068  18.248  0.00  0.00    +0.000 C 
ATOM     18  C   UNL     1       1.433  17.348  19.064  0.00  0.00    +0.000 C 
ATOM     19  C   UNL     1       2.486  16.249  18.882  0.00  0.00    +0.000 C 
BRANCH  15  20
ATOM     20  C   UNL     1      -1.099  12.609  18.612  0.00  0.00    +0.000 C 
ATOM     21  N   UNL     1      -1.507  12.321  17.334  0.00  0.00    +0.000 N 
ATOM     22  O   UNL     1      -1.819  12.324  19.557  0.00  0.00    +0.000 OA
ATOM     23  H   UNL     1      -0.794  12.119  16.647  0.00  0.00    +0.000 HD
ATOM     24  H   UNL     1      -2.332  11.733  17.305  0.00  0.00    +0.000 HD
ENDBRANCH  15  20
ENDBRANCH   9  11
ENDBRANCH   4   7
BRANCH   1  25
ATOM     25  S   UNL     1       2.750   4.442  18.525  0.00  0.00    +0.000 S 
ATOM     26  O   UNL     1       3.335   4.499  17.205  0.00  0.00    +0.000 OA
ATOM     27  O   UNL     1       1.606   3.595  18.807  0.00  0.00    +0.000 OA
BRANCH  25  28
ATOM     28  N   UNL     1       3.975   4.014  19.682  0.00  0.00    +0.000 NA
BRANCH  28  29
ATOM     29  C   UNL     1       3.691   2.681  20.344  0.00  0.00    +0.000 C 
BRANCH  29  30
ATOM     30  C   UNL     1       4.829   1.654  20.336  0.00  0.00    +0.000 C 
BRANCH  30  32
ATOM     31  C   UNL     1       5.949   0.154  21.760  0.00  0.00    +0.000 C 
ATOM     32  O   UNL     1       5.395   1.464  21.633  0.00  0.00    +0.000 OA
ENDBRANCH  30  32
ENDBRANCH  29  30
ENDBRANCH  28  29
BRANCH  28  33
ATOM     33  C   UNL     1       5.367   4.070  19.083  0.00  0.00    +0.000 C 
BRANCH  33  34
ATOM     34  C   UNL     1       6.062   5.428  19.258  0.00  0.00    +0.000 C 
BRANCH  34  35
ATOM     35  O   UNL     1       7.326   5.453  18.580  0.00  0.00    +0.000 OA
ATOM     36  C   UNL     1       7.137   5.836  17.215  0.00  0.00    +0.000 C 
ENDBRANCH  34  35
ENDBRANCH  33  34
ENDBRANCH  28  33
ENDBRANCH  25  28
ENDBRANCH   1  25
TORSDOF 11
ENDMDL
