MODEL 1
REMARK VINA RESULT:      -8.0      0.000      0.000
REMARK  Name = 
REMARK  3 active torsions:
REMARK  status: ('A' for Active; 'I' for Inactive)
REMARK    1  A    between atoms: C_1  and  C_2
REMARK    2  A    between atoms: C_5  and  N_6
REMARK    3  A    between atoms: C_16  and  C_17
REMARK                            x       y       z     vdW  Elec       q    Type
REMARK                         _______ _______ _______ _____ _____    ______ ____
ROOT
ATOM      1  C   UNL     1       1.448   8.029  20.001  0.00  0.00    +0.000 C 
ATOM      2  C   UNL     1       2.463   7.427  19.080  0.00  0.00    +0.000 A 
ATOM      3  N   UNL     1       3.013   8.237  18.162  0.00  0.00    +0.000 NA
ATOM      4  C   UNL     1       3.881   7.661  17.310  0.00  0.00    +0.000 A 
ATOM      5  C   UNL     1       4.237   6.327  17.354  0.00  0.00    +0.000 A 
ATOM      6  C   UNL     1       3.613   5.555  18.342  0.00  0.00    +0.000 A 
ATOM      7  N   UNL     1       2.717   6.109  19.201  0.00  0.00    +0.000 NA
ENDROOT
BRANCH   5   8
ATOM      8  N   UNL     1       5.221   5.837  16.484  0.00  0.00    +0.000 N 
ATOM      9  C   UNL     1       6.570   6.050  16.570  0.00  0.00    +0.000 C 
ATOM     10  O   UNL     1       7.126   6.663  17.478  0.00  0.00    +0.000 OA
ATOM     11  N   UNL     1       7.295   5.634  15.478  0.00  0.00    +0.000 N 
ATOM     12  C   UNL     1       6.833   4.881  14.389  0.00  0.00    +0.000 A 
ATOM     13  C   UNL     1       7.588   4.845  13.231  0.00  0.00    +0.000 A 
ATOM     14  C   UNL     1       7.075   4.173  12.116  0.00  0.00    +0.000 A 
ATOM     15  C   UNL     1       5.857   3.515  12.213  0.00  0.00    +0.000 A 
ATOM     16  C   UNL     1       5.185   3.565  13.420  0.00  0.00    +0.000 A 
ATOM     17  N   UNL     1       5.634   4.257  14.491  0.00  0.00    +0.000 NA
ATOM     18  H   UNL     1       4.936   5.453  15.597  0.00  0.00    +0.000 HD
ATOM     19  H   UNL     1       8.244   5.978  15.465  0.00  0.00    +0.000 HD
ENDBRANCH   5   8
BRANCH   6  20
ATOM     20  C   UNL     1       3.706   4.068  18.442  0.00  0.00    +0.000 A 
ATOM     21  C   UNL     1       3.138   3.194  17.501  0.00  0.00    +0.000 A 
ATOM     22  C   UNL     1       3.105   1.808  17.696  0.00  0.00    +0.000 A 
ATOM     23  C   UNL     1       3.719   1.247  18.809  0.00  0.00    +0.000 A 
ATOM     24  C   UNL     1       4.375   2.073  19.714  0.00  0.00    +0.000 A 
ATOM     25  C   UNL     1       4.362   3.464  19.536  0.00  0.00    +0.000 A 
ENDBRANCH   6  20
TORSDOF 2
ENDMDL
MODEL 2
REMARK VINA RESULT:      -8.0      0.327      1.037
REMARK  Name = 
REMARK  3 active torsions:
REMARK  status: ('A' for Active; 'I' for Inactive)
REMARK    1  A    between atoms: C_1  and  C_2
REMARK    2  A    between atoms: C_5  and  N_6
REMARK    3  A    between atoms: C_16  and  C_17
REMARK                            x       y       z     vdW  Elec       q    Type
REMARK                         _______ _______ _______ _____ _____    ______ ____
ROOT
ATOM      1  C   UNL     1       1.317   8.442  19.739  0.00  0.00    +0.000 C 
ATOM      2  C   UNL     1       2.334   7.755  18.884  0.00  0.00    +0.000 A 
ATOM      3  N   UNL     1       2.968   8.502  17.966  0.00  0.00    +0.000 NA
ATOM      4  C   UNL     1       3.838   7.851  17.172  0.00  0.00    +0.000 A 
ATOM      5  C   UNL     1       4.117   6.501  17.274  0.00  0.00    +0.000 A 
ATOM      6  C   UNL     1       3.409   5.799  18.257  0.00  0.00    +0.000 A 
ATOM      7  N   UNL     1       2.509   6.429  19.057  0.00  0.00    +0.000 NA
ENDROOT
BRANCH   5   8
ATOM      8  N   UNL     1       5.108   5.929  16.465  0.00  0.00    +0.000 N 
ATOM      9  C   UNL     1       6.461   6.018  16.642  0.00  0.00    +0.000 C 
ATOM     10  O   UNL     1       7.009   6.571  17.592  0.00  0.00    +0.000 OA
ATOM     11  N   UNL     1       7.217   5.545  15.595  0.00  0.00    +0.000 N 
ATOM     12  C   UNL     1       6.763   4.844  14.468  0.00  0.00    +0.000 A 
ATOM     13  C   UNL     1       7.587   4.746  13.362  0.00  0.00    +0.000 A 
ATOM     14  C   UNL     1       7.090   4.131  12.207  0.00  0.00    +0.000 A 
ATOM     15  C   UNL     1       5.813   3.586  12.216  0.00  0.00    +0.000 A 
ATOM     16  C   UNL     1       5.070   3.690  13.377  0.00  0.00    +0.000 A 
ATOM     17  N   UNL     1       5.508   4.331  14.483  0.00  0.00    +0.000 NA
ATOM     18  H   UNL     1       4.849   5.578  15.556  0.00  0.00    +0.000 HD
ATOM     19  H   UNL     1       8.192   5.800  15.648  0.00  0.00    +0.000 HD
ENDBRANCH   5   8
BRANCH   6  20
ATOM     20  C   UNL     1       3.414   4.313  18.408  0.00  0.00    +0.000 A 
ATOM     21  C   UNL     1       4.246   3.632  19.312  0.00  0.00    +0.000 A 
ATOM     22  C   UNL     1       4.345   2.236  19.328  0.00  0.00    +0.000 A 
ATOM     23  C   UNL     1       3.545   1.473  18.487  0.00  0.00    +0.000 A 
ATOM     24  C   UNL     1       2.639   2.108  17.646  0.00  0.00    +0.000 A 
ATOM     25  C   UNL     1       2.581   3.508  17.603  0.00  0.00    +0.000 A 
ENDBRANCH   6  20
TORSDOF 2
ENDMDL
MODEL 3
REMARK VINA RESULT:      -7.8      1.767      5.993
REMARK  Name = 
REMARK  3 active torsions:
REMARK  status: ('A' for Active; 'I' for Inactive)
REMARK    1  A    between atoms: C_1  and  C_2
REMARK    2  A    between atoms: C_5  and  N_6
REMARK    3  A    between atoms: C_16  and  C_17
REMARK                            x       y       z     vdW  Elec       q    Type
REMARK                         _______ _______ _______ _____ _____    ______ ____
ROOT
ATOM      1  C   UNL     1       6.357   4.010  13.969  0.00  0.00    +0.000 C 
ATOM      2  C   UNL     1       5.597   4.691  15.063  0.00  0.00    +0.000 A 
ATOM      3  N   UNL     1       5.935   5.959  15.347  0.00  0.00    +0.000 NA
ATOM      4  C   UNL     1       5.277   6.531  16.371  0.00  0.00    +0.000 A 
ATOM      5  C   UNL     1       4.286   5.903  17.100  0.00  0.00    +0.000 A 
ATOM      6  C   UNL     1       3.999   4.581  16.739  0.00  0.00    +0.000 A 
ATOM      7  N   UNL     1       4.665   3.973  15.722  0.00  0.00    +0.000 NA
ENDROOT
BRANCH   5   8
ATOM      8  N   UNL     1       3.590   6.612  18.089  0.00  0.00    +0.000 N 
ATOM      9  C   UNL     1       3.532   6.314  19.423  0.00  0.00    +0.000 C 
ATOM     10  O   UNL     1       4.147   5.399  19.964  0.00  0.00    +0.000 OA
ATOM     11  N   UNL     1       2.615   7.044  20.142  0.00  0.00    +0.000 N 
ATOM     12  C   UNL     1       1.872   8.149  19.700  0.00  0.00    +0.000 A 
ATOM     13  C   UNL     1       0.762   8.544  20.422  0.00  0.00    +0.000 A 
ATOM     14  C   UNL     1      -0.029   9.584  19.922  0.00  0.00    +0.000 A 
ATOM     15  C   UNL     1       0.347  10.229  18.752  0.00  0.00    +0.000 A 
ATOM     16  C   UNL     1       1.494   9.800  18.113  0.00  0.00    +0.000 A 
ATOM     17  N   UNL     1       2.240   8.759  18.546  0.00  0.00    +0.000 NA
ATOM     18  H   UNL     1       2.902   7.293  17.804  0.00  0.00    +0.000 HD
ATOM     19  H   UNL     1       2.438   6.679  21.067  0.00  0.00    +0.000 HD
ENDBRANCH   5   8
BRANCH   6  20
ATOM     20  C   UNL     1       3.109   3.664  17.511  0.00  0.00    +0.000 A 
ATOM     21  C   UNL     1       1.739   3.901  17.708  0.00  0.00    +0.000 A 
ATOM     22  C   UNL     1       0.960   3.111  18.561  0.00  0.00    +0.000 A 
ATOM     23  C   UNL     1       1.518   2.002  19.184  0.00  0.00    +0.000 A 
ATOM     24  C   UNL     1       2.847   1.679  18.939  0.00  0.00    +0.000 A 
ATOM     25  C   UNL     1       3.632   2.503  18.120  0.00  0.00    +0.000 A 
ENDBRANCH   6  20
TORSDOF 2
ENDMDL
MODEL 4
REMARK VINA RESULT:      -7.8      1.967      4.014
REMARK  Name = 
REMARK  3 active torsions:
REMARK  status: ('A' for Active; 'I' for Inactive)
REMARK    1  A    between atoms: C_1  and  C_2
REMARK    2  A    between atoms: C_5  and  N_6
REMARK    3  A    between atoms: C_16  and  C_17
REMARK                            x       y       z     vdW  Elec       q    Type
REMARK                         _______ _______ _______ _____ _____    ______ ____
ROOT
ATOM      1  C   UNL     1       1.380   2.518  22.048  0.00  0.00    +0.000 C 
ATOM      2  C   UNL     1       2.418   2.942  21.058  0.00  0.00    +0.000 A 
ATOM      3  N   UNL     1       3.473   2.129  20.891  0.00  0.00    +0.000 NA
ATOM      4  C   UNL     1       4.421   2.558  20.037  0.00  0.00    +0.000 A 
ATOM      5  C   UNL     1       4.345   3.743  19.330  0.00  0.00    +0.000 A 
ATOM      6  C   UNL     1       3.210   4.530  19.567  0.00  0.00    +0.000 A 
ATOM      7  N   UNL     1       2.250   4.129  20.441  0.00  0.00    +0.000 NA
ENDROOT
BRANCH   5   8
ATOM      8  N   UNL     1       5.336   4.062  18.392  0.00  0.00    +0.000 N 
ATOM      9  C   UNL     1       6.506   4.728  18.631  0.00  0.00    +0.000 C 
ATOM     10  O   UNL     1       6.891   5.093  19.739  0.00  0.00    +0.000 OA
ATOM     11  N   UNL     1       7.206   5.096  17.506  0.00  0.00    +0.000 N 
ATOM     12  C   UNL     1       6.941   4.722  16.180  0.00  0.00    +0.000 A 
ATOM     13  C   UNL     1       7.518   5.444  15.152  0.00  0.00    +0.000 A 
ATOM     14  C   UNL     1       7.172   5.128  13.833  0.00  0.00    +0.000 A 
ATOM     15  C   UNL     1       6.309   4.069  13.586  0.00  0.00    +0.000 A 
ATOM     16  C   UNL     1       5.808   3.372  14.669  0.00  0.00    +0.000 A 
ATOM     17  N   UNL     1       6.083   3.698  15.952  0.00  0.00    +0.000 NA
ATOM     18  H   UNL     1       5.117   3.983  17.410  0.00  0.00    +0.000 HD
ATOM     19  H   UNL     1       7.949   5.755  17.685  0.00  0.00    +0.000 HD
ENDBRANCH   5   8
BRANCH   6  20
ATOM     20  C   UNL     1       3.023   5.922  19.061  0.00  0.00    +0.000 A 
ATOM     21  C   UNL     1       2.294   6.904  19.752  0.00  0.00    +0.000 A 
ATOM     22  C   UNL     1       2.002   8.151  19.189  0.00  0.00    +0.000 A 
ATOM     23  C   UNL     1       2.506   8.484  17.938  0.00  0.00    +0.000 A 
ATOM     24  C   UNL     1       3.312   7.574  17.263  0.00  0.00    +0.000 A 
ATOM     25  C   UNL     1       3.560   6.310  17.815  0.00  0.00    +0.000 A 
ENDBRANCH   6  20
TORSDOF 2
ENDMDL
MODEL 5
REMARK VINA RESULT:      -7.7      1.969      3.953
REMARK  Name = 
REMARK  3 active torsions:
REMARK  status: ('A' for Active; 'I' for Inactive)
REMARK    1  A    between atoms: C_1  and  C_2
REMARK    2  A    between atoms: C_5  and  N_6
REMARK    3  A    between atoms: C_16  and  C_17
REMARK                            x       y       z     vdW  Elec       q    Type
REMARK                         _______ _______ _______ _____ _____    ______ ____
ROOT
ATOM      1  C   UNL     1       1.397   2.513  22.081  0.00  0.00    +0.000 C 
ATOM      2  C   UNL     1       2.429   2.931  21.082  0.00  0.00    +0.000 A 
ATOM      3  N   UNL     1       3.519   2.156  20.966  0.00  0.00    +0.000 NA
ATOM      4  C   UNL     1       4.458   2.581  20.101  0.00  0.00    +0.000 A 
ATOM      5  C   UNL     1       4.342   3.725  19.336  0.00  0.00    +0.000 A 
ATOM      6  C   UNL     1       3.174   4.475  19.522  0.00  0.00    +0.000 A 
ATOM      7  N   UNL     1       2.220   4.078  20.405  0.00  0.00    +0.000 NA
ENDROOT
BRANCH   5   8
ATOM      8  N   UNL     1       5.331   4.038  18.393  0.00  0.00    +0.000 N 
ATOM      9  C   UNL     1       6.505   4.700  18.626  0.00  0.00    +0.000 C 
ATOM     10  O   UNL     1       6.896   5.066  19.731  0.00  0.00    +0.000 OA
ATOM     11  N   UNL     1       7.201   5.063  17.497  0.00  0.00    +0.000 N 
ATOM     12  C   UNL     1       6.929   4.688  16.173  0.00  0.00    +0.000 A 
ATOM     13  C   UNL     1       7.505   5.405  15.141  0.00  0.00    +0.000 A 
ATOM     14  C   UNL     1       7.152   5.088  13.824  0.00  0.00    +0.000 A 
ATOM     15  C   UNL     1       6.284   4.032  13.583  0.00  0.00    +0.000 A 
ATOM     16  C   UNL     1       5.785   3.339  14.669  0.00  0.00    +0.000 A 
ATOM     17  N   UNL     1       6.066   3.667  15.951  0.00  0.00    +0.000 NA
ATOM     18  H   UNL     1       5.108   3.959  17.412  0.00  0.00    +0.000 HD
ATOM     19  H   UNL     1       7.948   5.720  17.672  0.00  0.00    +0.000 HD
ENDBRANCH   5   8
BRANCH   6  20
ATOM     20  C   UNL     1       2.936   5.832  18.945  0.00  0.00    +0.000 A 
ATOM     21  C   UNL     1       3.445   6.243  17.702  0.00  0.00    +0.000 A 
ATOM     22  C   UNL     1       3.339   7.564  17.253  0.00  0.00    +0.000 A 
ATOM     23  C   UNL     1       2.641   8.501  18.005  0.00  0.00    +0.000 A 
ATOM     24  C   UNL     1       2.041   8.108  19.196  0.00  0.00    +0.000 A 
ATOM     25  C   UNL     1       2.192   6.794  19.661  0.00  0.00    +0.000 A 
ENDBRANCH   6  20
TORSDOF 2
ENDMDL
MODEL 6
REMARK VINA RESULT:      -7.6      1.748      6.027
REMARK  Name = 
REMARK  3 active torsions:
REMARK  status: ('A' for Active; 'I' for Inactive)
REMARK    1  A    between atoms: C_1  and  C_2
REMARK    2  A    between atoms: C_5  and  N_6
REMARK    3  A    between atoms: C_16  and  C_17
REMARK                            x       y       z     vdW  Elec       q    Type
REMARK                         _______ _______ _______ _____ _____    ______ ____
ROOT
ATOM      1  C   UNL     1       6.365   4.037  13.987  0.00  0.00    +0.000 C 
ATOM      2  C   UNL     1       5.612   4.724  15.083  0.00  0.00    +0.000 A 
ATOM      3  N   UNL     1       5.918   6.008  15.326  0.00  0.00    +0.000 NA
ATOM      4  C   UNL     1       5.268   6.587  16.352  0.00  0.00    +0.000 A 
ATOM      5  C   UNL     1       4.314   5.949  17.121  0.00  0.00    +0.000 A 
ATOM      6  C   UNL     1       4.058   4.610  16.799  0.00  0.00    +0.000 A 
ATOM      7  N   UNL     1       4.717   3.996  15.782  0.00  0.00    +0.000 NA
ENDROOT
BRANCH   5   8
ATOM      8  N   UNL     1       3.621   6.662  18.108  0.00  0.00    +0.000 N 
ATOM      9  C   UNL     1       3.612   6.403  19.451  0.00  0.00    +0.000 C 
ATOM     10  O   UNL     1       4.275   5.528  20.001  0.00  0.00    +0.000 OA
ATOM     11  N   UNL     1       2.690   7.121  20.176  0.00  0.00    +0.000 N 
ATOM     12  C   UNL     1       1.895   8.185  19.723  0.00  0.00    +0.000 A 
ATOM     13  C   UNL     1       0.792   8.562  20.467  0.00  0.00    +0.000 A 
ATOM     14  C   UNL     1      -0.051   9.558  19.960  0.00  0.00    +0.000 A 
ATOM     15  C   UNL     1       0.268  10.180  18.760  0.00  0.00    +0.000 A 
ATOM     16  C   UNL     1       1.411   9.773  18.100  0.00  0.00    +0.000 A 
ATOM     17  N   UNL     1       2.207   8.773  18.542  0.00  0.00    +0.000 NA
ATOM     18  H   UNL     1       2.901   7.309  17.824  0.00  0.00    +0.000 HD
ATOM     19  H   UNL     1       2.553   6.778  21.115  0.00  0.00    +0.000 HD
ENDBRANCH   5   8
BRANCH   6  20
ATOM     20  C   UNL     1       3.215   3.687  17.616  0.00  0.00    +0.000 A 
ATOM     21  C   UNL     1       3.725   2.561  18.283  0.00  0.00    +0.000 A 
ATOM     22  C   UNL     1       2.895   1.627  18.913  0.00  0.00    +0.000 A 
ATOM     23  C   UNL     1       1.524   1.840  18.966  0.00  0.00    +0.000 A 
ATOM     24  C   UNL     1       0.991   2.993  18.400  0.00  0.00    +0.000 A 
ATOM     25  C   UNL     1       1.825   3.899  17.730  0.00  0.00    +0.000 A 
ENDBRANCH   6  20
TORSDOF 2
ENDMDL
MODEL 7
REMARK VINA RESULT:      -7.5      2.017      6.424
REMARK  Name = 
REMARK  3 active torsions:
REMARK  status: ('A' for Active; 'I' for Inactive)
REMARK    1  A    between atoms: C_1  and  C_2
REMARK    2  A    between atoms: C_5  and  N_6
REMARK    3  A    between atoms: C_16  and  C_17
REMARK                            x       y       z     vdW  Elec       q    Type
REMARK                         _______ _______ _______ _____ _____    ______ ____
ROOT
ATOM      1  C   UNL     1       7.803   4.555  12.602  0.00  0.00    +0.000 C 
ATOM      2  C   UNL     1       6.902   4.707  13.787  0.00  0.00    +0.000 A 
ATOM      3  N   UNL     1       5.630   4.303  13.645  0.00  0.00    +0.000 NA
ATOM      4  C   UNL     1       4.825   4.500  14.705  0.00  0.00    +0.000 A 
ATOM      5  C   UNL     1       5.242   5.056  15.899  0.00  0.00    +0.000 A 
ATOM      6  C   UNL     1       6.584   5.451  15.959  0.00  0.00    +0.000 A 
ATOM      7  N   UNL     1       7.412   5.283  14.895  0.00  0.00    +0.000 NA
ENDROOT
BRANCH   5   8
ATOM      8  N   UNL     1       4.354   5.135  16.981  0.00  0.00    +0.000 N 
ATOM      9  C   UNL     1       3.811   6.272  17.513  0.00  0.00    +0.000 C 
ATOM     10  O   UNL     1       3.980   7.404  17.068  0.00  0.00    +0.000 OA
ATOM     11  N   UNL     1       3.136   6.094  18.698  0.00  0.00    +0.000 N 
ATOM     12  C   UNL     1       2.808   4.878  19.315  0.00  0.00    +0.000 A 
ATOM     13  C   UNL     1       2.442   4.880  20.649  0.00  0.00    +0.000 A 
ATOM     14  C   UNL     1       2.211   3.653  21.283  0.00  0.00    +0.000 A 
ATOM     15  C   UNL     1       2.299   2.477  20.552  0.00  0.00    +0.000 A 
ATOM     16  C   UNL     1       2.630   2.566  19.213  0.00  0.00    +0.000 A 
ATOM     17  N   UNL     1       2.914   3.734  18.595  0.00  0.00    +0.000 NA
ATOM     18  H   UNL     1       4.232   4.324  17.568  0.00  0.00    +0.000 HD
ATOM     19  H   UNL     1       2.921   6.956  19.178  0.00  0.00    +0.000 HD
ENDBRANCH   5   8
BRANCH   6  20
ATOM     20  C   UNL     1       7.186   6.241  17.074  0.00  0.00    +0.000 A 
ATOM     21  C   UNL     1       7.441   7.620  16.993  0.00  0.00    +0.000 A 
ATOM     22  C   UNL     1       8.145   8.308  17.988  0.00  0.00    +0.000 A 
ATOM     23  C   UNL     1       8.546   7.645  19.141  0.00  0.00    +0.000 A 
ATOM     24  C   UNL     1       8.228   6.301  19.300  0.00  0.00    +0.000 A 
ATOM     25  C   UNL     1       7.564   5.609  18.277  0.00  0.00    +0.000 A 
ENDBRANCH   6  20
TORSDOF 2
ENDMDL
MODEL 8
REMARK VINA RESULT:      -7.5      2.008      6.420
REMARK  Name = 
REMARK  3 active torsions:
REMARK  status: ('A' for Active; 'I' for Inactive)
REMARK    1  A    between atoms: C_1  and  C_2
REMARK    2  A    between atoms: C_5  and  N_6
REMARK    3  A    between atoms: C_16  and  C_17
REMARK                            x       y       z     vdW  Elec       q    Type
REMARK                         _______ _______ _______ _____ _____    ______ ____
ROOT
ATOM      1  C   UNL     1       7.467   4.098  12.494  0.00  0.00    +0.000 C 
ATOM      2  C   UNL     1       6.630   4.312  13.715  0.00  0.00    +0.000 A 
ATOM      3  N   UNL     1       5.321   4.031  13.618  0.00  0.00    +0.000 NA
ATOM      4  C   UNL     1       4.578   4.283  14.712  0.00  0.00    +0.000 A 
ATOM      5  C   UNL     1       5.091   4.778  15.896  0.00  0.00    +0.000 A 
ATOM      6  C   UNL     1       6.465   5.046  15.908  0.00  0.00    +0.000 A 
ATOM      7  N   UNL     1       7.233   4.819  14.810  0.00  0.00    +0.000 NA
ENDROOT
BRANCH   5   8
ATOM      8  N   UNL     1       4.256   4.920  17.013  0.00  0.00    +0.000 N 
ATOM      9  C   UNL     1       3.819   6.093  17.564  0.00  0.00    +0.000 C 
ATOM     10  O   UNL     1       4.051   7.211  17.110  0.00  0.00    +0.000 OA
ATOM     11  N   UNL     1       3.182   5.964  18.776  0.00  0.00    +0.000 N 
ATOM     12  C   UNL     1       2.792   4.775  19.409  0.00  0.00    +0.000 A 
ATOM     13  C   UNL     1       2.482   4.803  20.756  0.00  0.00    +0.000 A 
ATOM     14  C   UNL     1       2.190   3.596  21.402  0.00  0.00    +0.000 A 
ATOM     15  C   UNL     1       2.162   2.417  20.671  0.00  0.00    +0.000 A 
ATOM     16  C   UNL     1       2.443   2.482  19.320  0.00  0.00    +0.000 A 
ATOM     17  N   UNL     1       2.785   3.627  18.688  0.00  0.00    +0.000 NA
ATOM     18  H   UNL     1       4.100   4.120  17.607  0.00  0.00    +0.000 HD
ATOM     19  H   UNL     1       3.050   6.839  19.262  0.00  0.00    +0.000 HD
ENDBRANCH   5   8
BRANCH   6  20
ATOM     20  C   UNL     1       7.181   5.757  17.009  0.00  0.00    +0.000 A 
ATOM     21  C   UNL     1       7.607   5.124  18.188  0.00  0.00    +0.000 A 
ATOM     22  C   UNL     1       8.137   5.839  19.269  0.00  0.00    +0.000 A 
ATOM     23  C   UNL     1       8.334   7.210  19.166  0.00  0.00    +0.000 A 
ATOM     24  C   UNL     1       8.013   7.858  17.978  0.00  0.00    +0.000 A 
ATOM     25  C   UNL     1       7.439   7.141  16.919  0.00  0.00    +0.000 A 
ENDBRANCH   6  20
TORSDOF 2
ENDMDL
MODEL 9
REMARK VINA RESULT:      -6.9      2.738      6.774
REMARK  Name = 
REMARK  3 active torsions:
REMARK  status: ('A' for Active; 'I' for Inactive)
REMARK    1  A    between atoms: C_1  and  C_2
REMARK    2  A    between atoms: C_5  and  N_6
REMARK    3  A    between atoms: C_16  and  C_17
REMARK                            x       y       z     vdW  Elec       q    Type
REMARK                         _______ _______ _______ _____ _____    ______ ____
ROOT
ATOM      1  C   UNL     1       6.948   4.391  16.755  0.00  0.00    +0.000 C 
ATOM      2  C   UNL     1       5.830   5.244  17.268  0.00  0.00    +0.000 A 
ATOM      3  N   UNL     1       5.977   6.574  17.162  0.00  0.00    +0.000 NA
ATOM      4  C   UNL     1       4.985   7.322  17.680  0.00  0.00    +0.000 A 
ATOM      5  C   UNL     1       3.851   6.798  18.270  0.00  0.00    +0.000 A 
ATOM      6  C   UNL     1       3.781   5.401  18.340  0.00  0.00    +0.000 A 
ATOM      7  N   UNL     1       4.781   4.625  17.843  0.00  0.00    +0.000 NA
ENDROOT
BRANCH   5   8
ATOM      8  N   UNL     1       2.826   7.655  18.697  0.00  0.00    +0.000 N 
ATOM      9  C   UNL     1       2.159   8.575  17.937  0.00  0.00    +0.000 C 
ATOM     10  O   UNL     1       2.323   8.740  16.730  0.00  0.00    +0.000 OA
ATOM     11  N   UNL     1       1.345   9.431  18.641  0.00  0.00    +0.000 N 
ATOM     12  C   UNL     1       1.005   9.355  20.000  0.00  0.00    +0.000 A 
ATOM     13  C   UNL     1       0.469  10.467  20.621  0.00  0.00    +0.000 A 
ATOM     14  C   UNL     1       0.223  10.415  21.998  0.00  0.00    +0.000 A 
ATOM     15  C   UNL     1       0.468   9.239  22.693  0.00  0.00    +0.000 A 
ATOM     16  C   UNL     1       0.966   8.159  21.989  0.00  0.00    +0.000 A 
ATOM     17  N   UNL     1       1.265   8.206  20.672  0.00  0.00    +0.000 NA
ATOM     18  H   UNL     1       2.673   7.771  19.687  0.00  0.00    +0.000 HD
ATOM     19  H   UNL     1       1.024  10.223  18.104  0.00  0.00    +0.000 HD
ENDBRANCH   5   8
BRANCH   6  20
ATOM     20  C   UNL     1       2.746   4.640  19.101  0.00  0.00    +0.000 A 
ATOM     21  C   UNL     1       2.643   4.666  20.501  0.00  0.00    +0.000 A 
ATOM     22  C   UNL     1       1.767   3.827  21.200  0.00  0.00    +0.000 A 
ATOM     23  C   UNL     1       0.903   2.990  20.506  0.00  0.00    +0.000 A 
ATOM     24  C   UNL     1       0.909   3.007  19.115  0.00  0.00    +0.000 A 
ATOM     25  C   UNL     1       1.823   3.815  18.425  0.00  0.00    +0.000 A 
ENDBRANCH   6  20
TORSDOF 2
ENDMDL
