MODEL 1
REMARK VINA RESULT:      -8.7      0.000      0.000
REMARK  Name = 
REMARK  3 active torsions:
REMARK  status: ('A' for Active; 'I' for Inactive)
REMARK    1  A    between atoms: C_4  and  C_5
REMARK    2  A    between atoms: C_16  and  C_17
REMARK    3  A    between atoms: C_17  and  N_18
REMARK                            x       y       z     vdW  Elec       q    Type
REMARK                         _______ _______ _______ _____ _____    ______ ____
ROOT
ATOM      1  O   UNL     1       2.418   8.933  17.220  0.00  0.00    +0.000 OA
ATOM      2  C   UNL     1       2.010   8.630  18.335  0.00  0.00    +0.000 A 
ATOM      3  C   UNL     1       1.169   9.551  19.110  0.00  0.00    +0.000 A 
ATOM      4  C   UNL     1       0.766   9.180  20.333  0.00  0.00    +0.000 A 
ATOM      5  O   UNL     1       1.088   7.987  20.953  0.00  0.00    +0.000 OA
ATOM      6  C   UNL     1       1.845   7.083  20.249  0.00  0.00    +0.000 A 
ATOM      7  C   UNL     1       2.133   5.866  20.866  0.00  0.00    +0.000 A 
ATOM      8  C   UNL     1       2.880   4.899  20.184  0.00  0.00    +0.000 A 
ATOM      9  C   UNL     1       3.344   5.139  18.880  0.00  0.00    +0.000 A 
ATOM     10  C   UNL     1       3.061   6.373  18.276  0.00  0.00    +0.000 A 
ATOM     11  C   UNL     1       2.315   7.334  18.963  0.00  0.00    +0.000 A 
ENDROOT
BRANCH   4  12
ATOM     12  C   UNL     1      -0.119  10.053  21.105  0.00  0.00    +0.000 A 
ATOM     13  C   UNL     1      -0.697  11.175  20.497  0.00  0.00    +0.000 A 
ATOM     14  C   UNL     1      -1.507  12.041  21.236  0.00  0.00    +0.000 A 
ATOM     15  C   UNL     1      -1.741  11.783  22.585  0.00  0.00    +0.000 A 
ATOM     16 CL   UNL     1      -2.731  12.855  23.498  0.00  0.00    +0.000 Cl
ATOM     17  C   UNL     1      -1.176  10.668  23.201  0.00  0.00    +0.000 A 
ATOM     18  C   UNL     1      -0.364   9.802  22.462  0.00  0.00    +0.000 A 
ENDBRANCH   4  12
BRANCH   9  19
ATOM     19  C   UNL     1       4.168   4.104  18.146  0.00  0.00    +0.000 C 
BRANCH  19  20
ATOM     20  N   UNL     1       5.584   4.482  17.937  0.00  0.00    +0.000 NA
ATOM     21  C   UNL     1       5.725   5.344  16.749  0.00  0.00    +0.000 C 
ATOM     22  C   UNL     1       7.139   5.905  16.579  0.00  0.00    +0.000 C 
ATOM     23  C   UNL     1       7.594   6.636  17.834  0.00  0.00    +0.000 C 
ATOM     24  C   UNL     1       7.490   5.699  19.026  0.00  0.00    +0.000 C 
ATOM     25  C   UNL     1       6.074   5.141  19.161  0.00  0.00    +0.000 C 
ENDBRANCH  19  20
ENDBRANCH   9  19
TORSDOF 3
ENDMDL
MODEL 2
REMARK VINA RESULT:      -8.7      0.362      1.033
REMARK  Name = 
REMARK  3 active torsions:
REMARK  status: ('A' for Active; 'I' for Inactive)
REMARK    1  A    between atoms: C_4  and  C_5
REMARK    2  A    between atoms: C_16  and  C_17
REMARK    3  A    between atoms: C_17  and  N_18
REMARK                            x       y       z     vdW  Elec       q    Type
REMARK                         _______ _______ _______ _____ _____    ______ ____
ROOT
ATOM      1  O   UNL     1       2.562   8.706  17.223  0.00  0.00    +0.000 OA
ATOM      2  C   UNL     1       2.137   8.413  18.335  0.00  0.00    +0.000 A 
ATOM      3  C   UNL     1       1.337   9.365  19.116  0.00  0.00    +0.000 A 
ATOM      4  C   UNL     1       0.914   9.002  20.334  0.00  0.00    +0.000 A 
ATOM      5  O   UNL     1       1.178   7.790  20.944  0.00  0.00    +0.000 OA
ATOM      6  C   UNL     1       1.895   6.857  20.234  0.00  0.00    +0.000 A 
ATOM      7  C   UNL     1       2.124   5.623  20.840  0.00  0.00    +0.000 A 
ATOM      8  C   UNL     1       2.827   4.629  20.151  0.00  0.00    +0.000 A 
ATOM      9  C   UNL     1       3.306   4.859  18.850  0.00  0.00    +0.000 A 
ATOM     10  C   UNL     1       3.082   6.110  18.257  0.00  0.00    +0.000 A 
ATOM     11  C   UNL     1       2.379   7.098  18.951  0.00  0.00    +0.000 A 
ENDROOT
BRANCH   4  12
ATOM     12  C   UNL     1       0.069   9.908  21.112  0.00  0.00    +0.000 A 
ATOM     13  C   UNL     1      -0.213   9.621  22.454  0.00  0.00    +0.000 A 
ATOM     14  C   UNL     1      -1.056  10.455  23.193  0.00  0.00    +0.000 A 
ATOM     15  C   UNL     1      -1.615  11.580  22.591  0.00  0.00    +0.000 A 
ATOM     16 CL   UNL     1      -2.660  12.602  23.498  0.00  0.00    +0.000 Cl
ATOM     17  C   UNL     1      -1.340  11.879  21.258  0.00  0.00    +0.000 A 
ATOM     18  C   UNL     1      -0.498  11.044  20.517  0.00  0.00    +0.000 A 
ENDBRANCH   4  12
BRANCH   9  19
ATOM     19  C   UNL     1       4.082   3.793  18.109  0.00  0.00    +0.000 C 
BRANCH  19  20
ATOM     20  N   UNL     1       5.458   4.187  17.731  0.00  0.00    +0.000 NA
ATOM     21  C   UNL     1       5.464   4.890  16.435  0.00  0.00    +0.000 C 
ATOM     22  C   UNL     1       6.834   5.471  16.073  0.00  0.00    +0.000 C 
ATOM     23  C   UNL     1       7.356   6.374  17.179  0.00  0.00    +0.000 C 
ATOM     24  C   UNL     1       7.391   5.600  18.487  0.00  0.00    +0.000 C 
ATOM     25  C   UNL     1       6.017   5.018  18.814  0.00  0.00    +0.000 C 
ENDBRANCH  19  20
ENDBRANCH   9  19
TORSDOF 3
ENDMDL
MODEL 3
REMARK VINA RESULT:      -8.5      0.905      1.640
REMARK  Name = 
REMARK  3 active torsions:
REMARK  status: ('A' for Active; 'I' for Inactive)
REMARK    1  A    between atoms: C_4  and  C_5
REMARK    2  A    between atoms: C_16  and  C_17
REMARK    3  A    between atoms: C_17  and  N_18
REMARK                            x       y       z     vdW  Elec       q    Type
REMARK                         _______ _______ _______ _____ _____    ______ ____
ROOT
ATOM      1  O   UNL     1       2.169   9.812  17.302  0.00  0.00    +0.000 OA
ATOM      2  C   UNL     1       1.700   9.463  18.379  0.00  0.00    +0.000 A 
ATOM      3  C   UNL     1       0.869  10.375  19.174  0.00  0.00    +0.000 A 
ATOM      4  C   UNL     1       0.397   9.952  20.355  0.00  0.00    +0.000 A 
ATOM      5  O   UNL     1       0.638   8.710  20.913  0.00  0.00    +0.000 OA
ATOM      6  C   UNL     1       1.384   7.814  20.186  0.00  0.00    +0.000 A 
ATOM      7  C   UNL     1       1.590   6.551  20.738  0.00  0.00    +0.000 A 
ATOM      8  C   UNL     1       2.321   5.592  20.028  0.00  0.00    +0.000 A 
ATOM      9  C   UNL     1       2.851   5.886  18.761  0.00  0.00    +0.000 A 
ATOM     10  C   UNL     1       2.651   7.166  18.223  0.00  0.00    +0.000 A 
ATOM     11  C   UNL     1       1.919   8.119  18.938  0.00  0.00    +0.000 A 
ENDROOT
BRANCH   4  12
ATOM     12  C   UNL     1      -0.479  10.818  21.143  0.00  0.00    +0.000 A 
ATOM     13  C   UNL     1      -0.662  10.570  22.509  0.00  0.00    +0.000 A 
ATOM     14  C   UNL     1      -1.533  11.363  23.262  0.00  0.00    +0.000 A 
ATOM     15  C   UNL     1      -2.218  12.408  22.648  0.00  0.00    +0.000 A 
ATOM     16 CL   UNL     1      -3.297  13.380  23.572  0.00  0.00    +0.000 Cl
ATOM     17  C   UNL     1      -2.042  12.669  21.290  0.00  0.00    +0.000 A 
ATOM     18  C   UNL     1      -1.173  11.874  20.536  0.00  0.00    +0.000 A 
ENDBRANCH   4  12
BRANCH   9  19
ATOM     19  C   UNL     1       3.659   4.859  17.999  0.00  0.00    +0.000 C 
BRANCH  19  20
ATOM     20  N   UNL     1       5.051   5.266  17.706  0.00  0.00    +0.000 NA
ATOM     21  C   UNL     1       5.850   5.326  18.944  0.00  0.00    +0.000 C 
ATOM     22  C   UNL     1       7.338   5.577  18.686  0.00  0.00    +0.000 C 
ATOM     23  C   UNL     1       7.909   4.546  17.725  0.00  0.00    +0.000 C 
ATOM     24  C   UNL     1       7.098   4.553  16.439  0.00  0.00    +0.000 C 
ATOM     25  C   UNL     1       5.616   4.318  16.727  0.00  0.00    +0.000 C 
ENDBRANCH  19  20
ENDBRANCH   9  19
TORSDOF 3
ENDMDL
MODEL 4
REMARK VINA RESULT:      -8.4      4.231      9.344
REMARK  Name = 
REMARK  3 active torsions:
REMARK  status: ('A' for Active; 'I' for Inactive)
REMARK    1  A    between atoms: C_4  and  C_5
REMARK    2  A    between atoms: C_16  and  C_17
REMARK    3  A    between atoms: C_17  and  N_18
REMARK                            x       y       z     vdW  Elec       q    Type
REMARK                         _______ _______ _______ _____ _____    ______ ____
ROOT
ATOM      1  O   UNL     1      -0.203  11.447  18.385  0.00  0.00    +0.000 OA
ATOM      2  C   UNL     1       0.213  10.551  19.111  0.00  0.00    +0.000 A 
ATOM      3  C   UNL     1       1.088   9.495  18.585  0.00  0.00    +0.000 A 
ATOM      4  C   UNL     1       1.500   8.527  19.415  0.00  0.00    +0.000 A 
ATOM      5  O   UNL     1       1.158   8.421  20.750  0.00  0.00    +0.000 OA
ATOM      6  C   UNL     1       0.369   9.407  21.291  0.00  0.00    +0.000 A 
ATOM      7  C   UNL     1       0.060   9.314  22.647  0.00  0.00    +0.000 A 
ATOM      8  C   UNL     1      -0.720  10.305  23.253  0.00  0.00    +0.000 A 
ATOM      9  C   UNL     1      -1.197  11.398  22.510  0.00  0.00    +0.000 A 
ATOM     10  C   UNL     1      -0.893  11.472  21.143  0.00  0.00    +0.000 A 
ATOM     11  C   UNL     1      -0.114  10.479  20.544  0.00  0.00    +0.000 A 
ENDROOT
BRANCH   4  12
ATOM     12  C   UNL     1       2.416   7.494  18.932  0.00  0.00    +0.000 A 
ATOM     13  C   UNL     1       3.206   7.735  17.801  0.00  0.00    +0.000 A 
ATOM     14  C   UNL     1       4.051   6.739  17.303  0.00  0.00    +0.000 A 
ATOM     15  C   UNL     1       4.109   5.502  17.941  0.00  0.00    +0.000 A 
ATOM     16 CL   UNL     1       5.143   4.272  17.325  0.00  0.00    +0.000 Cl
ATOM     17  C   UNL     1       3.331   5.251  19.071  0.00  0.00    +0.000 A 
ATOM     18  C   UNL     1       2.484   6.247  19.567  0.00  0.00    +0.000 A 
ENDBRANCH   4  12
BRANCH   9  19
ATOM     19  C   UNL     1      -2.056  12.462  23.158  0.00  0.00    +0.000 C 
BRANCH  19  20
ATOM     20  N   UNL     1      -3.506  12.164  23.157  0.00  0.00    +0.000 NA
ATOM     21  C   UNL     1      -4.115  12.532  24.449  0.00  0.00    +0.000 C 
ATOM     22  C   UNL     1      -5.641  12.406  24.450  0.00  0.00    +0.000 C 
ATOM     23  C   UNL     1      -6.259  13.206  23.313  0.00  0.00    +0.000 C 
ATOM     24  C   UNL     1      -5.649  12.759  21.994  0.00  0.00    +0.000 C 
ATOM     25  C   UNL     1      -4.126  12.880  22.027  0.00  0.00    +0.000 C 
ENDBRANCH  19  20
ENDBRANCH   9  19
TORSDOF 3
ENDMDL
MODEL 5
REMARK VINA RESULT:      -8.4      2.364      3.772
REMARK  Name = 
REMARK  3 active torsions:
REMARK  status: ('A' for Active; 'I' for Inactive)
REMARK    1  A    between atoms: C_4  and  C_5
REMARK    2  A    between atoms: C_16  and  C_17
REMARK    3  A    between atoms: C_17  and  N_18
REMARK                            x       y       z     vdW  Elec       q    Type
REMARK                         _______ _______ _______ _____ _____    ______ ____
ROOT
ATOM      1  O   UNL     1       2.570   4.104  20.082  0.00  0.00    +0.000 OA
ATOM      2  C   UNL     1       2.585   5.270  19.705  0.00  0.00    +0.000 A 
ATOM      3  C   UNL     1       1.825   6.306  20.417  0.00  0.00    +0.000 A 
ATOM      4  C   UNL     1       1.858   7.562  19.953  0.00  0.00    +0.000 A 
ATOM      5  O   UNL     1       2.548   7.981  18.831  0.00  0.00    +0.000 OA
ATOM      6  C   UNL     1       3.300   7.051  18.155  0.00  0.00    +0.000 A 
ATOM      7  C   UNL     1       4.023   7.489  17.047  0.00  0.00    +0.000 A 
ATOM      8  C   UNL     1       4.825   6.587  16.338  0.00  0.00    +0.000 A 
ATOM      9  C   UNL     1       4.911   5.241  16.730  0.00  0.00    +0.000 A 
ATOM     10  C   UNL     1       4.166   4.809  17.837  0.00  0.00    +0.000 A 
ATOM     11  C   UNL     1       3.367   5.715  18.540  0.00  0.00    +0.000 A 
ENDROOT
BRANCH   4  12
ATOM     12  C   UNL     1       1.156   8.624  20.673  0.00  0.00    +0.000 A 
ATOM     13  C   UNL     1       0.825   8.451  22.023  0.00  0.00    +0.000 A 
ATOM     14  C   UNL     1       0.114   9.439  22.710  0.00  0.00    +0.000 A 
ATOM     15  C   UNL     1      -0.263  10.604  22.045  0.00  0.00    +0.000 A 
ATOM     16 CL   UNL     1      -1.146  11.818  22.887  0.00  0.00    +0.000 Cl
ATOM     17  C   UNL     1       0.063  10.791  20.703  0.00  0.00    +0.000 A 
ATOM     18  C   UNL     1       0.773   9.801  20.016  0.00  0.00    +0.000 A 
ENDBRANCH   4  12
BRANCH   9  19
ATOM     19  C   UNL     1       5.761   4.259  15.955  0.00  0.00    +0.000 C 
BRANCH  19  20
ATOM     20  N   UNL     1       5.919   4.584  14.519  0.00  0.00    +0.000 NA
ATOM     21  C   UNL     1       7.319   4.933  14.214  0.00  0.00    +0.000 C 
ATOM     22  C   UNL     1       7.579   5.114  12.715  0.00  0.00    +0.000 C 
ATOM     23  C   UNL     1       7.146   3.884  11.932  0.00  0.00    +0.000 C 
ATOM     24  C   UNL     1       5.684   3.589  12.227  0.00  0.00    +0.000 C 
ATOM     25  C   UNL     1       5.451   3.431  13.729  0.00  0.00    +0.000 C 
ENDBRANCH  19  20
ENDBRANCH   9  19
TORSDOF 3
ENDMDL
MODEL 6
REMARK VINA RESULT:      -8.2      4.463      9.861
REMARK  Name = 
REMARK  3 active torsions:
REMARK  status: ('A' for Active; 'I' for Inactive)
REMARK    1  A    between atoms: C_4  and  C_5
REMARK    2  A    between atoms: C_16  and  C_17
REMARK    3  A    between atoms: C_17  and  N_18
REMARK                            x       y       z     vdW  Elec       q    Type
REMARK                         _______ _______ _______ _____ _____    ______ ____
ROOT
ATOM      1  O   UNL     1       0.331   9.627  23.778  0.00  0.00    +0.000 OA
ATOM      2  C   UNL     1       0.321   9.658  22.553  0.00  0.00    +0.000 A 
ATOM      3  C   UNL     1       1.186   8.771  21.765  0.00  0.00    +0.000 A 
ATOM      4  C   UNL     1       1.152   8.859  20.429  0.00  0.00    +0.000 A 
ATOM      5  O   UNL     1       0.369   9.739  19.706  0.00  0.00    +0.000 OA
ATOM      6  C   UNL     1      -0.481  10.563  20.403  0.00  0.00    +0.000 A 
ATOM      7  C   UNL     1      -1.296  11.421  19.666  0.00  0.00    +0.000 A 
ATOM      8  C   UNL     1      -2.197  12.264  20.325  0.00  0.00    +0.000 A 
ATOM      9  C   UNL     1      -2.291  12.257  21.727  0.00  0.00    +0.000 A 
ATOM     10  C   UNL     1      -1.455  11.402  22.458  0.00  0.00    +0.000 A 
ATOM     11  C   UNL     1      -0.558  10.562  21.793  0.00  0.00    +0.000 A 
ENDROOT
BRANCH   4  12
ATOM     12  C   UNL     1       1.961   7.949  19.618  0.00  0.00    +0.000 A 
ATOM     13  C   UNL     1       2.412   8.353  18.355  0.00  0.00    +0.000 A 
ATOM     14  C   UNL     1       3.147   7.476  17.552  0.00  0.00    +0.000 A 
ATOM     15  C   UNL     1       3.433   6.194  18.015  0.00  0.00    +0.000 A 
ATOM     16 CL   UNL     1       4.330   5.111  17.023  0.00  0.00    +0.000 Cl
ATOM     17  C   UNL     1       2.994   5.780  19.271  0.00  0.00    +0.000 A 
ATOM     18  C   UNL     1       2.257   6.657  20.074  0.00  0.00    +0.000 A 
ENDBRANCH   4  12
BRANCH   9  19
ATOM     19  C   UNL     1      -3.250  13.181  22.445  0.00  0.00    +0.000 C 
BRANCH  19  20
ATOM     20  N   UNL     1      -4.591  12.603  22.691  0.00  0.00    +0.000 NA
ATOM     21  C   UNL     1      -5.138  13.081  23.975  0.00  0.00    +0.000 C 
ATOM     22  C   UNL     1      -6.590  12.652  24.205  0.00  0.00    +0.000 C 
ATOM     23  C   UNL     1      -7.478  13.080  23.047  0.00  0.00    +0.000 C 
ATOM     24  C   UNL     1      -6.916  12.522  21.749  0.00  0.00    +0.000 C 
ATOM     25  C   UNL     1      -5.462  12.950  21.554  0.00  0.00    +0.000 C 
ENDBRANCH  19  20
ENDBRANCH   9  19
TORSDOF 3
ENDMDL
MODEL 7
REMARK VINA RESULT:      -7.9      1.867      2.983
REMARK  Name = 
REMARK  3 active torsions:
REMARK  status: ('A' for Active; 'I' for Inactive)
REMARK    1  A    between atoms: C_4  and  C_5
REMARK    2  A    between atoms: C_16  and  C_17
REMARK    3  A    between atoms: C_17  and  N_18
REMARK                            x       y       z     vdW  Elec       q    Type
REMARK                         _______ _______ _______ _____ _____    ______ ____
ROOT
ATOM      1  O   UNL     1       1.953   4.705  21.071  0.00  0.00    +0.000 OA
ATOM      2  C   UNL     1       1.944   5.830  20.583  0.00  0.00    +0.000 A 
ATOM      3  C   UNL     1       1.158   6.912  21.189  0.00  0.00    +0.000 A 
ATOM      4  C   UNL     1       1.167   8.118  20.606  0.00  0.00    +0.000 A 
ATOM      5  O   UNL     1       1.853   8.442  19.451  0.00  0.00    +0.000 OA
ATOM      6  C   UNL     1       2.628   7.467  18.870  0.00  0.00    +0.000 A 
ATOM      7  C   UNL     1       3.348   7.812  17.728  0.00  0.00    +0.000 A 
ATOM      8  C   UNL     1       4.172   6.865  17.111  0.00  0.00    +0.000 A 
ATOM      9  C   UNL     1       4.285   5.565  17.632  0.00  0.00    +0.000 A 
ATOM     10  C   UNL     1       3.544   5.225  18.773  0.00  0.00    +0.000 A 
ATOM     11  C   UNL     1       2.723   6.177  19.383  0.00  0.00    +0.000 A 
ENDROOT
BRANCH   4  12
ATOM     12  C   UNL     1       0.438   9.229  21.219  0.00  0.00    +0.000 A 
ATOM     13  C   UNL     1       0.339  10.454  20.547  0.00  0.00    +0.000 A 
ATOM     14  C   UNL     1      -0.315  11.536  21.142  0.00  0.00    +0.000 A 
ATOM     15  C   UNL     1      -0.874  11.392  22.410  0.00  0.00    +0.000 A 
ATOM     16 CL   UNL     1      -1.672  12.726  23.147  0.00  0.00    +0.000 Cl
ATOM     17  C   UNL     1      -0.787  10.177  23.087  0.00  0.00    +0.000 A 
ATOM     18  C   UNL     1      -0.130   9.095  22.493  0.00  0.00    +0.000 A 
ENDBRANCH   4  12
BRANCH   9  19
ATOM     19  C   UNL     1       5.160   4.532  16.957  0.00  0.00    +0.000 C 
BRANCH  19  20
ATOM     20  N   UNL     1       5.503   4.841  15.551  0.00  0.00    +0.000 NA
ATOM     21  C   UNL     1       6.964   4.960  15.383  0.00  0.00    +0.000 C 
ATOM     22  C   UNL     1       7.389   5.111  13.920  0.00  0.00    +0.000 C 
ATOM     23  C   UNL     1       6.838   3.977  13.068  0.00  0.00    +0.000 C 
ATOM     24  C   UNL     1       5.326   3.923  13.221  0.00  0.00    +0.000 C 
ATOM     25  C   UNL     1       4.930   3.789  14.691  0.00  0.00    +0.000 C 
ENDBRANCH  19  20
ENDBRANCH   9  19
TORSDOF 3
ENDMDL
MODEL 8
REMARK VINA RESULT:      -7.9      4.206      8.789
REMARK  Name = 
REMARK  3 active torsions:
REMARK  status: ('A' for Active; 'I' for Inactive)
REMARK    1  A    between atoms: C_4  and  C_5
REMARK    2  A    between atoms: C_16  and  C_17
REMARK    3  A    between atoms: C_17  and  N_18
REMARK                            x       y       z     vdW  Elec       q    Type
REMARK                         _______ _______ _______ _____ _____    ______ ____
ROOT
ATOM      1  O   UNL     1       1.944   9.933  17.441  0.00  0.00    +0.000 OA
ATOM      2  C   UNL     1       1.837   9.118  18.349  0.00  0.00    +0.000 A 
ATOM      3  C   UNL     1       2.263   7.724  18.171  0.00  0.00    +0.000 A 
ATOM      4  C   UNL     1       2.106   6.867  19.189  0.00  0.00    +0.000 A 
ATOM      5  O   UNL     1       1.554   7.178  20.417  0.00  0.00    +0.000 OA
ATOM      6  C   UNL     1       1.174   8.480  20.638  0.00  0.00    +0.000 A 
ATOM      7  C   UNL     1       0.654   8.795  21.892  0.00  0.00    +0.000 A 
ATOM      8  C   UNL     1       0.274  10.111  22.178  0.00  0.00    +0.000 A 
ATOM      9  C   UNL     1       0.411  11.123  21.214  0.00  0.00    +0.000 A 
ATOM     10  C   UNL     1       0.920  10.791  19.950  0.00  0.00    +0.000 A 
ATOM     11  C   UNL     1       1.298   9.474  19.672  0.00  0.00    +0.000 A 
ENDROOT
BRANCH   4  12
ATOM     12  C   UNL     1       2.573   5.487  19.058  0.00  0.00    +0.000 A 
ATOM     13  C   UNL     1       3.004   5.010  17.813  0.00  0.00    +0.000 A 
ATOM     14  C   UNL     1       3.409   3.680  17.667  0.00  0.00    +0.000 A 
ATOM     15  C   UNL     1       3.385   2.827  18.768  0.00  0.00    +0.000 A 
ATOM     16 CL   UNL     1       3.875   1.188  18.586  0.00  0.00    +0.000 Cl
ATOM     17  C   UNL     1       2.962   3.289  20.013  0.00  0.00    +0.000 A 
ATOM     18  C   UNL     1       2.555   4.619  20.159  0.00  0.00    +0.000 A 
ENDBRANCH   4  12
BRANCH   9  19
ATOM     19  C   UNL     1      -0.017  12.543  21.512  0.00  0.00    +0.000 C 
BRANCH  19  20
ATOM     20  N   UNL     1      -1.057  12.664  22.558  0.00  0.00    +0.000 NA
ATOM     21  C   UNL     1      -0.993  13.985  23.209  0.00  0.00    +0.000 C 
ATOM     22  C   UNL     1      -2.150  14.233  24.181  0.00  0.00    +0.000 C 
ATOM     23  C   UNL     1      -3.493  14.034  23.496  0.00  0.00    +0.000 C 
ATOM     24  C   UNL     1      -3.546  12.642  22.887  0.00  0.00    +0.000 C 
ATOM     25  C   UNL     1      -2.371  12.417  21.936  0.00  0.00    +0.000 C 
ENDBRANCH  19  20
ENDBRANCH   9  19
TORSDOF 3
ENDMDL
MODEL 9
REMARK VINA RESULT:      -7.9      4.090      9.047
REMARK  Name = 
REMARK  3 active torsions:
REMARK  status: ('A' for Active; 'I' for Inactive)
REMARK    1  A    between atoms: C_4  and  C_5
REMARK    2  A    between atoms: C_16  and  C_17
REMARK    3  A    between atoms: C_17  and  N_18
REMARK                            x       y       z     vdW  Elec       q    Type
REMARK                         _______ _______ _______ _____ _____    ______ ____
ROOT
ATOM      1  O   UNL     1       0.306  11.220  18.169  0.00  0.00    +0.000 OA
ATOM      2  C   UNL     1       0.712  10.243  18.786  0.00  0.00    +0.000 A 
ATOM      3  C   UNL     1       1.499   9.198  18.117  0.00  0.00    +0.000 A 
ATOM      4  C   UNL     1       1.903   8.140  18.832  0.00  0.00    +0.000 A 
ATOM      5  O   UNL     1       1.629   7.927  20.170  0.00  0.00    +0.000 OA
ATOM      6  C   UNL     1       0.924   8.897  20.842  0.00  0.00    +0.000 A 
ATOM      7  C   UNL     1       0.685   8.695  22.200  0.00  0.00    +0.000 A 
ATOM      8  C   UNL     1      -0.006   9.663  22.938  0.00  0.00    +0.000 A 
ATOM      9  C   UNL     1      -0.464  10.840  22.324  0.00  0.00    +0.000 A 
ATOM     10  C   UNL     1      -0.231  11.025  20.954  0.00  0.00    +0.000 A 
ATOM     11  C   UNL     1       0.460  10.055  20.224  0.00  0.00    +0.000 A 
ENDROOT
BRANCH   4  12
ATOM     12  C   UNL     1       2.735   7.112  18.206  0.00  0.00    +0.000 A 
ATOM     13  C   UNL     1       2.424   5.758  18.384  0.00  0.00    +0.000 A 
ATOM     14  C   UNL     1       3.238   4.766  17.830  0.00  0.00    +0.000 A 
ATOM     15  C   UNL     1       4.363   5.130  17.093  0.00  0.00    +0.000 A 
ATOM     16 CL   UNL     1       5.370   3.910  16.417  0.00  0.00    +0.000 Cl
ATOM     17  C   UNL     1       4.681   6.474  16.904  0.00  0.00    +0.000 A 
ATOM     18  C   UNL     1       3.868   7.466  17.461  0.00  0.00    +0.000 A 
ENDBRANCH   4  12
BRANCH   9  19
ATOM     19  C   UNL     1      -1.228  11.881  23.113  0.00  0.00    +0.000 C 
BRANCH  19  20
ATOM     20  N   UNL     1      -2.509  12.298  22.499  0.00  0.00    +0.000 NA
ATOM     21  C   UNL     1      -3.571  12.390  23.518  0.00  0.00    +0.000 C 
ATOM     22  C   UNL     1      -4.875  12.980  22.973  0.00  0.00    +0.000 C 
ATOM     23  C   UNL     1      -4.634  14.333  22.320  0.00  0.00    +0.000 C 
ATOM     24  C   UNL     1      -3.577  14.187  21.238  0.00  0.00    +0.000 C 
ATOM     25  C   UNL     1      -2.294  13.581  21.805  0.00  0.00    +0.000 C 
ENDBRANCH  19  20
ENDBRANCH   9  19
TORSDOF 3
ENDMDL
