MODEL 1
REMARK VINA RESULT:      -7.9      0.000      0.000
REMARK  Name = 
REMARK  9 active torsions:
REMARK  status: ('A' for Active; 'I' for Inactive)
REMARK    1  A    between atoms: C_1  and  O_2
REMARK    2  A    between atoms: O_2  and  C_3
REMARK    3  A    between atoms: C_3  and  C_5
REMARK    4  A    between atoms: C_7  and  C_8
REMARK    5  A    between atoms: C_8  and  C_9
REMARK    6  A    between atoms: C_8  and  C_10
REMARK    7  A    between atoms: C_8  and  C_11
REMARK    8  A    between atoms: C_13  and  N_14
REMARK    9  A    between atoms: N_17  and  C_18
REMARK                            x       y       z     vdW  Elec       q    Type
REMARK                         _______ _______ _______ _____ _____    ______ ____
ROOT
ATOM      1  N   UNL     1       2.520   6.469  20.471  0.00  0.00    +0.000 N 
ATOM      2  C   UNL     1       1.787   7.647  20.426  0.00  0.00    +0.000 C 
ATOM      3  O   UNL     1       1.465   8.209  19.383  0.00  0.00    +0.000 OA
ATOM      4  N   UNL     1       1.489   8.145  21.687  0.00  0.00    +0.000 N 
ATOM      5  H   UNL     1       2.474   5.884  21.298  0.00  0.00    +0.000 HD
ATOM      6  H   UNL     1       2.058   7.797  22.445  0.00  0.00    +0.000 HD
ENDROOT
BRANCH   4   7
ATOM      7  C   UNL     1       0.759   9.339  21.920  0.00  0.00    +0.000 A 
ATOM      8  C   UNL     1      -0.212   9.458  22.923  0.00  0.00    +0.000 A 
ATOM      9  C   UNL     1      -0.964  10.629  23.066  0.00  0.00    +0.000 A 
ATOM     10  C   UNL     1      -0.743  11.709  22.216  0.00  0.00    +0.000 A 
ATOM     11 CL   UNL     1      -1.731  13.110  22.422  0.00  0.00    +0.000 Cl
ATOM     12  C   UNL     1       0.254  11.620  21.239  0.00  0.00    +0.000 A 
ATOM     13 CL   UNL     1       0.591  12.922  20.152  0.00  0.00    +0.000 Cl
ATOM     14  C   UNL     1       1.009  10.444  21.100  0.00  0.00    +0.000 A 
ENDBRANCH   4   7
BRANCH   1  19
ATOM     15  C   UNL     1       2.608   4.808  18.617  0.00  0.00    +0.000 A 
ATOM     16  O   UNL     1       3.423   4.576  17.535  0.00  0.00    +0.000 OA
ATOM     17  C   UNL     1       4.412   5.510  17.542  0.00  0.00    +0.000 A 
ATOM     18  C   UNL     1       4.250   6.331  18.634  0.00  0.00    +0.000 A 
ATOM     19  C   UNL     1       3.080   5.907  19.323  0.00  0.00    +0.000 A 
BRANCH  17  20
ATOM     20  C   UNL     1       5.415   5.459  16.421  0.00  0.00    +0.000 C 
ATOM     21  C   UNL     1       5.154   6.612  15.437  0.00  0.00    +0.000 C 
ATOM     22  C   UNL     1       6.850   5.598  16.967  0.00  0.00    +0.000 C 
ATOM     23  C   UNL     1       5.299   4.115  15.684  0.00  0.00    +0.000 C 
ENDBRANCH  17  20
BRANCH  15  24
ATOM     24  C   UNL     1       1.462   3.956  18.812  0.00  0.00    +0.000 C 
ATOM     25  O   UNL     1       0.985   3.209  17.966  0.00  0.00    +0.000 OA
BRANCH  24  27
ATOM     26  C   UNL     1       1.284   3.030  20.983  0.00  0.00    +0.000 C 
ATOM     27  O   UNL     1       0.986   4.098  20.086  0.00  0.00    +0.000 OA
ENDBRANCH  24  27
ENDBRANCH  15  24
ENDBRANCH   1  19
TORSDOF 5
ENDMDL
MODEL 2
REMARK VINA RESULT:      -7.8      1.422      1.820
REMARK  Name = 
REMARK  9 active torsions:
REMARK  status: ('A' for Active; 'I' for Inactive)
REMARK    1  A    between atoms: C_1  and  O_2
REMARK    2  A    between atoms: O_2  and  C_3
REMARK    3  A    between atoms: C_3  and  C_5
REMARK    4  A    between atoms: C_7  and  C_8
REMARK    5  A    between atoms: C_8  and  C_9
REMARK    6  A    between atoms: C_8  and  C_10
REMARK    7  A    between atoms: C_8  and  C_11
REMARK    8  A    between atoms: C_13  and  N_14
REMARK    9  A    between atoms: N_17  and  C_18
REMARK                            x       y       z     vdW  Elec       q    Type
REMARK                         _______ _______ _______ _____ _____    ______ ____
ROOT
ATOM      1  N   UNL     1       2.686   5.933  19.969  0.00  0.00    +0.000 N 
ATOM      2  C   UNL     1       2.109   7.196  19.971  0.00  0.00    +0.000 C 
ATOM      3  O   UNL     1       2.263   8.015  19.069  0.00  0.00    +0.000 OA
ATOM      4  N   UNL     1       1.371   7.449  21.118  0.00  0.00    +0.000 N 
ATOM      5  H   UNL     1       2.280   5.198  20.537  0.00  0.00    +0.000 HD
ATOM      6  H   UNL     1       1.570   6.857  21.912  0.00  0.00    +0.000 HD
ENDROOT
BRANCH   4   7
ATOM      7  C   UNL     1       0.687   8.667  21.374  0.00  0.00    +0.000 A 
ATOM      8  C   UNL     1       0.424   9.138  22.666  0.00  0.00    +0.000 A 
ATOM      9  C   UNL     1      -0.323  10.303  22.873  0.00  0.00    +0.000 A 
ATOM     10  C   UNL     1      -0.804  11.025  21.785  0.00  0.00    +0.000 A 
ATOM     11 CL   UNL     1      -1.750  12.433  22.109  0.00  0.00    +0.000 Cl
ATOM     12  C   UNL     1      -0.511  10.591  20.488  0.00  0.00    +0.000 A 
ATOM     13 CL   UNL     1      -1.067  11.439  19.088  0.00  0.00    +0.000 Cl
ATOM     14  C   UNL     1       0.242   9.422  20.285  0.00  0.00    +0.000 A 
ENDBRANCH   4   7
BRANCH   1  19
ATOM     15  C   UNL     1       3.426   4.628  17.981  0.00  0.00    +0.000 A 
ATOM     16  O   UNL     1       4.571   4.542  17.224  0.00  0.00    +0.000 OA
ATOM     17  C   UNL     1       5.491   5.396  17.750  0.00  0.00    +0.000 A 
ATOM     18  C   UNL     1       4.952   6.016  18.853  0.00  0.00    +0.000 A 
ATOM     19  C   UNL     1       3.616   5.551  19.000  0.00  0.00    +0.000 A 
BRANCH  17  20
ATOM     20  C   UNL     1       6.824   5.482  17.057  0.00  0.00    +0.000 C 
ATOM     21  C   UNL     1       7.795   4.457  17.668  0.00  0.00    +0.000 C 
ATOM     22  C   UNL     1       6.675   5.178  15.553  0.00  0.00    +0.000 C 
ATOM     23  C   UNL     1       7.400   6.898  17.216  0.00  0.00    +0.000 C 
ENDBRANCH  17  20
BRANCH  15  24
ATOM     24  C   UNL     1       2.288   3.830  17.602  0.00  0.00    +0.000 C 
ATOM     25  O   UNL     1       1.148   4.254  17.444  0.00  0.00    +0.000 OA
BRANCH  24  27
ATOM     26  C   UNL     1       2.997   1.819  18.628  0.00  0.00    +0.000 C 
ATOM     27  O   UNL     1       2.666   2.527  17.435  0.00  0.00    +0.000 OA
ENDBRANCH  24  27
ENDBRANCH  15  24
ENDBRANCH   1  19
TORSDOF 5
ENDMDL
MODEL 3
REMARK VINA RESULT:      -7.8      5.691      7.836
REMARK  Name = 
REMARK  9 active torsions:
REMARK  status: ('A' for Active; 'I' for Inactive)
REMARK    1  A    between atoms: C_1  and  O_2
REMARK    2  A    between atoms: O_2  and  C_3
REMARK    3  A    between atoms: C_3  and  C_5
REMARK    4  A    between atoms: C_7  and  C_8
REMARK    5  A    between atoms: C_8  and  C_9
REMARK    6  A    between atoms: C_8  and  C_10
REMARK    7  A    between atoms: C_8  and  C_11
REMARK    8  A    between atoms: C_13  and  N_14
REMARK    9  A    between atoms: N_17  and  C_18
REMARK                            x       y       z     vdW  Elec       q    Type
REMARK                         _______ _______ _______ _____ _____    ______ ____
ROOT
ATOM      1  N   UNL     1       6.358   7.760  17.043  0.00  0.00    +0.000 N 
ATOM      2  C   UNL     1       7.460   8.164  17.784  0.00  0.00    +0.000 C 
ATOM      3  O   UNL     1       8.039   7.441  18.590  0.00  0.00    +0.000 OA
ATOM      4  N   UNL     1       7.815   9.484  17.546  0.00  0.00    +0.000 N 
ATOM      5  H   UNL     1       6.130   8.246  16.183  0.00  0.00    +0.000 HD
ATOM      6  H   UNL     1       7.102  10.065  17.128  0.00  0.00    +0.000 HD
ENDROOT
BRANCH   4   7
ATOM      7  C   UNL     1       8.899  10.145  18.181  0.00  0.00    +0.000 A 
ATOM      8  C   UNL     1       9.156  10.045  19.554  0.00  0.00    +0.000 A 
ATOM      9  C   UNL     1      10.187  10.777  20.153  0.00  0.00    +0.000 A 
ATOM     10  C   UNL     1      10.990  11.610  19.379  0.00  0.00    +0.000 A 
ATOM     11 CL   UNL     1      12.221  12.515  20.185  0.00  0.00    +0.000 Cl
ATOM     12  C   UNL     1      10.773  11.686  18.000  0.00  0.00    +0.000 A 
ATOM     13 CL   UNL     1      11.734  12.693  16.974  0.00  0.00    +0.000 Cl
ATOM     14  C   UNL     1       9.738  10.947  17.403  0.00  0.00    +0.000 A 
ENDBRANCH   4   7
BRANCH   1  19
ATOM     15  C   UNL     1       6.232   5.273  16.989  0.00  0.00    +0.000 A 
ATOM     16  O   UNL     1       5.319   4.320  17.375  0.00  0.00    +0.000 OA
ATOM     17  C   UNL     1       4.237   4.958  17.898  0.00  0.00    +0.000 A 
ATOM     18  C   UNL     1       4.438   6.317  17.830  0.00  0.00    +0.000 A 
ATOM     19  C   UNL     1       5.727   6.536  17.270  0.00  0.00    +0.000 A 
BRANCH  17  20
ATOM     20  C   UNL     1       3.114   4.098  18.412  0.00  0.00    +0.000 C 
ATOM     21  C   UNL     1       1.887   4.974  18.718  0.00  0.00    +0.000 C 
ATOM     22  C   UNL     1       2.712   3.043  17.362  0.00  0.00    +0.000 C 
ATOM     23  C   UNL     1       3.561   3.372  19.690  0.00  0.00    +0.000 C 
ENDBRANCH  17  20
BRANCH  15  24
ATOM     24  C   UNL     1       7.485   4.839  16.425  0.00  0.00    +0.000 C 
ATOM     25  O   UNL     1       8.294   4.106  16.982  0.00  0.00    +0.000 OA
BRANCH  24  27
ATOM     26  C   UNL     1       6.844   4.759  14.148  0.00  0.00    +0.000 C 
ATOM     27  O   UNL     1       7.637   5.360  15.170  0.00  0.00    +0.000 OA
ENDBRANCH  24  27
ENDBRANCH  15  24
ENDBRANCH   1  19
TORSDOF 5
ENDMDL
MODEL 4
REMARK VINA RESULT:      -7.6      1.216      1.386
REMARK  Name = 
REMARK  9 active torsions:
REMARK  status: ('A' for Active; 'I' for Inactive)
REMARK    1  A    between atoms: C_1  and  O_2
REMARK    2  A    between atoms: O_2  and  C_3
REMARK    3  A    between atoms: C_3  and  C_5
REMARK    4  A    between atoms: C_7  and  C_8
REMARK    5  A    between atoms: C_8  and  C_9
REMARK    6  A    between atoms: C_8  and  C_10
REMARK    7  A    between atoms: C_8  and  C_11
REMARK    8  A    between atoms: C_13  and  N_14
REMARK    9  A    between atoms: N_17  and  C_18
REMARK                            x       y       z     vdW  Elec       q    Type
REMARK                         _______ _______ _______ _____ _____    ______ ____
ROOT
ATOM      1  N   UNL     1       2.721   5.984  20.198  0.00  0.00    +0.000 N 
ATOM      2  C   UNL     1       2.113   7.230  20.130  0.00  0.00    +0.000 C 
ATOM      3  O   UNL     1       2.237   7.997  19.178  0.00  0.00    +0.000 OA
ATOM      4  N   UNL     1       1.380   7.535  21.268  0.00  0.00    +0.000 N 
ATOM      5  H   UNL     1       2.338   5.276  20.814  0.00  0.00    +0.000 HD
ATOM      6  H   UNL     1       1.601   6.998  22.094  0.00  0.00    +0.000 HD
ENDROOT
BRANCH   4   7
ATOM      7  C   UNL     1       0.669   8.749  21.456  0.00  0.00    +0.000 A 
ATOM      8  C   UNL     1       0.373   9.273  22.721  0.00  0.00    +0.000 A 
ATOM      9  C   UNL     1      -0.399  10.431  22.862  0.00  0.00    +0.000 A 
ATOM     10  C   UNL     1      -0.874  11.094  21.734  0.00  0.00    +0.000 A 
ATOM     11 CL   UNL     1      -1.853  12.496  21.978  0.00  0.00    +0.000 Cl
ATOM     12  C   UNL     1      -0.549  10.608  20.464  0.00  0.00    +0.000 A 
ATOM     13 CL   UNL     1      -1.096  11.382  19.018  0.00  0.00    +0.000 Cl
ATOM     14  C   UNL     1       0.229   9.446  20.327  0.00  0.00    +0.000 A 
ENDBRANCH   4   7
BRANCH   1  19
ATOM     15  C   UNL     1       3.521   4.499  18.366  0.00  0.00    +0.000 A 
ATOM     16  O   UNL     1       4.642   4.422  17.573  0.00  0.00    +0.000 OA
ATOM     17  C   UNL     1       5.486   5.425  17.936  0.00  0.00    +0.000 A 
ATOM     18  C   UNL     1       4.926   6.135  18.972  0.00  0.00    +0.000 A 
ATOM     19  C   UNL     1       3.651   5.566  19.245  0.00  0.00    +0.000 A 
BRANCH  17  20
ATOM     20  C   UNL     1       6.778   5.546  17.173  0.00  0.00    +0.000 C 
ATOM     21  C   UNL     1       6.530   5.259  15.682  0.00  0.00    +0.000 C 
ATOM     22  C   UNL     1       7.359   6.967  17.308  0.00  0.00    +0.000 C 
ATOM     23  C   UNL     1       7.803   4.543  17.728  0.00  0.00    +0.000 C 
ENDBRANCH  17  20
BRANCH  15  24
ATOM     24  C   UNL     1       2.459   3.550  18.152  0.00  0.00    +0.000 C 
ATOM     25  O   UNL     1       1.943   3.299  17.069  0.00  0.00    +0.000 OA
BRANCH  24  27
ATOM     26  C   UNL     1       0.723   2.983  19.659  0.00  0.00    +0.000 C 
ATOM     27  O   UNL     1       2.113   2.961  19.337  0.00  0.00    +0.000 OA
ENDBRANCH  24  27
ENDBRANCH  15  24
ENDBRANCH   1  19
TORSDOF 5
ENDMDL
MODEL 5
REMARK VINA RESULT:      -7.6      1.313      1.317
REMARK  Name = 
REMARK  9 active torsions:
REMARK  status: ('A' for Active; 'I' for Inactive)
REMARK    1  A    between atoms: C_1  and  O_2
REMARK    2  A    between atoms: O_2  and  C_3
REMARK    3  A    between atoms: C_3  and  C_5
REMARK    4  A    between atoms: C_7  and  C_8
REMARK    5  A    between atoms: C_8  and  C_9
REMARK    6  A    between atoms: C_8  and  C_10
REMARK    7  A    between atoms: C_8  and  C_11
REMARK    8  A    between atoms: C_13  and  N_14
REMARK    9  A    between atoms: N_17  and  C_18
REMARK                            x       y       z     vdW  Elec       q    Type
REMARK                         _______ _______ _______ _____ _____    ______ ____
ROOT
ATOM      1  N   UNL     1       2.841   5.805  20.448  0.00  0.00    +0.000 N 
ATOM      2  C   UNL     1       2.157   6.988  20.200  0.00  0.00    +0.000 C 
ATOM      3  O   UNL     1       2.059   7.497  19.087  0.00  0.00    +0.000 OA
ATOM      4  N   UNL     1       1.629   7.555  21.351  0.00  0.00    +0.000 N 
ATOM      5  H   UNL     1       2.621   5.266  21.278  0.00  0.00    +0.000 HD
ATOM      6  H   UNL     1       2.031   7.242  22.224  0.00  0.00    +0.000 HD
ENDROOT
BRANCH   4   7
ATOM      7  C   UNL     1       0.894   8.769  21.376  0.00  0.00    +0.000 A 
ATOM      8  C   UNL     1       0.393   9.335  22.556  0.00  0.00    +0.000 A 
ATOM      9  C   UNL     1      -0.395  10.491  22.526  0.00  0.00    +0.000 A 
ATOM     10  C   UNL     1      -0.680  11.109  21.312  0.00  0.00    +0.000 A 
ATOM     11 CL   UNL     1      -1.689  12.510  21.341  0.00  0.00    +0.000 Cl
ATOM     12  C   UNL     1      -0.150  10.580  20.131  0.00  0.00    +0.000 A 
ATOM     13 CL   UNL     1      -0.454  11.297  18.587  0.00  0.00    +0.000 Cl
ATOM     14  C   UNL     1       0.643   9.421  20.165  0.00  0.00    +0.000 A 
ENDBRANCH   4   7
BRANCH   1  19
ATOM     15  C   UNL     1       3.588   3.828  19.130  0.00  0.00    +0.000 A 
ATOM     16  O   UNL     1       4.465   3.603  18.095  0.00  0.00    +0.000 OA
ATOM     17  C   UNL     1       5.043   4.790  17.764  0.00  0.00    +0.000 A 
ATOM     18  C   UNL     1       4.558   5.774  18.594  0.00  0.00    +0.000 A 
ATOM     19  C   UNL     1       3.603   5.176  19.462  0.00  0.00    +0.000 A 
BRANCH  17  20
ATOM     20  C   UNL     1       6.029   4.781  16.628  0.00  0.00    +0.000 C 
ATOM     21  C   UNL     1       5.938   6.105  15.850  0.00  0.00    +0.000 C 
ATOM     22  C   UNL     1       7.468   4.623  17.157  0.00  0.00    +0.000 C 
ATOM     23  C   UNL     1       5.722   3.606  15.685  0.00  0.00    +0.000 C 
ENDBRANCH  17  20
BRANCH  15  24
ATOM     24  C   UNL     1       2.827   2.717  19.643  0.00  0.00    +0.000 C 
ATOM     25  O   UNL     1       2.290   1.853  18.959  0.00  0.00    +0.000 OA
BRANCH  24  27
ATOM     26  C   UNL     1       1.504   2.672  21.605  0.00  0.00    +0.000 C 
ATOM     27  O   UNL     1       2.797   2.763  21.009  0.00  0.00    +0.000 OA
ENDBRANCH  24  27
ENDBRANCH  15  24
ENDBRANCH   1  19
TORSDOF 5
ENDMDL
MODEL 6
REMARK VINA RESULT:      -7.5      2.621      4.239
REMARK  Name = 
REMARK  9 active torsions:
REMARK  status: ('A' for Active; 'I' for Inactive)
REMARK    1  A    between atoms: C_1  and  O_2
REMARK    2  A    between atoms: O_2  and  C_3
REMARK    3  A    between atoms: C_3  and  C_5
REMARK    4  A    between atoms: C_7  and  C_8
REMARK    5  A    between atoms: C_8  and  C_9
REMARK    6  A    between atoms: C_8  and  C_10
REMARK    7  A    between atoms: C_8  and  C_11
REMARK    8  A    between atoms: C_13  and  N_14
REMARK    9  A    between atoms: N_17  and  C_18
REMARK                            x       y       z     vdW  Elec       q    Type
REMARK                         _______ _______ _______ _____ _____    ______ ____
ROOT
ATOM      1  N   UNL     1       3.224   7.425  17.614  0.00  0.00    +0.000 N 
ATOM      2  C   UNL     1       2.305   8.127  18.383  0.00  0.00    +0.000 C 
ATOM      3  O   UNL     1       1.885   7.735  19.468  0.00  0.00    +0.000 OA
ATOM      4  N   UNL     1       1.881   9.301  17.776  0.00  0.00    +0.000 N 
ATOM      5  H   UNL     1       3.775   7.919  16.922  0.00  0.00    +0.000 HD
ATOM      6  H   UNL     1       2.032   9.363  16.780  0.00  0.00    +0.000 HD
ENDROOT
BRANCH   4   7
ATOM      7  C   UNL     1       0.938  10.196  18.346  0.00  0.00    +0.000 A 
ATOM      8  C   UNL     1       1.288  11.187  19.272  0.00  0.00    +0.000 A 
ATOM      9  C   UNL     1       0.315  11.996  19.868  0.00  0.00    +0.000 A 
ATOM     10  C   UNL     1      -1.026  11.837  19.532  0.00  0.00    +0.000 A 
ATOM     11 CL   UNL     1      -2.181  12.841  20.332  0.00  0.00    +0.000 Cl
ATOM     12  C   UNL     1      -1.386  10.882  18.575  0.00  0.00    +0.000 A 
ATOM     13 CL   UNL     1      -3.029  10.632  18.101  0.00  0.00    +0.000 Cl
ATOM     14  C   UNL     1      -0.405  10.073  17.977  0.00  0.00    +0.000 A 
ENDBRANCH   4   7
BRANCH   1  19
ATOM     15  C   UNL     1       4.921   5.622  17.882  0.00  0.00    +0.000 A 
ATOM     16  O   UNL     1       4.919   4.318  18.320  0.00  0.00    +0.000 OA
ATOM     17  C   UNL     1       3.644   3.991  18.667  0.00  0.00    +0.000 A 
ATOM     18  C   UNL     1       2.822   5.069  18.436  0.00  0.00    +0.000 A 
ATOM     19  C   UNL     1       3.632   6.134  17.953  0.00  0.00    +0.000 A 
BRANCH  17  20
ATOM     20  C   UNL     1       3.413   2.604  19.203  0.00  0.00    +0.000 C 
ATOM     21  C   UNL     1       2.009   2.514  19.826  0.00  0.00    +0.000 C 
ATOM     22  C   UNL     1       3.513   1.560  18.072  0.00  0.00    +0.000 C 
ATOM     23  C   UNL     1       4.472   2.275  20.267  0.00  0.00    +0.000 C 
ENDBRANCH  17  20
BRANCH  15  24
ATOM     24  C   UNL     1       6.172   6.212  17.480  0.00  0.00    +0.000 C 
ATOM     25  O   UNL     1       6.290   7.239  16.822  0.00  0.00    +0.000 OA
BRANCH  24  27
ATOM     26  C   UNL     1       7.900   5.989  19.083  0.00  0.00    +0.000 C 
ATOM     27  O   UNL     1       7.214   5.461  17.949  0.00  0.00    +0.000 OA
ENDBRANCH  24  27
ENDBRANCH  15  24
ENDBRANCH   1  19
TORSDOF 5
ENDMDL
MODEL 7
REMARK VINA RESULT:      -7.5      1.321      1.987
REMARK  Name = 
REMARK  9 active torsions:
REMARK  status: ('A' for Active; 'I' for Inactive)
REMARK    1  A    between atoms: C_1  and  O_2
REMARK    2  A    between atoms: O_2  and  C_3
REMARK    3  A    between atoms: C_3  and  C_5
REMARK    4  A    between atoms: C_7  and  C_8
REMARK    5  A    between atoms: C_8  and  C_9
REMARK    6  A    between atoms: C_8  and  C_10
REMARK    7  A    between atoms: C_8  and  C_11
REMARK    8  A    between atoms: C_13  and  N_14
REMARK    9  A    between atoms: N_17  and  C_18
REMARK                            x       y       z     vdW  Elec       q    Type
REMARK                         _______ _______ _______ _____ _____    ______ ____
ROOT
ATOM      1  N   UNL     1       3.004   6.174  20.139  0.00  0.00    +0.000 N 
ATOM      2  C   UNL     1       2.205   7.252  19.782  0.00  0.00    +0.000 C 
ATOM      3  O   UNL     1       1.941   7.547  18.620  0.00  0.00    +0.000 OA
ATOM      4  N   UNL     1       1.767   7.984  20.877  0.00  0.00    +0.000 N 
ATOM      5  H   UNL     1       2.923   5.780  21.070  0.00  0.00    +0.000 HD
ATOM      6  H   UNL     1       2.289   7.855  21.732  0.00  0.00    +0.000 HD
ENDROOT
BRANCH   4   7
ATOM      7  C   UNL     1       0.946   9.138  20.787  0.00  0.00    +0.000 A 
ATOM      8  C   UNL     1       0.910   9.965  19.658  0.00  0.00    +0.000 A 
ATOM      9  C   UNL     1       0.146  11.137  19.642  0.00  0.00    +0.000 A 
ATOM     10  C   UNL     1      -0.610  11.491  20.756  0.00  0.00    +0.000 A 
ATOM     11 CL   UNL     1      -1.501  12.969  20.686  0.00  0.00    +0.000 Cl
ATOM     12  C   UNL     1      -0.619  10.652  21.875  0.00  0.00    +0.000 A 
ATOM     13 CL   UNL     1      -1.539  11.021  23.291  0.00  0.00    +0.000 Cl
ATOM     14  C   UNL     1       0.148   9.474  21.885  0.00  0.00    +0.000 A 
ENDBRANCH   4   7
BRANCH   1  19
ATOM     15  C   UNL     1       3.632   4.050  19.000  0.00  0.00    +0.000 A 
ATOM     16  O   UNL     1       4.446   3.693  17.951  0.00  0.00    +0.000 OA
ATOM     17  C   UNL     1       5.032   4.823  17.467  0.00  0.00    +0.000 A 
ATOM     18  C   UNL     1       4.616   5.901  18.212  0.00  0.00    +0.000 A 
ATOM     19  C   UNL     1       3.696   5.425  19.187  0.00  0.00    +0.000 A 
BRANCH  17  20
ATOM     20  C   UNL     1       5.953   4.667  16.288  0.00  0.00    +0.000 C 
ATOM     21  C   UNL     1       5.653   3.344  15.563  0.00  0.00    +0.000 C 
ATOM     22  C   UNL     1       5.760   5.826  15.290  0.00  0.00    +0.000 C 
ATOM     23  C   UNL     1       7.414   4.673  16.768  0.00  0.00    +0.000 C 
ENDBRANCH  17  20
BRANCH  15  24
ATOM     24  C   UNL     1       2.875   3.021  19.666  0.00  0.00    +0.000 C 
ATOM     25  O   UNL     1       2.666   1.898  19.222  0.00  0.00    +0.000 OA
BRANCH  24  27
ATOM     26  C   UNL     1       1.569   2.595  21.593  0.00  0.00    +0.000 C 
ATOM     27  O   UNL     1       2.428   3.478  20.875  0.00  0.00    +0.000 OA
ENDBRANCH  24  27
ENDBRANCH  15  24
ENDBRANCH   1  19
TORSDOF 5
ENDMDL
MODEL 8
REMARK VINA RESULT:      -7.4      1.686      2.138
REMARK  Name = 
REMARK  9 active torsions:
REMARK  status: ('A' for Active; 'I' for Inactive)
REMARK    1  A    between atoms: C_1  and  O_2
REMARK    2  A    between atoms: O_2  and  C_3
REMARK    3  A    between atoms: C_3  and  C_5
REMARK    4  A    between atoms: C_7  and  C_8
REMARK    5  A    between atoms: C_8  and  C_9
REMARK    6  A    between atoms: C_8  and  C_10
REMARK    7  A    between atoms: C_8  and  C_11
REMARK    8  A    between atoms: C_13  and  N_14
REMARK    9  A    between atoms: N_17  and  C_18
REMARK                            x       y       z     vdW  Elec       q    Type
REMARK                         _______ _______ _______ _____ _____    ______ ____
ROOT
ATOM      1  N   UNL     1       3.073   5.913  20.092  0.00  0.00    +0.000 N 
ATOM      2  C   UNL     1       2.338   7.038  19.743  0.00  0.00    +0.000 C 
ATOM      3  O   UNL     1       2.242   7.457  18.593  0.00  0.00    +0.000 OA
ATOM      4  N   UNL     1       1.753   7.660  20.836  0.00  0.00    +0.000 N 
ATOM      5  H   UNL     1       2.860   5.426  20.956  0.00  0.00    +0.000 HD
ATOM      6  H   UNL     1       2.148   7.433  21.738  0.00  0.00    +0.000 HD
ENDROOT
BRANCH   4   7
ATOM      7  C   UNL     1       0.957   8.833  20.755  0.00  0.00    +0.000 A 
ATOM      8  C   UNL     1       0.886   9.629  19.605  0.00  0.00    +0.000 A 
ATOM      9  C   UNL     1       0.152  10.820  19.594  0.00  0.00    +0.000 A 
ATOM     10  C   UNL     1      -0.538  11.225  20.734  0.00  0.00    +0.000 A 
ATOM     11 CL   UNL     1      -1.393  12.723  20.667  0.00  0.00    +0.000 Cl
ATOM     12  C   UNL     1      -0.511  10.417  21.875  0.00  0.00    +0.000 A 
ATOM     13 CL   UNL     1      -1.349  10.849  23.325  0.00  0.00    +0.000 Cl
ATOM     14  C   UNL     1       0.224   9.220  21.881  0.00  0.00    +0.000 A 
ENDBRANCH   4   7
BRANCH   1  19
ATOM     15  C   UNL     1       4.303   3.929  19.224  0.00  0.00    +0.000 A 
ATOM     16  O   UNL     1       5.083   3.651  18.126  0.00  0.00    +0.000 OA
ATOM     17  C   UNL     1       5.177   4.783  17.376  0.00  0.00    +0.000 A 
ATOM     18  C   UNL     1       4.479   5.793  17.995  0.00  0.00    +0.000 A 
ATOM     19  C   UNL     1       3.890   5.254  19.172  0.00  0.00    +0.000 A 
BRANCH  17  20
ATOM     20  C   UNL     1       5.973   4.698  16.102  0.00  0.00    +0.000 C 
ATOM     21  C   UNL     1       5.617   5.884  15.188  0.00  0.00    +0.000 C 
ATOM     22  C   UNL     1       7.484   4.748  16.401  0.00  0.00    +0.000 C 
ATOM     23  C   UNL     1       5.659   3.378  15.381  0.00  0.00    +0.000 C 
ENDBRANCH  17  20
BRANCH  15  24
ATOM     24  C   UNL     1       4.032   2.870  20.163  0.00  0.00    +0.000 C 
ATOM     25  O   UNL     1       4.804   1.961  20.444  0.00  0.00    +0.000 OA
BRANCH  24  27
ATOM     26  C   UNL     1       1.719   2.397  20.006  0.00  0.00    +0.000 C 
ATOM     27  O   UNL     1       2.787   3.033  20.704  0.00  0.00    +0.000 OA
ENDBRANCH  24  27
ENDBRANCH  15  24
ENDBRANCH   1  19
TORSDOF 5
ENDMDL
MODEL 9
REMARK VINA RESULT:      -7.4      2.575      4.228
REMARK  Name = 
REMARK  9 active torsions:
REMARK  status: ('A' for Active; 'I' for Inactive)
REMARK    1  A    between atoms: C_1  and  O_2
REMARK    2  A    between atoms: O_2  and  C_3
REMARK    3  A    between atoms: C_3  and  C_5
REMARK    4  A    between atoms: C_7  and  C_8
REMARK    5  A    between atoms: C_8  and  C_9
REMARK    6  A    between atoms: C_8  and  C_10
REMARK    7  A    between atoms: C_8  and  C_11
REMARK    8  A    between atoms: C_13  and  N_14
REMARK    9  A    between atoms: N_17  and  C_18
REMARK                            x       y       z     vdW  Elec       q    Type
REMARK                         _______ _______ _______ _____ _____    ______ ____
ROOT
ATOM      1  N   UNL     1       2.805   7.574  17.607  0.00  0.00    +0.000 N 
ATOM      2  C   UNL     1       2.096   8.458  18.409  0.00  0.00    +0.000 C 
ATOM      3  O   UNL     1       1.757   8.209  19.563  0.00  0.00    +0.000 OA
ATOM      4  N   UNL     1       1.776   9.640  17.756  0.00  0.00    +0.000 N 
ATOM      5  H   UNL     1       3.335   7.930  16.820  0.00  0.00    +0.000 HD
ATOM      6  H   UNL     1       1.815   9.612  16.747  0.00  0.00    +0.000 HD
ENDROOT
BRANCH   4   7
ATOM      7  C   UNL     1       1.048  10.706  18.346  0.00  0.00    +0.000 A 
ATOM      8  C   UNL     1       1.663  11.779  19.004  0.00  0.00    +0.000 A 
ATOM      9  C   UNL     1       0.905  12.767  19.641  0.00  0.00    +0.000 A 
ATOM     10  C   UNL     1      -0.486  12.705  19.615  0.00  0.00    +0.000 A 
ATOM     11 CL   UNL     1      -1.362  13.934  20.453  0.00  0.00    +0.000 Cl
ATOM     12  C   UNL     1      -1.113  11.663  18.924  0.00  0.00    +0.000 A 
ATOM     13 CL   UNL     1      -2.835  11.524  18.841  0.00  0.00    +0.000 Cl
ATOM     14  C   UNL     1      -0.348  10.675  18.283  0.00  0.00    +0.000 A 
ENDBRANCH   4   7
BRANCH   1  19
ATOM     15  C   UNL     1       4.301   5.650  18.119  0.00  0.00    +0.000 A 
ATOM     16  O   UNL     1       4.136   4.358  18.561  0.00  0.00    +0.000 OA
ATOM     17  C   UNL     1       2.804   4.136  18.729  0.00  0.00    +0.000 A 
ATOM     18  C   UNL     1       2.109   5.270  18.379  0.00  0.00    +0.000 A 
ATOM     19  C   UNL     1       3.059   6.261  18.008  0.00  0.00    +0.000 A 
BRANCH  17  20
ATOM     20  C   UNL     1       2.393   2.780  19.236  0.00  0.00    +0.000 C 
ATOM     21  C   UNL     1       2.502   2.743  20.770  0.00  0.00    +0.000 C 
ATOM     22  C   UNL     1       0.935   2.471  18.842  0.00  0.00    +0.000 C 
ATOM     23  C   UNL     1       3.304   1.701  18.628  0.00  0.00    +0.000 C 
ENDBRANCH  17  20
BRANCH  15  24
ATOM     24  C   UNL     1       5.639   6.135  17.892  0.00  0.00    +0.000 C 
ATOM     25  O   UNL     1       5.931   7.104  17.200  0.00  0.00    +0.000 OA
BRANCH  24  27
ATOM     26  C   UNL     1       7.551   4.746  17.772  0.00  0.00    +0.000 C 
ATOM     27  O   UNL     1       6.538   5.359  18.568  0.00  0.00    +0.000 OA
ENDBRANCH  24  27
ENDBRANCH  15  24
ENDBRANCH   1  19
TORSDOF 5
ENDMDL
