MODEL 1
REMARK VINA RESULT:      -4.6      0.000      0.000
REMARK  Name = 
REMARK  2 active torsions:
REMARK  status: ('A' for Active; 'I' for Inactive)
REMARK    1  A    between atoms: O_1  and  C_2
REMARK    2  A    between atoms: C_2  and  C_3
REMARK                            x       y       z     vdW  Elec       q    Type
REMARK                         _______ _______ _______ _____ _____    ______ ____
ROOT
ATOM      1  C   UNL     1       5.636   4.494  16.650  0.00  0.00    +0.000 A 
ATOM      2  C   UNL     1       6.804   5.255  16.611  0.00  0.00    +0.000 A 
ATOM      3  N   UNL     1       7.521   5.501  15.489  0.00  0.00    +0.000 NA
ATOM      4  C   UNL     1       7.050   4.953  14.344  0.00  0.00    +0.000 A 
ATOM      5  C   UNL     1       5.912   4.171  14.281  0.00  0.00    +0.000 A 
ATOM      6  F   UNL     1       5.503   3.649  13.118  0.00  0.00    +0.000 F 
ATOM      7  C   UNL     1       5.198   3.930  15.446  0.00  0.00    +0.000 A 
ENDROOT
BRANCH   1   8
ATOM      8  C   UNL     1       4.931   4.249  17.951  0.00  0.00    +0.000 C 
BRANCH   8   9
ATOM      9  O   UNL     1       5.816   3.660  18.893  0.00  0.00    +0.000 OA
ATOM     10  H   UNL     1       6.318   4.385  19.301  0.00  0.00    +0.000 HD
ENDBRANCH   8   9
ENDBRANCH   1   8
TORSDOF 2
ENDMDL
MODEL 2
REMARK VINA RESULT:      -4.6      4.984      5.750
REMARK  Name = 
REMARK  2 active torsions:
REMARK  status: ('A' for Active; 'I' for Inactive)
REMARK    1  A    between atoms: O_1  and  C_2
REMARK    2  A    between atoms: C_2  and  C_3
REMARK                            x       y       z     vdW  Elec       q    Type
REMARK                         _______ _______ _______ _____ _____    ______ ____
ROOT
ATOM      1  C   UNL     1       1.682   3.136  20.008  0.00  0.00    +0.000 A 
ATOM      2  C   UNL     1       1.834   2.163  19.020  0.00  0.00    +0.000 A 
ATOM      3  N   UNL     1       2.073   2.428  17.714  0.00  0.00    +0.000 NA
ATOM      4  C   UNL     1       2.159   3.736  17.372  0.00  0.00    +0.000 A 
ATOM      5  C   UNL     1       2.008   4.773  18.274  0.00  0.00    +0.000 A 
ATOM      6  F   UNL     1       2.096   6.047  17.872  0.00  0.00    +0.000 F 
ATOM      7  C   UNL     1       1.760   4.474  19.606  0.00  0.00    +0.000 A 
ENDROOT
BRANCH   1   8
ATOM      8  C   UNL     1       1.386   2.742  21.424  0.00  0.00    +0.000 C 
BRANCH   8   9
ATOM      9  O   UNL     1       2.591   2.586  22.159  0.00  0.00    +0.000 OA
ATOM     10  H   UNL     1       2.980   3.471  22.255  0.00  0.00    +0.000 HD
ENDBRANCH   8   9
ENDBRANCH   1   8
TORSDOF 2
ENDMDL
MODEL 3
REMARK VINA RESULT:      -4.5      2.235      2.925
REMARK  Name = 
REMARK  2 active torsions:
REMARK  status: ('A' for Active; 'I' for Inactive)
REMARK    1  A    between atoms: O_1  and  C_2
REMARK    2  A    between atoms: C_2  and  C_3
REMARK                            x       y       z     vdW  Elec       q    Type
REMARK                         _______ _______ _______ _____ _____    ______ ____
ROOT
ATOM      1  C   UNL     1       6.938   5.153  18.279  0.00  0.00    +0.000 A 
ATOM      2  C   UNL     1       5.653   4.934  18.775  0.00  0.00    +0.000 A 
ATOM      3  N   UNL     1       4.656   4.333  18.083  0.00  0.00    +0.000 NA
ATOM      4  C   UNL     1       4.955   3.933  16.824  0.00  0.00    +0.000 A 
ATOM      5  C   UNL     1       6.193   4.119  16.237  0.00  0.00    +0.000 A 
ATOM      6  F   UNL     1       6.424   3.709  14.983  0.00  0.00    +0.000 F 
ATOM      7  C   UNL     1       7.195   4.742  16.966  0.00  0.00    +0.000 A 
ENDROOT
BRANCH   1   8
ATOM      8  C   UNL     1       7.964   5.860  19.112  0.00  0.00    +0.000 C 
BRANCH   8   9
ATOM      9  O   UNL     1       7.884   5.436  20.466  0.00  0.00    +0.000 OA
ATOM     10  H   UNL     1       7.168   4.781  20.514  0.00  0.00    +0.000 HD
ENDBRANCH   8   9
ENDBRANCH   1   8
TORSDOF 2
ENDMDL
MODEL 4
REMARK VINA RESULT:      -4.5      2.765      3.595
REMARK  Name = 
REMARK  2 active torsions:
REMARK  status: ('A' for Active; 'I' for Inactive)
REMARK    1  A    between atoms: O_1  and  C_2
REMARK    2  A    between atoms: C_2  and  C_3
REMARK                            x       y       z     vdW  Elec       q    Type
REMARK                         _______ _______ _______ _____ _____    ______ ____
ROOT
ATOM      1  C   UNL     1       6.261   4.402  15.962  0.00  0.00    +0.000 A 
ATOM      2  C   UNL     1       7.151   4.578  17.022  0.00  0.00    +0.000 A 
ATOM      3  N   UNL     1       6.803   4.537  18.330  0.00  0.00    +0.000 NA
ATOM      4  C   UNL     1       5.494   4.315  18.596  0.00  0.00    +0.000 A 
ATOM      5  C   UNL     1       4.533   4.144  17.618  0.00  0.00    +0.000 A 
ATOM      6  F   UNL     1       3.251   3.936  17.946  0.00  0.00    +0.000 F 
ATOM      7  C   UNL     1       4.915   4.195  16.285  0.00  0.00    +0.000 A 
ENDROOT
BRANCH   1   8
ATOM      8  C   UNL     1       6.738   4.499  14.544  0.00  0.00    +0.000 C 
BRANCH   8   9
ATOM      9  O   UNL     1       7.773   5.466  14.434  0.00  0.00    +0.000 OA
ATOM     10  H   UNL     1       7.454   6.153  13.826  0.00  0.00    +0.000 HD
ENDBRANCH   8   9
ENDBRANCH   1   8
TORSDOF 2
ENDMDL
MODEL 5
REMARK VINA RESULT:      -4.5      5.111      6.175
REMARK  Name = 
REMARK  2 active torsions:
REMARK  status: ('A' for Active; 'I' for Inactive)
REMARK    1  A    between atoms: O_1  and  C_2
REMARK    2  A    between atoms: C_2  and  C_3
REMARK                            x       y       z     vdW  Elec       q    Type
REMARK                         _______ _______ _______ _____ _____    ______ ____
ROOT
ATOM      1  C   UNL     1       3.292   3.912  19.247  0.00  0.00    +0.000 A 
ATOM      2  C   UNL     1       2.543   3.670  18.095  0.00  0.00    +0.000 A 
ATOM      3  N   UNL     1       1.302   3.126  18.088  0.00  0.00    +0.000 NA
ATOM      4  C   UNL     1       0.783   2.801  19.295  0.00  0.00    +0.000 A 
ATOM      5  C   UNL     1       1.451   2.986  20.491  0.00  0.00    +0.000 A 
ATOM      6  F   UNL     1       0.886   2.634  21.653  0.00  0.00    +0.000 F 
ATOM      7  C   UNL     1       2.723   3.540  20.470  0.00  0.00    +0.000 A 
ENDROOT
BRANCH   1   8
ATOM      8  C   UNL     1       4.673   4.487  19.148  0.00  0.00    +0.000 C 
BRANCH   8   9
ATOM      9  O   UNL     1       5.642   3.449  19.108  0.00  0.00    +0.000 OA
ATOM     10  H   UNL     1       6.457   3.837  18.750  0.00  0.00    +0.000 HD
ENDBRANCH   8   9
ENDBRANCH   1   8
TORSDOF 2
ENDMDL
MODEL 6
REMARK VINA RESULT:      -4.5      4.989      5.592
REMARK  Name = 
REMARK  2 active torsions:
REMARK  status: ('A' for Active; 'I' for Inactive)
REMARK    1  A    between atoms: O_1  and  C_2
REMARK    2  A    between atoms: C_2  and  C_3
REMARK                            x       y       z     vdW  Elec       q    Type
REMARK                         _______ _______ _______ _____ _____    ______ ____
ROOT
ATOM      1  C   UNL     1       2.284   3.339  20.212  0.00  0.00    +0.000 A 
ATOM      2  C   UNL     1       3.105   2.361  19.650  0.00  0.00    +0.000 A 
ATOM      3  N   UNL     1       3.231   2.139  18.320  0.00  0.00    +0.000 NA
ATOM      4  C   UNL     1       2.494   2.932  17.506  0.00  0.00    +0.000 A 
ATOM      5  C   UNL     1       1.640   3.917  17.966  0.00  0.00    +0.000 A 
ATOM      6  F   UNL     1       0.931   4.663  17.109  0.00  0.00    +0.000 F 
ATOM      7  C   UNL     1       1.526   4.121  19.334  0.00  0.00    +0.000 A 
ENDROOT
BRANCH   1   8
ATOM      8  C   UNL     1       2.186   3.485  21.701  0.00  0.00    +0.000 C 
BRANCH   8   9
ATOM      9  O   UNL     1       1.492   2.380  22.264  0.00  0.00    +0.000 OA
ATOM     10  H   UNL     1       1.822   2.271  23.171  0.00  0.00    +0.000 HD
ENDBRANCH   8   9
ENDBRANCH   1   8
TORSDOF 2
ENDMDL
MODEL 7
REMARK VINA RESULT:      -4.4      2.863      3.624
REMARK  Name = 
REMARK  2 active torsions:
REMARK  status: ('A' for Active; 'I' for Inactive)
REMARK    1  A    between atoms: O_1  and  C_2
REMARK    2  A    between atoms: C_2  and  C_3
REMARK                            x       y       z     vdW  Elec       q    Type
REMARK                         _______ _______ _______ _____ _____    ______ ____
ROOT
ATOM      1  C   UNL     1       5.895   4.594  17.522  0.00  0.00    +0.000 A 
ATOM      2  C   UNL     1       5.615   5.111  18.787  0.00  0.00    +0.000 A 
ATOM      3  N   UNL     1       4.404   5.046  19.391  0.00  0.00    +0.000 NA
ATOM      4  C   UNL     1       3.417   4.437  18.692  0.00  0.00    +0.000 A 
ATOM      5  C   UNL     1       3.590   3.907  17.427  0.00  0.00    +0.000 A 
ATOM      6  F   UNL     1       2.570   3.325  16.783  0.00  0.00    +0.000 F 
ATOM      7  C   UNL     1       4.839   3.992  16.829  0.00  0.00    +0.000 A 
ENDROOT
BRANCH   1   8
ATOM      8  C   UNL     1       7.261   4.747  16.924  0.00  0.00    +0.000 C 
BRANCH   8   9
ATOM      9  O   UNL     1       8.221   4.034  17.690  0.00  0.00    +0.000 OA
ATOM     10  H   UNL     1       8.810   4.694  18.091  0.00  0.00    +0.000 HD
ENDBRANCH   8   9
ENDBRANCH   1   8
TORSDOF 2
ENDMDL
MODEL 8
REMARK VINA RESULT:      -4.4      3.068      3.563
REMARK  Name = 
REMARK  2 active torsions:
REMARK  status: ('A' for Active; 'I' for Inactive)
REMARK    1  A    between atoms: O_1  and  C_2
REMARK    2  A    between atoms: C_2  and  C_3
REMARK                            x       y       z     vdW  Elec       q    Type
REMARK                         _______ _______ _______ _____ _____    ______ ____
ROOT
ATOM      1  C   UNL     1       6.687   5.821  18.466  0.00  0.00    +0.000 A 
ATOM      2  C   UNL     1       5.618   5.169  19.081  0.00  0.00    +0.000 A 
ATOM      3  N   UNL     1       4.370   5.085  18.559  0.00  0.00    +0.000 NA
ATOM      4  C   UNL     1       4.178   5.689  17.363  0.00  0.00    +0.000 A 
ATOM      5  C   UNL     1       5.168   6.373  16.682  0.00  0.00    +0.000 A 
ATOM      6  F   UNL     1       4.912   6.957  15.505  0.00  0.00    +0.000 F 
ATOM      7  C   UNL     1       6.436   6.448  17.241  0.00  0.00    +0.000 A 
ENDROOT
BRANCH   1   8
ATOM      8  C   UNL     1       8.024   5.889  19.141  0.00  0.00    +0.000 C 
BRANCH   8   9
ATOM      9  O   UNL     1       7.922   5.459  20.491  0.00  0.00    +0.000 OA
ATOM     10  H   UNL     1       8.420   6.096  21.030  0.00  0.00    +0.000 HD
ENDBRANCH   8   9
ENDBRANCH   1   8
TORSDOF 2
ENDMDL
MODEL 9
REMARK VINA RESULT:      -4.3      3.038      3.864
REMARK  Name = 
REMARK  2 active torsions:
REMARK  status: ('A' for Active; 'I' for Inactive)
REMARK    1  A    between atoms: O_1  and  C_2
REMARK    2  A    between atoms: C_2  and  C_3
REMARK                            x       y       z     vdW  Elec       q    Type
REMARK                         _______ _______ _______ _____ _____    ______ ____
ROOT
ATOM      1  C   UNL     1       6.471   4.737  16.412  0.00  0.00    +0.000 A 
ATOM      2  C   UNL     1       7.468   4.595  17.377  0.00  0.00    +0.000 A 
ATOM      3  N   UNL     1       7.291   4.818  18.701  0.00  0.00    +0.000 NA
ATOM      4  C   UNL     1       6.052   5.210  19.083  0.00  0.00    +0.000 A 
ATOM      5  C   UNL     1       5.002   5.394  18.203  0.00  0.00    +0.000 A 
ATOM      6  F   UNL     1       3.802   5.792  18.643  0.00  0.00    +0.000 F 
ATOM      7  C   UNL     1       5.212   5.163  16.851  0.00  0.00    +0.000 A 
ENDROOT
BRANCH   1   8
ATOM      8  C   UNL     1       6.776   4.499  14.964  0.00  0.00    +0.000 C 
BRANCH   8   9
ATOM      9  O   UNL     1       7.737   5.435  14.498  0.00  0.00    +0.000 OA
ATOM     10  H   UNL     1       8.165   5.815  15.283  0.00  0.00    +0.000 HD
ENDBRANCH   8   9
ENDBRANCH   1   8
TORSDOF 2
ENDMDL
