MODEL 1
REMARK VINA RESULT:      -8.7      0.000      0.000
REMARK  Name = 
REMARK  7 active torsions:
REMARK  status: ('A' for Active; 'I' for Inactive)
REMARK    1  A    between atoms: C_1  and  C_2
REMARK    2  A    between atoms: C_2  and  N_3
REMARK    3  A    between atoms: C_5  and  N_6
REMARK    4  A    between atoms: C_9  and  C_10
REMARK    5  A    between atoms: C_14  and  C_15
REMARK    6  A    between atoms: C_24  and  C_25
REMARK    7  A    between atoms: C_30  and  O_31
REMARK                            x       y       z     vdW  Elec       q    Type
REMARK                         _______ _______ _______ _____ _____    ______ ____
ROOT
ATOM      1  C   UNL     1       5.617   5.822  17.051  0.00  0.00    +0.000 C 
ATOM      2  O   UNL     1       5.869   4.792  16.426  0.00  0.00    +0.000 OA
ATOM      3  N   UNL     1       4.316   6.139  17.451  0.00  0.00    +0.000 N 
ATOM      4  N   UNL     1       3.960   7.384  17.898  0.00  0.00    +0.000 NA
ATOM      5  C   UNL     1       2.705   7.333  18.219  0.00  0.00    +0.000 C 
ATOM      6  C   UNL     1       2.011   6.034  17.917  0.00  0.00    +0.000 C 
ATOM      7  C   UNL     1       3.181   5.222  17.359  0.00  0.00    +0.000 C 
ENDROOT
BRANCH   5   8
ATOM      8  C   UNL     1       2.008   8.488  18.830  0.00  0.00    +0.000 A 
ATOM      9  C   UNL     1       1.795   9.674  18.125  0.00  0.00    +0.000 A 
ATOM     10  C   UNL     1       1.138  10.741  18.746  0.00  0.00    +0.000 A 
ATOM     11  C   UNL     1       0.695  10.630  20.068  0.00  0.00    +0.000 A 
ATOM     12 CL   UNL     1      -0.097  11.994  20.767  0.00  0.00    +0.000 Cl
ATOM     13  C   UNL     1       0.900   9.438  20.774  0.00  0.00    +0.000 A 
ATOM     14 CL   UNL     1       0.371   9.221  22.402  0.00  0.00    +0.000 Cl
ATOM     15  C   UNL     1       1.553   8.368  20.151  0.00  0.00    +0.000 A 
ENDBRANCH   5   8
BRANCH   7  16
ATOM     16  C   UNL     1       3.382   3.905  18.088  0.00  0.00    +0.000 A 
ATOM     17  C   UNL     1       3.136   2.702  17.402  0.00  0.00    +0.000 A 
ATOM     18  C   UNL     1       3.351   1.467  18.017  0.00  0.00    +0.000 A 
ATOM     19  C   UNL     1       3.821   1.413  19.327  0.00  0.00    +0.000 A 
ATOM     20  C   UNL     1       4.060   2.592  20.029  0.00  0.00    +0.000 A 
ATOM     21  C   UNL     1       3.832   3.823  19.412  0.00  0.00    +0.000 A 
BRANCH  21  22
ATOM     22  O   UNL     1       4.037   4.972  20.120  0.00  0.00    +0.000 OA
ATOM     23  H   UNL     1       4.340   4.736  21.013  0.00  0.00    +0.000 HD
ENDBRANCH  21  22
ENDBRANCH   7  16
BRANCH   1  27
ATOM     24  N   UNL     1       7.771   8.578  17.703  0.00  0.00    +0.000 N 
ATOM     25  C   UNL     1       8.378   7.739  18.580  0.00  0.00    +0.000 A 
ATOM     26  C   UNL     1       7.703   6.529  18.475  0.00  0.00    +0.000 A 
ATOM     27  C   UNL     1       6.697   6.738  17.489  0.00  0.00    +0.000 A 
ATOM     28  N   UNL     1       6.751   8.017  17.049  0.00  0.00    +0.000 NA
BRANCH  26  29
ATOM     29  N   UNL     1       8.022   5.363  19.242  0.00  0.00    +0.000 N 
ATOM     30  O   UNL     1       8.422   4.375  18.606  0.00  0.00    +0.000 OA
ATOM     31  O   UNL     1       7.833   5.394  20.461  0.00  0.00    +0.000 OA
ENDBRANCH  26  29
BRANCH  24  33
ATOM     32  C   UNL     1       9.131  10.523  18.420  0.00  0.00    +0.000 C 
ATOM     33  C   UNL     1       8.030   9.994  17.519  0.00  0.00    +0.000 C 
ENDBRANCH  24  33
ENDBRANCH   1  27
TORSDOF 6
ENDMDL
MODEL 2
REMARK VINA RESULT:      -8.6      0.769      1.191
REMARK  Name = 
REMARK  7 active torsions:
REMARK  status: ('A' for Active; 'I' for Inactive)
REMARK    1  A    between atoms: C_1  and  C_2
REMARK    2  A    between atoms: C_2  and  N_3
REMARK    3  A    between atoms: C_5  and  N_6
REMARK    4  A    between atoms: C_9  and  C_10
REMARK    5  A    between atoms: C_14  and  C_15
REMARK    6  A    between atoms: C_24  and  C_25
REMARK    7  A    between atoms: C_30  and  O_31
REMARK                            x       y       z     vdW  Elec       q    Type
REMARK                         _______ _______ _______ _____ _____    ______ ____
ROOT
ATOM      1  C   UNL     1       5.721   5.798  17.074  0.00  0.00    +0.000 C 
ATOM      2  O   UNL     1       5.997   4.779  16.441  0.00  0.00    +0.000 OA
ATOM      3  N   UNL     1       4.414   6.084  17.475  0.00  0.00    +0.000 N 
ATOM      4  N   UNL     1       4.029   7.317  17.933  0.00  0.00    +0.000 NA
ATOM      5  C   UNL     1       2.776   7.236  18.251  0.00  0.00    +0.000 C 
ATOM      6  C   UNL     1       2.110   5.925  17.937  0.00  0.00    +0.000 C 
ATOM      7  C   UNL     1       3.299   5.143  17.374  0.00  0.00    +0.000 C 
ENDROOT
BRANCH   5   8
ATOM      8  C   UNL     1       2.053   8.369  18.871  0.00  0.00    +0.000 A 
ATOM      9  C   UNL     1       1.762   9.533  18.157  0.00  0.00    +0.000 A 
ATOM     10  C   UNL     1       1.083  10.582  18.786  0.00  0.00    +0.000 A 
ATOM     11  C   UNL     1       0.696  10.474  20.125  0.00  0.00    +0.000 A 
ATOM     12 CL   UNL     1      -0.129  11.815  20.834  0.00  0.00    +0.000 Cl
ATOM     13  C   UNL     1       0.979   9.304  20.841  0.00  0.00    +0.000 A 
ATOM     14 CL   UNL     1       0.522   9.093  22.491  0.00  0.00    +0.000 Cl
ATOM     15  C   UNL     1       1.654   8.253  20.210  0.00  0.00    +0.000 A 
ENDBRANCH   5   8
BRANCH   7  16
ATOM     16  C   UNL     1       3.527   3.824  18.092  0.00  0.00    +0.000 A 
ATOM     17  C   UNL     1       4.285   3.815  19.276  0.00  0.00    +0.000 A 
ATOM     18  C   UNL     1       4.482   2.634  19.995  0.00  0.00    +0.000 A 
ATOM     19  C   UNL     1       3.920   1.442  19.545  0.00  0.00    +0.000 A 
ATOM     20  C   UNL     1       3.173   1.426  18.368  0.00  0.00    +0.000 A 
ATOM     21  C   UNL     1       2.991   2.608  17.649  0.00  0.00    +0.000 A 
BRANCH  21  22
ATOM     22  O   UNL     1       2.287   2.574  16.479  0.00  0.00    +0.000 OA
ATOM     23  H   UNL     1       1.398   2.930  16.643  0.00  0.00    +0.000 HD
ENDBRANCH  21  22
ENDBRANCH   7  16
BRANCH   1  27
ATOM     24  N   UNL     1       7.824   8.592  17.736  0.00  0.00    +0.000 N 
ATOM     25  C   UNL     1       8.428   7.771  18.631  0.00  0.00    +0.000 A 
ATOM     26  C   UNL     1       7.773   6.550  18.527  0.00  0.00    +0.000 A 
ATOM     27  C   UNL     1       6.781   6.735  17.522  0.00  0.00    +0.000 A 
ATOM     28  N   UNL     1       6.824   8.010  17.070  0.00  0.00    +0.000 NA
BRANCH  26  29
ATOM     29  N   UNL     1       8.095   5.396  19.310  0.00  0.00    +0.000 N 
ATOM     30  O   UNL     1       8.523   4.409  18.692  0.00  0.00    +0.000 OA
ATOM     31  O   UNL     1       7.882   5.435  20.525  0.00  0.00    +0.000 OA
ENDBRANCH  26  29
BRANCH  24  33
ATOM     32  C   UNL     1       9.187  10.550  18.410  0.00  0.00    +0.000 C 
ATOM     33  C   UNL     1       8.066  10.010  17.542  0.00  0.00    +0.000 C 
ENDBRANCH  24  33
ENDBRANCH   1  27
TORSDOF 6
ENDMDL
MODEL 3
REMARK VINA RESULT:      -8.3      0.591      1.277
REMARK  Name = 
REMARK  7 active torsions:
REMARK  status: ('A' for Active; 'I' for Inactive)
REMARK    1  A    between atoms: C_1  and  C_2
REMARK    2  A    between atoms: C_2  and  N_3
REMARK    3  A    between atoms: C_5  and  N_6
REMARK    4  A    between atoms: C_9  and  C_10
REMARK    5  A    between atoms: C_14  and  C_15
REMARK    6  A    between atoms: C_24  and  C_25
REMARK    7  A    between atoms: C_30  and  O_31
REMARK                            x       y       z     vdW  Elec       q    Type
REMARK                         _______ _______ _______ _____ _____    ______ ____
ROOT
ATOM      1  C   UNL     1       5.464   5.921  16.981  0.00  0.00    +0.000 C 
ATOM      2  O   UNL     1       5.672   4.951  16.251  0.00  0.00    +0.000 OA
ATOM      3  N   UNL     1       4.193   6.199  17.491  0.00  0.00    +0.000 N 
ATOM      4  N   UNL     1       3.872   7.399  18.070  0.00  0.00    +0.000 NA
ATOM      5  C   UNL     1       2.641   7.318  18.465  0.00  0.00    +0.000 C 
ATOM      6  C   UNL     1       1.922   6.051  18.092  0.00  0.00    +0.000 C 
ATOM      7  C   UNL     1       3.051   5.293  17.389  0.00  0.00    +0.000 C 
ENDROOT
BRANCH   5   8
ATOM      8  C   UNL     1       1.990   8.412  19.221  0.00  0.00    +0.000 A 
ATOM      9  C   UNL     1       1.578   8.245  20.544  0.00  0.00    +0.000 A 
ATOM     10  C   UNL     1       0.960   9.305  21.217  0.00  0.00    +0.000 A 
ATOM     11  C   UNL     1       0.751  10.528  20.573  0.00  0.00    +0.000 A 
ATOM     12 CL   UNL     1      -0.028  11.783  21.467  0.00  0.00    +0.000 Cl
ATOM     13  C   UNL     1       1.171  10.700  19.249  0.00  0.00    +0.000 A 
ATOM     14 CL   UNL     1       0.958  12.184  18.394  0.00  0.00    +0.000 Cl
ATOM     15  C   UNL     1       1.793   9.642  18.577  0.00  0.00    +0.000 A 
ENDBRANCH   5   8
BRANCH   7  16
ATOM     16  C   UNL     1       3.290   3.916  17.983  0.00  0.00    +0.000 A 
ATOM     17  C   UNL     1       2.756   2.791  17.331  0.00  0.00    +0.000 A 
ATOM     18  C   UNL     1       2.991   1.501  17.814  0.00  0.00    +0.000 A 
ATOM     19  C   UNL     1       3.767   1.315  18.954  0.00  0.00    +0.000 A 
ATOM     20  C   UNL     1       4.298   2.416  19.622  0.00  0.00    +0.000 A 
ATOM     21  C   UNL     1       4.050   3.702  19.141  0.00  0.00    +0.000 A 
BRANCH  21  22
ATOM     22  O   UNL     1       4.546   4.777  19.822  0.00  0.00    +0.000 OA
ATOM     23  H   UNL     1       4.071   4.853  20.667  0.00  0.00    +0.000 HD
ENDBRANCH  21  22
ENDBRANCH   7  16
BRANCH   1  27
ATOM     24  N   UNL     1       7.704   8.598  17.676  0.00  0.00    +0.000 N 
ATOM     25  C   UNL     1       8.293   7.722  18.528  0.00  0.00    +0.000 A 
ATOM     26  C   UNL     1       7.583   6.534  18.402  0.00  0.00    +0.000 A 
ATOM     27  C   UNL     1       6.575   6.795  17.430  0.00  0.00    +0.000 A 
ATOM     28  N   UNL     1       6.663   8.082  17.019  0.00  0.00    +0.000 NA
BRANCH  26  29
ATOM     29  N   UNL     1       7.873   5.342  19.140  0.00  0.00    +0.000 N 
ATOM     30  O   UNL     1       8.273   4.368  18.483  0.00  0.00    +0.000 OA
ATOM     31  O   UNL     1       7.663   5.340  20.356  0.00  0.00    +0.000 OA
ENDBRANCH  26  29
BRANCH  24  33
ATOM     32  C   UNL     1       9.139  10.481  18.410  0.00  0.00    +0.000 C 
ATOM     33  C   UNL     1       8.003  10.009  17.521  0.00  0.00    +0.000 C 
ENDBRANCH  24  33
ENDBRANCH   1  27
TORSDOF 6
ENDMDL
MODEL 4
REMARK VINA RESULT:      -8.2      0.935      1.729
REMARK  Name = 
REMARK  7 active torsions:
REMARK  status: ('A' for Active; 'I' for Inactive)
REMARK    1  A    between atoms: C_1  and  C_2
REMARK    2  A    between atoms: C_2  and  N_3
REMARK    3  A    between atoms: C_5  and  N_6
REMARK    4  A    between atoms: C_9  and  C_10
REMARK    5  A    between atoms: C_14  and  C_15
REMARK    6  A    between atoms: C_24  and  C_25
REMARK    7  A    between atoms: C_30  and  O_31
REMARK                            x       y       z     vdW  Elec       q    Type
REMARK                         _______ _______ _______ _____ _____    ______ ____
ROOT
ATOM      1  C   UNL     1       5.551   5.838  17.066  0.00  0.00    +0.000 C 
ATOM      2  O   UNL     1       5.784   4.865  16.349  0.00  0.00    +0.000 OA
ATOM      3  N   UNL     1       4.277   6.084  17.583  0.00  0.00    +0.000 N 
ATOM      4  N   UNL     1       3.922   7.282  18.147  0.00  0.00    +0.000 NA
ATOM      5  C   UNL     1       2.697   7.168  18.553  0.00  0.00    +0.000 C 
ATOM      6  C   UNL     1       2.016   5.873  18.206  0.00  0.00    +0.000 C 
ATOM      7  C   UNL     1       3.162   5.141  17.505  0.00  0.00    +0.000 C 
ENDROOT
BRANCH   5   8
ATOM      8  C   UNL     1       2.018   8.252  19.299  0.00  0.00    +0.000 A 
ATOM      9  C   UNL     1       1.619   8.091  20.627  0.00  0.00    +0.000 A 
ATOM     10  C   UNL     1       0.974   9.140  21.289  0.00  0.00    +0.000 A 
ATOM     11  C   UNL     1       0.723  10.348  20.630  0.00  0.00    +0.000 A 
ATOM     12 CL   UNL     1      -0.087  11.591  21.512  0.00  0.00    +0.000 Cl
ATOM     13  C   UNL     1       1.130  10.514  19.301  0.00  0.00    +0.000 A 
ATOM     14 CL   UNL     1       0.868  11.979  18.427  0.00  0.00    +0.000 Cl
ATOM     15  C   UNL     1       1.780   9.466  18.640  0.00  0.00    +0.000 A 
ENDBRANCH   5   8
BRANCH   7  16
ATOM     16  C   UNL     1       3.451   3.781  18.117  0.00  0.00    +0.000 A 
ATOM     17  C   UNL     1       4.216   3.712  19.294  0.00  0.00    +0.000 A 
ATOM     18  C   UNL     1       4.468   2.487  19.918  0.00  0.00    +0.000 A 
ATOM     19  C   UNL     1       3.954   1.312  19.377  0.00  0.00    +0.000 A 
ATOM     20  C   UNL     1       3.202   1.356  18.205  0.00  0.00    +0.000 A 
ATOM     21  C   UNL     1       2.965   2.581  17.581  0.00  0.00    +0.000 A 
BRANCH  21  22
ATOM     22  O   UNL     1       2.256   2.609  16.414  0.00  0.00    +0.000 OA
ATOM     23  H   UNL     1       2.397   3.469  15.986  0.00  0.00    +0.000 HD
ENDBRANCH  21  22
ENDBRANCH   7  16
BRANCH   1  27
ATOM     24  N   UNL     1       7.711   8.595  17.699  0.00  0.00    +0.000 N 
ATOM     25  C   UNL     1       8.333   7.753  18.562  0.00  0.00    +0.000 A 
ATOM     26  C   UNL     1       7.659   6.542  18.462  0.00  0.00    +0.000 A 
ATOM     27  C   UNL     1       6.637   6.754  17.493  0.00  0.00    +0.000 A 
ATOM     28  N   UNL     1       6.683   8.036  17.058  0.00  0.00    +0.000 NA
BRANCH  26  29
ATOM     29  N   UNL     1       7.991   5.372  19.218  0.00  0.00    +0.000 N 
ATOM     30  O   UNL     1       8.333   4.372  18.568  0.00  0.00    +0.000 OA
ATOM     31  O   UNL     1       7.869   5.414  20.445  0.00  0.00    +0.000 OA
ENDBRANCH  26  29
BRANCH  24  33
ATOM     32  C   UNL     1       9.112  10.528  18.368  0.00  0.00    +0.000 C 
ATOM     33  C   UNL     1       7.965  10.012  17.518  0.00  0.00    +0.000 C 
ENDBRANCH  24  33
ENDBRANCH   1  27
TORSDOF 6
ENDMDL
MODEL 5
REMARK VINA RESULT:      -8.0      1.265      1.759
REMARK  Name = 
REMARK  7 active torsions:
REMARK  status: ('A' for Active; 'I' for Inactive)
REMARK    1  A    between atoms: C_1  and  C_2
REMARK    2  A    between atoms: C_2  and  N_3
REMARK    3  A    between atoms: C_5  and  N_6
REMARK    4  A    between atoms: C_9  and  C_10
REMARK    5  A    between atoms: C_14  and  C_15
REMARK    6  A    between atoms: C_24  and  C_25
REMARK    7  A    between atoms: C_30  and  O_31
REMARK                            x       y       z     vdW  Elec       q    Type
REMARK                         _______ _______ _______ _____ _____    ______ ____
ROOT
ATOM      1  C   UNL     1       5.039   5.964  17.302  0.00  0.00    +0.000 C 
ATOM      2  O   UNL     1       5.095   4.803  16.898  0.00  0.00    +0.000 OA
ATOM      3  N   UNL     1       3.822   6.578  17.609  0.00  0.00    +0.000 N 
ATOM      4  N   UNL     1       3.697   7.930  17.794  0.00  0.00    +0.000 NA
ATOM      5  C   UNL     1       2.459   8.165  18.097  0.00  0.00    +0.000 C 
ATOM      6  C   UNL     1       1.542   6.974  18.046  0.00  0.00    +0.000 C 
ATOM      7  C   UNL     1       2.542   5.875  17.681  0.00  0.00    +0.000 C 
ENDROOT
BRANCH   5   8
ATOM      8  C   UNL     1       1.987   9.522  18.455  0.00  0.00    +0.000 A 
ATOM      9  C   UNL     1       2.520  10.665  17.858  0.00  0.00    +0.000 A 
ATOM     10  C   UNL     1       2.048  11.928  18.233  0.00  0.00    +0.000 A 
ATOM     11  C   UNL     1       1.048  12.052  19.202  0.00  0.00    +0.000 A 
ATOM     12 CL   UNL     1       0.526  13.644  19.619  0.00  0.00    +0.000 Cl
ATOM     13  C   UNL     1       0.506  10.906  19.796  0.00  0.00    +0.000 A 
ATOM     14 CL   UNL     1      -0.738  10.979  20.989  0.00  0.00    +0.000 Cl
ATOM     15  C   UNL     1       0.975   9.642  19.417  0.00  0.00    +0.000 A 
ENDBRANCH   5   8
BRANCH   7  16
ATOM     16  C   UNL     1       2.520   4.714  18.660  0.00  0.00    +0.000 A 
ATOM     17  C   UNL     1       2.578   4.984  20.038  0.00  0.00    +0.000 A 
ATOM     18  C   UNL     1       2.514   3.951  20.976  0.00  0.00    +0.000 A 
ATOM     19  C   UNL     1       2.387   2.631  20.552  0.00  0.00    +0.000 A 
ATOM     20  C   UNL     1       2.339   2.340  19.190  0.00  0.00    +0.000 A 
ATOM     21  C   UNL     1       2.415   3.375  18.258  0.00  0.00    +0.000 A 
BRANCH  21  22
ATOM     22  O   UNL     1       2.403   3.076  16.926  0.00  0.00    +0.000 OA
ATOM     23  H   UNL     1       2.052   3.841  16.440  0.00  0.00    +0.000 HD
ENDBRANCH  21  22
ENDBRANCH   7  16
BRANCH   1  27
ATOM     24  N   UNL     1       7.558   8.454  17.641  0.00  0.00    +0.000 N 
ATOM     25  C   UNL     1       8.211   7.520  18.376  0.00  0.00    +0.000 A 
ATOM     26  C   UNL     1       7.402   6.391  18.358  0.00  0.00    +0.000 A 
ATOM     27  C   UNL     1       6.271   6.745  17.569  0.00  0.00    +0.000 A 
ATOM     28  N   UNL     1       6.387   8.030  17.160  0.00  0.00    +0.000 NA
BRANCH  26  29
ATOM     29  N   UNL     1       7.719   5.165  19.027  0.00  0.00    +0.000 N 
ATOM     30  O   UNL     1       7.657   5.179  20.266  0.00  0.00    +0.000 OA
ATOM     31  O   UNL     1       8.079   4.202  18.345  0.00  0.00    +0.000 OA
ENDBRANCH  26  29
BRANCH  24  33
ATOM     32  C   UNL     1       9.013  10.308  18.411  0.00  0.00    +0.000 C 
ATOM     33  C   UNL     1       7.934   9.843  17.451  0.00  0.00    +0.000 C 
ENDBRANCH  24  33
ENDBRANCH   1  27
TORSDOF 6
ENDMDL
MODEL 6
REMARK VINA RESULT:      -7.8      1.346      2.100
REMARK  Name = 
REMARK  7 active torsions:
REMARK  status: ('A' for Active; 'I' for Inactive)
REMARK    1  A    between atoms: C_1  and  C_2
REMARK    2  A    between atoms: C_2  and  N_3
REMARK    3  A    between atoms: C_5  and  N_6
REMARK    4  A    between atoms: C_9  and  C_10
REMARK    5  A    between atoms: C_14  and  C_15
REMARK    6  A    between atoms: C_24  and  C_25
REMARK    7  A    between atoms: C_30  and  O_31
REMARK                            x       y       z     vdW  Elec       q    Type
REMARK                         _______ _______ _______ _____ _____    ______ ____
ROOT
ATOM      1  C   UNL     1       5.058   5.954  17.238  0.00  0.00    +0.000 C 
ATOM      2  O   UNL     1       5.142   4.829  16.745  0.00  0.00    +0.000 OA
ATOM      3  N   UNL     1       3.830   6.499  17.623  0.00  0.00    +0.000 N 
ATOM      4  N   UNL     1       3.666   7.827  17.915  0.00  0.00    +0.000 NA
ATOM      5  C   UNL     1       2.430   7.994  18.267  0.00  0.00    +0.000 C 
ATOM      6  C   UNL     1       1.552   6.779  18.149  0.00  0.00    +0.000 C 
ATOM      7  C   UNL     1       2.577   5.746  17.674  0.00  0.00    +0.000 C 
ENDROOT
BRANCH   5   8
ATOM      8  C   UNL     1       1.923   9.302  18.741  0.00  0.00    +0.000 A 
ATOM      9  C   UNL     1       1.015   9.397  19.797  0.00  0.00    +0.000 A 
ATOM     10  C   UNL     1       0.558  10.654  20.207  0.00  0.00    +0.000 A 
ATOM     11  C   UNL     1       1.001  11.815  19.564  0.00  0.00    +0.000 A 
ATOM     12 CL   UNL     1       0.381  13.327  20.120  0.00  0.00    +0.000 Cl
ATOM     13  C   UNL     1       1.917  11.721  18.510  0.00  0.00    +0.000 A 
ATOM     14 CL   UNL     1       2.518  13.108  17.677  0.00  0.00    +0.000 Cl
ATOM     15  C   UNL     1       2.379  10.464  18.104  0.00  0.00    +0.000 A 
ENDBRANCH   5   8
BRANCH   7  16
ATOM     16  C   UNL     1       2.624   4.514  18.561  0.00  0.00    +0.000 A 
ATOM     17  C   UNL     1       2.718   4.680  19.954  0.00  0.00    +0.000 A 
ATOM     18  C   UNL     1       2.716   3.578  20.811  0.00  0.00    +0.000 A 
ATOM     19  C   UNL     1       2.616   2.291  20.291  0.00  0.00    +0.000 A 
ATOM     20  C   UNL     1       2.533   2.102  18.913  0.00  0.00    +0.000 A 
ATOM     21  C   UNL     1       2.546   3.208  18.061  0.00  0.00    +0.000 A 
BRANCH  21  22
ATOM     22  O   UNL     1       2.499   3.010  16.711  0.00  0.00    +0.000 OA
ATOM     23  H   UNL     1       3.147   3.598  16.289  0.00  0.00    +0.000 HD
ENDBRANCH  21  22
ENDBRANCH   7  16
BRANCH   1  27
ATOM     24  N   UNL     1       7.528   8.486  17.628  0.00  0.00    +0.000 N 
ATOM     25  C   UNL     1       8.177   7.565  18.383  0.00  0.00    +0.000 A 
ATOM     26  C   UNL     1       7.387   6.423  18.351  0.00  0.00    +0.000 A 
ATOM     27  C   UNL     1       6.270   6.756  17.532  0.00  0.00    +0.000 A 
ATOM     28  N   UNL     1       6.376   8.041  17.120  0.00  0.00    +0.000 NA
BRANCH  26  29
ATOM     29  N   UNL     1       7.707   5.206  19.033  0.00  0.00    +0.000 N 
ATOM     30  O   UNL     1       7.662   5.237  20.273  0.00  0.00    +0.000 OA
ATOM     31  O   UNL     1       8.054   4.232  18.360  0.00  0.00    +0.000 OA
ENDBRANCH  26  29
BRANCH  24  33
ATOM     32  C   UNL     1       8.959  10.356  18.402  0.00  0.00    +0.000 C 
ATOM     33  C   UNL     1       7.885   9.880  17.441  0.00  0.00    +0.000 C 
ENDBRANCH  24  33
ENDBRANCH   1  27
TORSDOF 6
ENDMDL
MODEL 7
REMARK VINA RESULT:      -7.4      6.038      9.174
REMARK  Name = 
REMARK  7 active torsions:
REMARK  status: ('A' for Active; 'I' for Inactive)
REMARK    1  A    between atoms: C_1  and  C_2
REMARK    2  A    between atoms: C_2  and  N_3
REMARK    3  A    between atoms: C_5  and  N_6
REMARK    4  A    between atoms: C_9  and  C_10
REMARK    5  A    between atoms: C_14  and  C_15
REMARK    6  A    between atoms: C_24  and  C_25
REMARK    7  A    between atoms: C_30  and  O_31
REMARK                            x       y       z     vdW  Elec       q    Type
REMARK                         _______ _______ _______ _____ _____    ______ ____
ROOT
ATOM      1  C   UNL     1       0.716  13.648  21.653  0.00  0.00    +0.000 C 
ATOM      2  O   UNL     1       0.177  14.329  22.526  0.00  0.00    +0.000 OA
ATOM      3  N   UNL     1       0.489  12.273  21.547  0.00  0.00    +0.000 N 
ATOM      4  N   UNL     1       1.268  11.449  20.778  0.00  0.00    +0.000 NA
ATOM      5  C   UNL     1       0.773  10.255  20.870  0.00  0.00    +0.000 C 
ATOM      6  C   UNL     1      -0.375  10.101  21.830  0.00  0.00    +0.000 C 
ATOM      7  C   UNL     1      -0.533  11.549  22.301  0.00  0.00    +0.000 C 
ENDROOT
BRANCH   5   8
ATOM      8  C   UNL     1       1.315   9.122  20.087  0.00  0.00    +0.000 A 
ATOM      9  C   UNL     1       1.649   9.255  18.738  0.00  0.00    +0.000 A 
ATOM     10  C   UNL     1       2.153   8.155  18.036  0.00  0.00    +0.000 A 
ATOM     11  C   UNL     1       2.322   6.923  18.675  0.00  0.00    +0.000 A 
ATOM     12 CL   UNL     1       2.938   5.610  17.739  0.00  0.00    +0.000 Cl
ATOM     13  C   UNL     1       1.996   6.789  20.030  0.00  0.00    +0.000 A 
ATOM     14 CL   UNL     1       2.190   5.306  20.890  0.00  0.00    +0.000 Cl
ATOM     15  C   UNL     1       1.497   7.892  20.734  0.00  0.00    +0.000 A 
ENDBRANCH   5   8
BRANCH   7  16
ATOM     16  C   UNL     1      -1.943  12.078  22.108  0.00  0.00    +0.000 A 
ATOM     17  C   UNL     1      -2.719  12.379  23.241  0.00  0.00    +0.000 A 
ATOM     18  C   UNL     1      -4.004  12.912  23.113  0.00  0.00    +0.000 A 
ATOM     19  C   UNL     1      -4.533  13.156  21.848  0.00  0.00    +0.000 A 
ATOM     20  C   UNL     1      -3.786  12.855  20.711  0.00  0.00    +0.000 A 
ATOM     21  C   UNL     1      -2.508  12.312  20.847  0.00  0.00    +0.000 A 
BRANCH  21  22
ATOM     22  O   UNL     1      -1.798  11.988  19.727  0.00  0.00    +0.000 OA
ATOM     23  H   UNL     1      -1.372  12.793  19.387  0.00  0.00    +0.000 HD
ENDBRANCH  21  22
ENDBRANCH   7  16
BRANCH   1  27
ATOM     24  N   UNL     1       3.368  14.861  19.614  0.00  0.00    +0.000 N 
ATOM     25  C   UNL     1       2.392  15.111  18.706  0.00  0.00    +0.000 A 
ATOM     26  C   UNL     1       1.202  14.734  19.315  0.00  0.00    +0.000 A 
ATOM     27  C   UNL     1       1.568  14.270  20.611  0.00  0.00    +0.000 A 
ATOM     28  N   UNL     1       2.912  14.341  20.756  0.00  0.00    +0.000 NA
BRANCH  26  29
ATOM     29  N   UNL     1      -0.084  14.827  18.692  0.00  0.00    +0.000 N 
ATOM     30  O   UNL     1      -0.521  13.790  18.169  0.00  0.00    +0.000 OA
ATOM     31  O   UNL     1      -0.644  15.926  18.667  0.00  0.00    +0.000 OA
ENDBRANCH  26  29
BRANCH  24  33
ATOM     32  C   UNL     1       5.223  14.812  17.969  0.00  0.00    +0.000 C 
ATOM     33  C   UNL     1       4.802  14.976  19.418  0.00  0.00    +0.000 C 
ENDBRANCH  24  33
ENDBRANCH   1  27
TORSDOF 6
ENDMDL
MODEL 8
REMARK VINA RESULT:      -7.4      7.004     10.663
REMARK  Name = 
REMARK  7 active torsions:
REMARK  status: ('A' for Active; 'I' for Inactive)
REMARK    1  A    between atoms: C_1  and  C_2
REMARK    2  A    between atoms: C_2  and  N_3
REMARK    3  A    between atoms: C_5  and  N_6
REMARK    4  A    between atoms: C_9  and  C_10
REMARK    5  A    between atoms: C_14  and  C_15
REMARK    6  A    between atoms: C_24  and  C_25
REMARK    7  A    between atoms: C_30  and  O_31
REMARK                            x       y       z     vdW  Elec       q    Type
REMARK                         _______ _______ _______ _____ _____    ______ ____
ROOT
ATOM      1  C   UNL     1      -0.766  14.927  22.477  0.00  0.00    +0.000 C 
ATOM      2  O   UNL     1      -1.392  15.643  23.259  0.00  0.00    +0.000 OA
ATOM      3  N   UNL     1      -0.853  13.533  22.524  0.00  0.00    +0.000 N 
ATOM      4  N   UNL     1       0.023  12.712  21.865  0.00  0.00    +0.000 NA
ATOM      5  C   UNL     1      -0.353  11.492  22.085  0.00  0.00    +0.000 C 
ATOM      6  C   UNL     1      -1.504  11.330  23.039  0.00  0.00    +0.000 C 
ATOM      7  C   UNL     1      -1.817  12.797  23.340  0.00  0.00    +0.000 C 
ENDROOT
BRANCH   5   8
ATOM      8  C   UNL     1       0.320  10.339  21.444  0.00  0.00    +0.000 A 
ATOM      9  C   UNL     1       0.655   9.192  22.164  0.00  0.00    +0.000 A 
ATOM     10  C   UNL     1       1.297   8.129  21.518  0.00  0.00    +0.000 A 
ATOM     11  C   UNL     1       1.606   8.210  20.157  0.00  0.00    +0.000 A 
ATOM     12 CL   UNL     1       2.408   6.863  19.434  0.00  0.00    +0.000 Cl
ATOM     13  C   UNL     1       1.263   9.357  19.431  0.00  0.00    +0.000 A 
ATOM     14 CL   UNL     1       1.601   9.524  17.747  0.00  0.00    +0.000 Cl
ATOM     15  C   UNL     1       0.616  10.417  20.076  0.00  0.00    +0.000 A 
ENDBRANCH   5   8
BRANCH   7  16
ATOM     16  C   UNL     1      -3.268  13.156  23.068  0.00  0.00    +0.000 A 
ATOM     17  C   UNL     1      -3.855  12.749  21.857  0.00  0.00    +0.000 A 
ATOM     18  C   UNL     1      -5.198  13.015  21.584  0.00  0.00    +0.000 A 
ATOM     19  C   UNL     1      -5.979  13.688  22.519  0.00  0.00    +0.000 A 
ATOM     20  C   UNL     1      -5.416  14.110  23.722  0.00  0.00    +0.000 A 
ATOM     21  C   UNL     1      -4.070  13.851  23.983  0.00  0.00    +0.000 A 
BRANCH  21  22
ATOM     22  O   UNL     1      -3.519  14.298  25.150  0.00  0.00    +0.000 OA
ATOM     23  H   UNL     1      -2.555  14.351  25.037  0.00  0.00    +0.000 HD
ENDBRANCH  21  22
ENDBRANCH   7  16
BRANCH   1  27
ATOM     24  N   UNL     1       0.457  16.478  19.516  0.00  0.00    +0.000 N 
ATOM     25  C   UNL     1       1.651  16.483  20.159  0.00  0.00    +0.000 A 
ATOM     26  C   UNL     1       1.426  15.868  21.383  0.00  0.00    +0.000 A 
ATOM     27  C   UNL     1       0.046  15.513  21.383  0.00  0.00    +0.000 A 
ATOM     28  N   UNL     1      -0.527  15.922  20.227  0.00  0.00    +0.000 NA
BRANCH  26  29
ATOM     29  N   UNL     1       2.433  15.673  22.382  0.00  0.00    +0.000 N 
ATOM     30  O   UNL     1       2.969  14.554  22.417  0.00  0.00    +0.000 OA
ATOM     31  O   UNL     1       2.665  16.596  23.167  0.00  0.00    +0.000 OA
ENDBRANCH  26  29
BRANCH  24  33
ATOM     32  C   UNL     1      -1.222  17.782  18.240  0.00  0.00    +0.000 C 
ATOM     33  C   UNL     1       0.138  17.107  18.248  0.00  0.00    +0.000 C 
ENDBRANCH  24  33
ENDBRANCH   1  27
TORSDOF 6
ENDMDL
MODEL 9
REMARK VINA RESULT:      -7.3      7.769     12.202
REMARK  Name = 
REMARK  7 active torsions:
REMARK  status: ('A' for Active; 'I' for Inactive)
REMARK    1  A    between atoms: C_1  and  C_2
REMARK    2  A    between atoms: C_2  and  N_3
REMARK    3  A    between atoms: C_5  and  N_6
REMARK    4  A    between atoms: C_9  and  C_10
REMARK    5  A    between atoms: C_14  and  C_15
REMARK    6  A    between atoms: C_24  and  C_25
REMARK    7  A    between atoms: C_30  and  O_31
REMARK                            x       y       z     vdW  Elec       q    Type
REMARK                         _______ _______ _______ _____ _____    ______ ____
ROOT
ATOM      1  C   UNL     1      -4.801  13.363  20.364  0.00  0.00    +0.000 C 
ATOM      2  O   UNL     1      -5.321  14.440  20.658  0.00  0.00    +0.000 OA
ATOM      3  N   UNL     1      -3.419  13.173  20.424  0.00  0.00    +0.000 N 
ATOM      4  N   UNL     1      -2.791  12.098  19.852  0.00  0.00    +0.000 NA
ATOM      5  C   UNL     1      -1.527  12.203  20.118  0.00  0.00    +0.000 C 
ATOM      6  C   UNL     1      -1.118  13.461  20.834  0.00  0.00    +0.000 C 
ATOM      7  C   UNL     1      -2.483  14.128  21.017  0.00  0.00    +0.000 C 
ENDROOT
BRANCH   5   8
ATOM      8  C   UNL     1      -0.557  11.156  19.727  0.00  0.00    +0.000 A 
ATOM      9  C   UNL     1      -0.092  11.038  18.416  0.00  0.00    +0.000 A 
ATOM     10  C   UNL     1       0.820  10.028  18.091  0.00  0.00    +0.000 A 
ATOM     11  C   UNL     1       1.266   9.134  19.069  0.00  0.00    +0.000 A 
ATOM     12 CL   UNL     1       2.382   7.908  18.588  0.00  0.00    +0.000 Cl
ATOM     13  C   UNL     1       0.807   9.255  20.386  0.00  0.00    +0.000 A 
ATOM     14 CL   UNL     1       1.322   8.198  21.649  0.00  0.00    +0.000 Cl
ATOM     15  C   UNL     1      -0.101  10.269  20.713  0.00  0.00    +0.000 A 
ENDBRANCH   5   8
BRANCH   7  16
ATOM     16  C   UNL     1      -2.777  14.474  22.466  0.00  0.00    +0.000 A 
ATOM     17  C   UNL     1      -3.170  13.450  23.345  0.00  0.00    +0.000 A 
ATOM     18  C   UNL     1      -3.406  13.713  24.696  0.00  0.00    +0.000 A 
ATOM     19  C   UNL     1      -3.248  15.004  25.192  0.00  0.00    +0.000 A 
ATOM     20  C   UNL     1      -2.870  16.036  24.337  0.00  0.00    +0.000 A 
ATOM     21  C   UNL     1      -2.648  15.769  22.985  0.00  0.00    +0.000 A 
BRANCH  21  22
ATOM     22  O   UNL     1      -2.311  16.794  22.149  0.00  0.00    +0.000 OA
ATOM     23  H   UNL     1      -2.803  16.690  21.318  0.00  0.00    +0.000 HD
ENDBRANCH  21  22
ENDBRANCH   7  16
BRANCH   1  27
ATOM     24  N   UNL     1      -7.005  10.570  20.309  0.00  0.00    +0.000 N 
ATOM     25  C   UNL     1      -6.857  10.634  18.962  0.00  0.00    +0.000 A 
ATOM     26  C   UNL     1      -5.970  11.678  18.728  0.00  0.00    +0.000 A 
ATOM     27  C   UNL     1      -5.627  12.182  20.015  0.00  0.00    +0.000 A 
ATOM     28  N   UNL     1      -6.299  11.492  20.967  0.00  0.00    +0.000 NA
BRANCH  26  29
ATOM     29  N   UNL     1      -5.544  12.093  17.426  0.00  0.00    +0.000 N 
ATOM     30  O   UNL     1      -6.149  13.053  16.925  0.00  0.00    +0.000 OA
ATOM     31  O   UNL     1      -4.651  11.448  16.869  0.00  0.00    +0.000 OA
ENDBRANCH  26  29
BRANCH  24  33
ATOM     32  C   UNL     1      -7.745   8.244  20.745  0.00  0.00    +0.000 C 
ATOM     33  C   UNL     1      -7.916   9.720  21.053  0.00  0.00    +0.000 C 
ENDBRANCH  24  33
ENDBRANCH   1  27
TORSDOF 6
ENDMDL
