MODEL 1
REMARK VINA RESULT:      -8.2      0.000      0.000
REMARK  Name = 
REMARK  6 active torsions:
REMARK  status: ('A' for Active; 'I' for Inactive)
REMARK    1  A    between atoms: C_1  and  C_2
REMARK    2  A    between atoms: C_2  and  C_3
REMARK    3  A    between atoms: C_3  and  O_4
REMARK    4  A    between atoms: C_20  and  N_21
REMARK    5  A    between atoms: C_22  and  C_24
REMARK    6  A    between atoms: C_24  and  N_25
REMARK                            x       y       z     vdW  Elec       q    Type
REMARK                         _______ _______ _______ _____ _____    ______ ____
ROOT
ATOM      1  C   UNL     1      -1.653  12.845  19.941  0.00  0.00    +0.000 C 
ATOM      2  C   UNL     1      -0.917  14.219  20.049  0.00  0.00    +0.000 C 
ATOM      3  O   UNL     1      -0.667  14.843  21.075  0.00  0.00    +0.000 OA
ATOM      4  O   UNL     1      -0.233  14.484  18.906  0.00  0.00    +0.000 OA
ATOM      5  C   UNL     1       1.006  13.856  19.214  0.00  0.00    +0.000 C 
ATOM      6  C   UNL     1       0.768  12.393  19.476  0.00  0.00    +0.000 A 
ATOM      7  C   UNL     1      -0.338  11.821  20.039  0.00  0.00    +0.000 A 
ATOM      8  C   UNL     1      -0.188  10.264  20.229  0.00  0.00    +0.000 A 
ATOM      9  C   UNL     1       0.833   9.530  19.621  0.00  0.00    +0.000 A 
ATOM     10  N   UNL     1       1.586  10.278  18.727  0.00  0.00    +0.000 N 
ATOM     11  C   UNL     1       1.670  11.605  18.618  0.00  0.00    +0.000 A 
ATOM     12  O   UNL     1       2.409  12.154  17.807  0.00  0.00    +0.000 OA
ATOM     13  C   UNL     1       2.370   9.529  17.798  0.00  0.00    +0.000 C 
ATOM     14  C   UNL     1       2.367   8.203  18.404  0.00  0.00    +0.000 A 
ATOM     15  C   UNL     1       3.206   7.209  17.939  0.00  0.00    +0.000 A 
ATOM     16  C   UNL     1       3.194   5.968  18.523  0.00  0.00    +0.000 A 
ATOM     17  C   UNL     1       3.972   4.898  17.959  0.00  0.00    +0.000 A 
ATOM     18  C   UNL     1       4.191   3.773  18.740  0.00  0.00    +0.000 A 
ATOM     19  C   UNL     1       3.600   3.699  19.999  0.00  0.00    +0.000 A 
ATOM     20  C   UNL     1       2.744   4.732  20.467  0.00  0.00    +0.000 A 
ATOM     21  C   UNL     1       2.460   5.912  19.753  0.00  0.00    +0.000 A 
ATOM     22  N   UNL     1       1.591   6.960  20.222  0.00  0.00    +0.000 NA
ATOM     23  C   UNL     1       1.503   8.096  19.482  0.00  0.00    +0.000 A 
ENDROOT
BRANCH  17  24
ATOM     24  N   UNL     1       4.571   4.862  16.652  0.00  0.00    +0.000 N 
ATOM     25  C   UNL     1       5.899   5.068  16.298  0.00  0.00    +0.000 C 
ATOM     26  O   UNL     1       6.817   5.362  17.055  0.00  0.00    +0.000 OA
ATOM     27  H   UNL     1       3.950   4.931  15.847  0.00  0.00    +0.000 HD
BRANCH  25  28
ATOM     28  C   UNL     1       6.178   4.967  14.787  0.00  0.00    +0.000 C 
BRANCH  28  29
ATOM     29  N   UNL     1       7.553   5.373  14.427  0.00  0.00    +0.000 NA
ATOM     30  H   UNL     1       7.637   6.380  14.580  0.00  0.00    +0.000 HD
ATOM     31  H   UNL     1       7.640   5.264  13.412  0.00  0.00    +0.000 HD
ENDBRANCH  28  29
ENDBRANCH  25  28
ENDBRANCH  17  24
BRANCH   1  33
ATOM     32  C   UNL     1      -3.757  12.688  21.831  0.00  0.00    +0.000 C 
ATOM     33  C   UNL     1      -3.057  13.335  20.597  0.00  0.00    +0.000 C 
ENDBRANCH   1  33
BRANCH   1  34
ATOM     34  O   UNL     1      -2.089  12.425  18.617  0.00  0.00    +0.000 OA
ATOM     35  H   UNL     1      -2.543  13.147  18.157  0.00  0.00    +0.000 HD
ENDBRANCH   1  34
TORSDOF 5
ENDMDL
MODEL 2
REMARK VINA RESULT:      -7.6      3.405      5.217
REMARK  Name = 
REMARK  6 active torsions:
REMARK  status: ('A' for Active; 'I' for Inactive)
REMARK    1  A    between atoms: C_1  and  C_2
REMARK    2  A    between atoms: C_2  and  C_3
REMARK    3  A    between atoms: C_3  and  O_4
REMARK    4  A    between atoms: C_20  and  N_21
REMARK    5  A    between atoms: C_22  and  C_24
REMARK    6  A    between atoms: C_24  and  N_25
REMARK                            x       y       z     vdW  Elec       q    Type
REMARK                         _______ _______ _______ _____ _____    ______ ____
ROOT
ATOM      1  C   UNL     1      -1.586  15.320  23.218  0.00  0.00    +0.000 C 
ATOM      2  C   UNL     1      -3.085  15.269  23.653  0.00  0.00    +0.000 C 
ATOM      3  O   UNL     1      -4.045  15.738  23.050  0.00  0.00    +0.000 OA
ATOM      4  O   UNL     1      -3.275  14.310  24.595  0.00  0.00    +0.000 OA
ATOM      5  C   UNL     1      -3.536  13.193  23.754  0.00  0.00    +0.000 C 
ATOM      6  C   UNL     1      -2.351  12.961  22.855  0.00  0.00    +0.000 A 
ATOM      7  C   UNL     1      -1.506  13.903  22.338  0.00  0.00    +0.000 A 
ATOM      8  C   UNL     1      -0.428  13.287  21.369  0.00  0.00    +0.000 A 
ATOM      9  C   UNL     1      -0.188  11.913  21.290  0.00  0.00    +0.000 A 
ATOM     10  N   UNL     1      -0.876  11.183  22.249  0.00  0.00    +0.000 N 
ATOM     11  C   UNL     1      -1.924  11.556  22.986  0.00  0.00    +0.000 A 
ATOM     12  O   UNL     1      -2.475  10.801  23.779  0.00  0.00    +0.000 OA
ATOM     13  C   UNL     1      -0.394   9.859  22.484  0.00  0.00    +0.000 C 
ATOM     14  C   UNL     1       0.446   9.635  21.315  0.00  0.00    +0.000 A 
ATOM     15  C   UNL     1       0.938   8.377  21.026  0.00  0.00    +0.000 A 
ATOM     16  C   UNL     1       1.725   8.181  19.919  0.00  0.00    +0.000 A 
ATOM     17  C   UNL     1       2.339   6.902  19.689  0.00  0.00    +0.000 A 
ATOM     18  C   UNL     1       2.849   6.645  18.424  0.00  0.00    +0.000 A 
ATOM     19  C   UNL     1       2.802   7.649  17.460  0.00  0.00    +0.000 A 
ATOM     20  C   UNL     1       2.287   8.937  17.769  0.00  0.00    +0.000 A 
ATOM     21  C   UNL     1       1.748   9.297  19.020  0.00  0.00    +0.000 A 
ATOM     22  N   UNL     1       1.229  10.601  19.338  0.00  0.00    +0.000 NA
ATOM     23  C   UNL     1       0.629  10.773  20.545  0.00  0.00    +0.000 A 
ENDROOT
BRANCH  17  24
ATOM     24  N   UNL     1       2.485   5.830  20.637  0.00  0.00    +0.000 N 
ATOM     25  C   UNL     1       1.820   4.611  20.679  0.00  0.00    +0.000 C 
ATOM     26  O   UNL     1       0.939   4.235  19.914  0.00  0.00    +0.000 OA
ATOM     27  H   UNL     1       2.940   6.043  21.523  0.00  0.00    +0.000 HD
BRANCH  25  28
ATOM     28  C   UNL     1       2.223   3.706  21.858  0.00  0.00    +0.000 C 
BRANCH  28  29
ATOM     29  N   UNL     1       1.455   2.444  21.905  0.00  0.00    +0.000 NA
ATOM     30  H   UNL     1       0.556   2.602  21.444  0.00  0.00    +0.000 HD
ATOM     31  H   UNL     1       1.209   2.280  22.885  0.00  0.00    +0.000 HD
ENDBRANCH  28  29
ENDBRANCH  25  28
ENDBRANCH  17  24
BRANCH   1  33
ATOM     32  C   UNL     1      -1.540  17.859  24.473  0.00  0.00    +0.000 C 
ATOM     33  C   UNL     1      -1.448  16.940  23.218  0.00  0.00    +0.000 C 
ENDBRANCH   1  33
BRANCH   1  34
ATOM     34  O   UNL     1      -0.590  14.950  24.213  0.00  0.00    +0.000 OA
ATOM     35  H   UNL     1      -0.247  14.059  24.046  0.00  0.00    +0.000 HD
ENDBRANCH   1  34
TORSDOF 5
ENDMDL
MODEL 3
REMARK VINA RESULT:      -7.5      2.581      9.547
REMARK  Name = 
REMARK  6 active torsions:
REMARK  status: ('A' for Active; 'I' for Inactive)
REMARK    1  A    between atoms: C_1  and  C_2
REMARK    2  A    between atoms: C_2  and  C_3
REMARK    3  A    between atoms: C_3  and  O_4
REMARK    4  A    between atoms: C_20  and  N_21
REMARK    5  A    between atoms: C_22  and  C_24
REMARK    6  A    between atoms: C_24  and  N_25
REMARK                            x       y       z     vdW  Elec       q    Type
REMARK                         _______ _______ _______ _____ _____    ______ ____
ROOT
ATOM      1  C   UNL     1       3.826   4.673  17.429  0.00  0.00    +0.000 C 
ATOM      2  C   UNL     1       4.433   3.824  18.592  0.00  0.00    +0.000 C 
ATOM      3  O   UNL     1       5.618   3.730  18.896  0.00  0.00    +0.000 OA
ATOM      4  O   UNL     1       3.470   3.486  19.487  0.00  0.00    +0.000 OA
ATOM      5  C   UNL     1       3.536   4.615  20.350  0.00  0.00    +0.000 C 
ATOM      6  C   UNL     1       3.244   5.862  19.557  0.00  0.00    +0.000 A 
ATOM      7  C   UNL     1       3.552   6.102  18.247  0.00  0.00    +0.000 A 
ATOM      8  C   UNL     1       3.160   7.557  17.788  0.00  0.00    +0.000 A 
ATOM      9  C   UNL     1       2.333   8.386  18.548  0.00  0.00    +0.000 A 
ATOM     10  N   UNL     1       1.779   7.746  19.648  0.00  0.00    +0.000 N 
ATOM     11  C   UNL     1       2.162   6.606  20.227  0.00  0.00    +0.000 A 
ATOM     12  O   UNL     1       1.613   6.158  21.227  0.00  0.00    +0.000 OA
ATOM     13  C   UNL     1       0.645   8.387  20.233  0.00  0.00    +0.000 C 
ATOM     14  C   UNL     1       0.725   9.723  19.654  0.00  0.00    +0.000 A 
ATOM     15  C   UNL     1      -0.065  10.751  20.131  0.00  0.00    +0.000 A 
ATOM     16  C   UNL     1       0.025  12.003  19.578  0.00  0.00    +0.000 A 
ATOM     17  C   UNL     1      -0.886  13.038  19.987  0.00  0.00    +0.000 A 
ATOM     18  C   UNL     1      -0.568  14.348  19.659  0.00  0.00    +0.000 A 
ATOM     19  C   UNL     1       0.573  14.597  18.901  0.00  0.00    +0.000 A 
ATOM     20  C   UNL     1       1.381  13.531  18.422  0.00  0.00    +0.000 A 
ATOM     21  C   UNL     1       1.145  12.170  18.700  0.00  0.00    +0.000 A 
ATOM     22  N   UNL     1       1.958  11.086  18.215  0.00  0.00    +0.000 NA
ATOM     23  C   UNL     1       1.685   9.832  18.660  0.00  0.00    +0.000 A 
ENDROOT
BRANCH  17  24
ATOM     24  N   UNL     1      -2.112  12.870  20.719  0.00  0.00    +0.000 N 
ATOM     25  C   UNL     1      -2.296  12.752  22.092  0.00  0.00    +0.000 C 
ATOM     26  O   UNL     1      -1.416  12.732  22.945  0.00  0.00    +0.000 OA
ATOM     27  H   UNL     1      -2.933  12.561  20.200  0.00  0.00    +0.000 HD
BRANCH  25  28
ATOM     28  C   UNL     1      -3.762  12.567  22.524  0.00  0.00    +0.000 C 
BRANCH  28  29
ATOM     29  N   UNL     1      -3.897  12.127  23.929  0.00  0.00    +0.000 NA
ATOM     30  H   UNL     1      -4.317  11.196  23.932  0.00  0.00    +0.000 HD
ATOM     31  H   UNL     1      -4.607  12.725  24.362  0.00  0.00    +0.000 HD
ENDBRANCH  28  29
ENDBRANCH  25  28
ENDBRANCH  17  24
BRANCH   1  33
ATOM     32  C   UNL     1       5.473   4.611  15.125  0.00  0.00    +0.000 C 
ATOM     33  C   UNL     1       4.607   3.917  16.220  0.00  0.00    +0.000 C 
ENDBRANCH   1  33
BRANCH   1  34
ATOM     34  O   UNL     1       2.438   4.419  17.073  0.00  0.00    +0.000 OA
ATOM     35  H   UNL     1       2.379   3.884  16.268  0.00  0.00    +0.000 HD
ENDBRANCH   1  34
TORSDOF 5
ENDMDL
MODEL 4
REMARK VINA RESULT:      -7.4      2.506      9.473
REMARK  Name = 
REMARK  6 active torsions:
REMARK  status: ('A' for Active; 'I' for Inactive)
REMARK    1  A    between atoms: C_1  and  C_2
REMARK    2  A    between atoms: C_2  and  C_3
REMARK    3  A    between atoms: C_3  and  O_4
REMARK    4  A    between atoms: C_20  and  N_21
REMARK    5  A    between atoms: C_22  and  C_24
REMARK    6  A    between atoms: C_24  and  N_25
REMARK                            x       y       z     vdW  Elec       q    Type
REMARK                         _______ _______ _______ _____ _____    ______ ____
ROOT
ATOM      1  C   UNL     1       3.706   4.736  17.526  0.00  0.00    +0.000 C 
ATOM      2  C   UNL     1       4.239   3.874  18.715  0.00  0.00    +0.000 C 
ATOM      3  O   UNL     1       5.407   3.741  19.065  0.00  0.00    +0.000 OA
ATOM      4  O   UNL     1       3.231   3.576  19.575  0.00  0.00    +0.000 OA
ATOM      5  C   UNL     1       3.303   4.708  20.434  0.00  0.00    +0.000 C 
ATOM      6  C   UNL     1       3.085   5.959  19.624  0.00  0.00    +0.000 A 
ATOM      7  C   UNL     1       3.451   6.180  18.326  0.00  0.00    +0.000 A 
ATOM      8  C   UNL     1       3.129   7.645  17.844  0.00  0.00    +0.000 A 
ATOM      9  C   UNL     1       2.303   8.507  18.567  0.00  0.00    +0.000 A 
ATOM     10  N   UNL     1       1.686   7.893  19.649  0.00  0.00    +0.000 N 
ATOM     11  C   UNL     1       2.006   6.745  20.248  0.00  0.00    +0.000 A 
ATOM     12  O   UNL     1       1.404   6.323  21.229  0.00  0.00    +0.000 OA
ATOM     13  C   UNL     1       0.553   8.578  20.186  0.00  0.00    +0.000 C 
ATOM     14  C   UNL     1       0.702   9.906  19.605  0.00  0.00    +0.000 A 
ATOM     15  C   UNL     1      -0.070  10.964  20.045  0.00  0.00    +0.000 A 
ATOM     16  C   UNL     1       0.085  12.208  19.490  0.00  0.00    +0.000 A 
ATOM     17  C   UNL     1      -0.803  13.277  19.858  0.00  0.00    +0.000 A 
ATOM     18  C   UNL     1      -0.428  14.573  19.536  0.00  0.00    +0.000 A 
ATOM     19  C   UNL     1       0.749  14.777  18.821  0.00  0.00    +0.000 A 
ATOM     20  C   UNL     1       1.537  13.680  18.379  0.00  0.00    +0.000 A 
ATOM     21  C   UNL     1       1.243  12.331  18.654  0.00  0.00    +0.000 A 
ATOM     22  N   UNL     1       2.036  11.216  18.206  0.00  0.00    +0.000 NA
ATOM     23  C   UNL     1       1.702   9.975  18.647  0.00  0.00    +0.000 A 
ENDROOT
BRANCH  17  24
ATOM     24  N   UNL     1      -2.062  13.157  20.544  0.00  0.00    +0.000 N 
ATOM     25  C   UNL     1      -3.248  12.592  20.091  0.00  0.00    +0.000 C 
ATOM     26  O   UNL     1      -3.450  12.115  18.980  0.00  0.00    +0.000 OA
ATOM     27  H   UNL     1      -2.212  13.748  21.361  0.00  0.00    +0.000 HD
BRANCH  25  28
ATOM     28  C   UNL     1      -4.409  12.656  21.100  0.00  0.00    +0.000 C 
BRANCH  28  29
ATOM     29  N   UNL     1      -3.974  12.427  22.494  0.00  0.00    +0.000 NA
ATOM     30  H   UNL     1      -4.799  12.202  23.052  0.00  0.00    +0.000 HD
ATOM     31  H   UNL     1      -3.660  13.330  22.861  0.00  0.00    +0.000 HD
ENDBRANCH  28  29
ENDBRANCH  25  28
ENDBRANCH  17  24
BRANCH   1  33
ATOM     32  C   UNL     1       5.489   4.593  15.330  0.00  0.00    +0.000 C 
ATOM     33  C   UNL     1       4.506   3.946  16.351  0.00  0.00    +0.000 C 
ENDBRANCH   1  33
BRANCH   1  34
ATOM     34  O   UNL     1       2.325   4.529  17.119  0.00  0.00    +0.000 OA
ATOM     35  H   UNL     1       1.845   5.370  17.077  0.00  0.00    +0.000 HD
ENDBRANCH   1  34
TORSDOF 5
ENDMDL
MODEL 5
REMARK VINA RESULT:      -7.2      1.303      1.468
REMARK  Name = 
REMARK  6 active torsions:
REMARK  status: ('A' for Active; 'I' for Inactive)
REMARK    1  A    between atoms: C_1  and  C_2
REMARK    2  A    between atoms: C_2  and  C_3
REMARK    3  A    between atoms: C_3  and  O_4
REMARK    4  A    between atoms: C_20  and  N_21
REMARK    5  A    between atoms: C_22  and  C_24
REMARK    6  A    between atoms: C_24  and  N_25
REMARK                            x       y       z     vdW  Elec       q    Type
REMARK                         _______ _______ _______ _____ _____    ______ ____
ROOT
ATOM      1  C   UNL     1      -2.076  12.501  21.857  0.00  0.00    +0.000 C 
ATOM      2  C   UNL     1      -1.336  13.857  22.086  0.00  0.00    +0.000 C 
ATOM      3  O   UNL     1      -1.010  14.347  23.163  0.00  0.00    +0.000 OA
ATOM      4  O   UNL     1      -0.743  14.276  20.939  0.00  0.00    +0.000 OA
ATOM      5  C   UNL     1       0.517  13.629  21.068  0.00  0.00    +0.000 C 
ATOM      6  C   UNL     1       0.303  12.141  21.156  0.00  0.00    +0.000 A 
ATOM      7  C   UNL     1      -0.756  11.488  21.722  0.00  0.00    +0.000 A 
ATOM      8  C   UNL     1      -0.588   9.921  21.696  0.00  0.00    +0.000 A 
ATOM      9  C   UNL     1       0.384   9.284  20.922  0.00  0.00    +0.000 A 
ATOM     10  N   UNL     1       1.066  10.150  20.079  0.00  0.00    +0.000 N 
ATOM     11  C   UNL     1       1.138  11.481  20.136  0.00  0.00    +0.000 A 
ATOM     12  O   UNL     1       1.811  12.139  19.350  0.00  0.00    +0.000 OA
ATOM     13  C   UNL     1       1.777   9.536  19.004  0.00  0.00    +0.000 C 
ATOM     14  C   UNL     1       1.823   8.144  19.431  0.00  0.00    +0.000 A 
ATOM     15  C   UNL     1       2.625   7.228  18.779  0.00  0.00    +0.000 A 
ATOM     16  C   UNL     1       2.660   5.921  19.196  0.00  0.00    +0.000 A 
ATOM     17  C   UNL     1       3.395   4.943  18.441  0.00  0.00    +0.000 A 
ATOM     18  C   UNL     1       3.675   3.729  19.051  0.00  0.00    +0.000 A 
ATOM     19  C   UNL     1       3.183   3.487  20.331  0.00  0.00    +0.000 A 
ATOM     20  C   UNL     1       2.364   4.440  20.993  0.00  0.00    +0.000 A 
ATOM     21  C   UNL     1       2.023   5.699  20.461  0.00  0.00    +0.000 A 
ATOM     22  N   UNL     1       1.191   6.667  21.126  0.00  0.00    +0.000 NA
ATOM     23  C   UNL     1       1.044   7.889  20.549  0.00  0.00    +0.000 A 
ENDROOT
BRANCH  17  24
ATOM     24  N   UNL     1       3.892   5.083  17.099  0.00  0.00    +0.000 N 
ATOM     25  C   UNL     1       5.204   5.009  16.645  0.00  0.00    +0.000 C 
ATOM     26  O   UNL     1       6.204   4.842  17.334  0.00  0.00    +0.000 OA
ATOM     27  H   UNL     1       3.279   5.520  16.412  0.00  0.00    +0.000 HD
BRANCH  25  28
ATOM     28  C   UNL     1       5.366   5.226  15.129  0.00  0.00    +0.000 C 
BRANCH  28  29
ATOM     29  N   UNL     1       6.752   5.561  14.741  0.00  0.00    +0.000 NA
ATOM     30  H   UNL     1       7.334   5.530  15.580  0.00  0.00    +0.000 HD
ATOM     31  H   UNL     1       6.756   6.548  14.468  0.00  0.00    +0.000 HD
ENDBRANCH  28  29
ENDBRANCH  25  28
ENDBRANCH  17  24
BRANCH   1  33
ATOM     32  C   UNL     1      -3.788  12.397  24.111  0.00  0.00    +0.000 C 
ATOM     33  C   UNL     1      -3.427  12.885  22.676  0.00  0.00    +0.000 C 
ENDBRANCH   1  33
BRANCH   1  34
ATOM     34  O   UNL     1      -2.611  12.250  20.527  0.00  0.00    +0.000 OA
ATOM     35  H   UNL     1      -3.089  11.407  20.499  0.00  0.00    +0.000 HD
ENDBRANCH   1  34
TORSDOF 5
ENDMDL
MODEL 6
REMARK VINA RESULT:      -7.2      2.746      9.424
REMARK  Name = 
REMARK  6 active torsions:
REMARK  status: ('A' for Active; 'I' for Inactive)
REMARK    1  A    between atoms: C_1  and  C_2
REMARK    2  A    between atoms: C_2  and  C_3
REMARK    3  A    between atoms: C_3  and  O_4
REMARK    4  A    between atoms: C_20  and  N_21
REMARK    5  A    between atoms: C_22  and  C_24
REMARK    6  A    between atoms: C_24  and  N_25
REMARK                            x       y       z     vdW  Elec       q    Type
REMARK                         _______ _______ _______ _____ _____    ______ ____
ROOT
ATOM      1  C   UNL     1       2.858   4.869  17.971  0.00  0.00    +0.000 C 
ATOM      2  C   UNL     1       3.100   4.036  19.270  0.00  0.00    +0.000 C 
ATOM      3  O   UNL     1       4.182   3.700  19.740  0.00  0.00    +0.000 OA
ATOM      4  O   UNL     1       1.988   4.037  20.050  0.00  0.00    +0.000 OA
ATOM      5  C   UNL     1       2.234   5.208  20.819  0.00  0.00    +0.000 C 
ATOM      6  C   UNL     1       2.352   6.392  19.896  0.00  0.00    +0.000 A 
ATOM      7  C   UNL     1       2.856   6.405  18.626  0.00  0.00    +0.000 A 
ATOM      8  C   UNL     1       2.892   7.851  18.000  0.00  0.00    +0.000 A 
ATOM      9  C   UNL     1       2.216   8.931  18.571  0.00  0.00    +0.000 A 
ATOM     10  N   UNL     1       1.400   8.566  19.633  0.00  0.00    +0.000 N 
ATOM     11  C   UNL     1       1.420   7.440  20.349  0.00  0.00    +0.000 A 
ATOM     12  O   UNL     1       0.667   7.249  21.298  0.00  0.00    +0.000 OA
ATOM     13  C   UNL     1       0.402   9.518  20.003  0.00  0.00    +0.000 C 
ATOM     14  C   UNL     1       0.876  10.724  19.335  0.00  0.00    +0.000 A 
ATOM     15  C   UNL     1       0.316  11.956  19.614  0.00  0.00    +0.000 A 
ATOM     16  C   UNL     1       0.776  13.082  18.980  0.00  0.00    +0.000 A 
ATOM     17  C   UNL     1       0.111  14.341  19.175  0.00  0.00    +0.000 A 
ATOM     18  C   UNL     1       0.778  15.494  18.789  0.00  0.00    +0.000 A 
ATOM     19  C   UNL     1       2.023  15.381  18.176  0.00  0.00    +0.000 A 
ATOM     20  C   UNL     1       2.590  14.108  17.900  0.00  0.00    +0.000 A 
ATOM     21  C   UNL     1       1.995  12.881  18.252  0.00  0.00    +0.000 A 
ATOM     22  N   UNL     1       2.563  11.588  17.972  0.00  0.00    +0.000 NA
ATOM     23  C   UNL     1       1.938  10.492  18.476  0.00  0.00    +0.000 A 
ENDROOT
BRANCH  17  24
ATOM     24  N   UNL     1      -1.193  14.550  19.743  0.00  0.00    +0.000 N 
ATOM     25  C   UNL     1      -1.541  14.739  21.076  0.00  0.00    +0.000 C 
ATOM     26  O   UNL     1      -0.779  14.724  22.036  0.00  0.00    +0.000 OA
ATOM     27  H   UNL     1      -2.002  14.304  19.173  0.00  0.00    +0.000 HD
BRANCH  25  28
ATOM     28  C   UNL     1      -3.051  14.917  21.321  0.00  0.00    +0.000 C 
BRANCH  28  29
ATOM     29  N   UNL     1      -3.881  14.070  20.439  0.00  0.00    +0.000 NA
ATOM     30  H   UNL     1      -4.212  14.647  19.664  0.00  0.00    +0.000 HD
ATOM     31  H   UNL     1      -4.731  13.838  20.961  0.00  0.00    +0.000 HD
ENDBRANCH  28  29
ENDBRANCH  25  28
ENDBRANCH  17  24
BRANCH   1  33
ATOM     32  C   UNL     1       4.941   4.014  16.253  0.00  0.00    +0.000 C 
ATOM     33  C   UNL     1       3.558   3.820  16.945  0.00  0.00    +0.000 C 
ENDBRANCH   1  33
BRANCH   1  34
ATOM     34  O   UNL     1       1.499   4.911  17.450  0.00  0.00    +0.000 OA
ATOM     35  H   UNL     1       0.981   4.158  17.772  0.00  0.00    +0.000 HD
ENDBRANCH   1  34
TORSDOF 5
ENDMDL
MODEL 7
REMARK VINA RESULT:      -7.1      2.224      3.877
REMARK  Name = 
REMARK  6 active torsions:
REMARK  status: ('A' for Active; 'I' for Inactive)
REMARK    1  A    between atoms: C_1  and  C_2
REMARK    2  A    between atoms: C_2  and  C_3
REMARK    3  A    between atoms: C_3  and  O_4
REMARK    4  A    between atoms: C_20  and  N_21
REMARK    5  A    between atoms: C_22  and  C_24
REMARK    6  A    between atoms: C_24  and  N_25
REMARK                            x       y       z     vdW  Elec       q    Type
REMARK                         _______ _______ _______ _____ _____    ______ ____
ROOT
ATOM      1  C   UNL     1       0.721  13.032  19.589  0.00  0.00    +0.000 C 
ATOM      2  C   UNL     1      -0.798  13.019  19.952  0.00  0.00    +0.000 C 
ATOM      3  O   UNL     1      -1.733  13.340  19.225  0.00  0.00    +0.000 OA
ATOM      4  O   UNL     1      -1.019  12.246  21.046  0.00  0.00    +0.000 OA
ATOM      5  C   UNL     1      -1.214  10.986  20.417  0.00  0.00    +0.000 C 
ATOM      6  C   UNL     1       0.022  10.625  19.636  0.00  0.00    +0.000 A 
ATOM      7  C   UNL     1       0.875  11.479  18.994  0.00  0.00    +0.000 A 
ATOM      8  C   UNL     1       2.015  10.726  18.211  0.00  0.00    +0.000 A 
ATOM      9  C   UNL     1       2.285   9.369  18.402  0.00  0.00    +0.000 A 
ATOM     10  N   UNL     1       1.561   8.810  19.446  0.00  0.00    +0.000 N 
ATOM     11  C   UNL     1       0.468   9.283  20.048  0.00  0.00    +0.000 A 
ATOM     12  O   UNL     1      -0.109   8.672  20.940  0.00  0.00    +0.000 OA
ATOM     13  C   UNL     1       2.056   7.567  19.947  0.00  0.00    +0.000 C 
ATOM     14  C   UNL     1       2.962   7.154  18.883  0.00  0.00    +0.000 A 
ATOM     15  C   UNL     1       3.493   5.879  18.858  0.00  0.00    +0.000 A 
ATOM     16  C   UNL     1       4.340   5.504  17.847  0.00  0.00    +0.000 A 
ATOM     17  C   UNL     1       4.991   4.223  17.890  0.00  0.00    +0.000 A 
ATOM     18  C   UNL     1       5.572   3.751  16.722  0.00  0.00    +0.000 A 
ATOM     19  C   UNL     1       5.557   4.556  15.586  0.00  0.00    +0.000 A 
ATOM     20  C   UNL     1       5.002   5.864  15.624  0.00  0.00    +0.000 A 
ATOM     21  C   UNL     1       4.390   6.434  16.757  0.00  0.00    +0.000 A 
ATOM     22  N   UNL     1       3.829   7.759  16.801  0.00  0.00    +0.000 NA
ATOM     23  C   UNL     1       3.162   8.134  17.923  0.00  0.00    +0.000 A 
ENDROOT
BRANCH  17  24
ATOM     24  N   UNL     1       5.107   3.350  19.027  0.00  0.00    +0.000 N 
ATOM     25  C   UNL     1       4.145   2.516  19.584  0.00  0.00    +0.000 C 
ATOM     26  O   UNL     1       2.982   2.400  19.217  0.00  0.00    +0.000 OA
ATOM     27  H   UNL     1       5.886   3.508  19.665  0.00  0.00    +0.000 HD
BRANCH  25  28
ATOM     28  C   UNL     1       4.622   1.731  20.820  0.00  0.00    +0.000 C 
BRANCH  28  29
ATOM     29  N   UNL     1       5.558   0.638  20.482  0.00  0.00    +0.000 NA
ATOM     30  H   UNL     1       6.155   0.957  19.717  0.00  0.00    +0.000 HD
ATOM     31  H   UNL     1       5.000  -0.115  20.069  0.00  0.00    +0.000 HD
ENDBRANCH  28  29
ENDBRANCH  25  28
ENDBRANCH  17  24
BRANCH   1  33
ATOM     32  C   UNL     1       2.144  15.412  19.010  0.00  0.00    +0.000 C 
ATOM     33  C   UNL     1       0.827  14.627  19.292  0.00  0.00    +0.000 C 
ENDBRANCH   1  33
BRANCH   1  34
ATOM     34  O   UNL     1       1.669  12.882  20.683  0.00  0.00    +0.000 OA
ATOM     35  H   UNL     1       1.281  12.372  21.410  0.00  0.00    +0.000 HD
ENDBRANCH   1  34
TORSDOF 5
ENDMDL
MODEL 8
REMARK VINA RESULT:      -7.1      2.345      4.203
REMARK  Name = 
REMARK  6 active torsions:
REMARK  status: ('A' for Active; 'I' for Inactive)
REMARK    1  A    between atoms: C_1  and  C_2
REMARK    2  A    between atoms: C_2  and  C_3
REMARK    3  A    between atoms: C_3  and  O_4
REMARK    4  A    between atoms: C_20  and  N_21
REMARK    5  A    between atoms: C_22  and  C_24
REMARK    6  A    between atoms: C_24  and  N_25
REMARK                            x       y       z     vdW  Elec       q    Type
REMARK                         _______ _______ _______ _____ _____    ______ ____
ROOT
ATOM      1  C   UNL     1       1.581  14.464  19.105  0.00  0.00    +0.000 C 
ATOM      2  C   UNL     1       0.088  14.916  19.025  0.00  0.00    +0.000 C 
ATOM      3  O   UNL     1      -0.475  15.434  18.066  0.00  0.00    +0.000 OA
ATOM      4  O   UNL     1      -0.641  14.327  20.007  0.00  0.00    +0.000 OA
ATOM      5  C   UNL     1      -1.023  13.130  19.341  0.00  0.00    +0.000 C 
ATOM      6  C   UNL     1       0.213  12.370  18.938  0.00  0.00    +0.000 A 
ATOM      7  C   UNL     1       1.421  12.891  18.568  0.00  0.00    +0.000 A 
ATOM      8  C   UNL     1       2.454  11.783  18.134  0.00  0.00    +0.000 A 
ATOM      9  C   UNL     1       2.245  10.425  18.385  0.00  0.00    +0.000 A 
ATOM     10  N   UNL     1       1.133  10.180  19.178  0.00  0.00    +0.000 N 
ATOM     11  C   UNL     1       0.110  10.992  19.450  0.00  0.00    +0.000 A 
ATOM     12  O   UNL     1      -0.843  10.645  20.140  0.00  0.00    +0.000 OA
ATOM     13  C   UNL     1       1.080   8.891  19.791  0.00  0.00    +0.000 C 
ATOM     14  C   UNL     1       2.075   8.154  19.023  0.00  0.00    +0.000 A 
ATOM     15  C   UNL     1       2.189   6.782  19.141  0.00  0.00    +0.000 A 
ATOM     16  C   UNL     1       3.128   6.102  18.408  0.00  0.00    +0.000 A 
ATOM     17  C   UNL     1       3.331   4.695  18.625  0.00  0.00    +0.000 A 
ATOM     18  C   UNL     1       4.039   3.986  17.665  0.00  0.00    +0.000 A 
ATOM     19  C   UNL     1       4.573   4.671  16.577  0.00  0.00    +0.000 A 
ATOM     20  C   UNL     1       4.443   6.081  16.465  0.00  0.00    +0.000 A 
ATOM     21  C   UNL     1       3.745   6.890  17.382  0.00  0.00    +0.000 A 
ATOM     22  N   UNL     1       3.614   8.319  17.275  0.00  0.00    +0.000 NA
ATOM     23  C   UNL     1       2.811   8.957  18.166  0.00  0.00    +0.000 A 
ENDROOT
BRANCH  17  24
ATOM     24  N   UNL     1       2.868   3.918  19.743  0.00  0.00    +0.000 N 
ATOM     25  C   UNL     1       1.704   3.167  19.858  0.00  0.00    +0.000 C 
ATOM     26  O   UNL     1       0.821   3.059  19.015  0.00  0.00    +0.000 OA
ATOM     27  H   UNL     1       3.291   4.101  20.652  0.00  0.00    +0.000 HD
BRANCH  25  28
ATOM     28  C   UNL     1       1.527   2.472  21.221  0.00  0.00    +0.000 C 
BRANCH  28  29
ATOM     29  N   UNL     1       2.297   3.122  22.303  0.00  0.00    +0.000 NA
ATOM     30  H   UNL     1       2.962   2.441  22.672  0.00  0.00    +0.000 HD
ATOM     31  H   UNL     1       1.646   3.284  23.077  0.00  0.00    +0.000 HD
ENDBRANCH  28  29
ENDBRANCH  25  28
ENDBRANCH  17  24
BRANCH   1  33
ATOM     32  C   UNL     1       3.087  16.353  17.627  0.00  0.00    +0.000 C 
ATOM     33  C   UNL     1       2.233  15.933  18.861  0.00  0.00    +0.000 C 
ENDBRANCH   1  33
BRANCH   1  34
ATOM     34  O   UNL     1       2.108  14.134  20.422  0.00  0.00    +0.000 OA
ATOM     35  H   UNL     1       1.755  14.734  21.096  0.00  0.00    +0.000 HD
ENDBRANCH   1  34
TORSDOF 5
ENDMDL
MODEL 9
REMARK VINA RESULT:      -6.8      1.102      1.142
REMARK  Name = 
REMARK  6 active torsions:
REMARK  status: ('A' for Active; 'I' for Inactive)
REMARK    1  A    between atoms: C_1  and  C_2
REMARK    2  A    between atoms: C_2  and  C_3
REMARK    3  A    between atoms: C_3  and  O_4
REMARK    4  A    between atoms: C_20  and  N_21
REMARK    5  A    between atoms: C_22  and  C_24
REMARK    6  A    between atoms: C_24  and  N_25
REMARK                            x       y       z     vdW  Elec       q    Type
REMARK                         _______ _______ _______ _____ _____    ______ ____
ROOT
ATOM      1  C   UNL     1      -1.749  12.102  19.224  0.00  0.00    +0.000 C 
ATOM      2  C   UNL     1      -1.183  13.523  19.538  0.00  0.00    +0.000 C 
ATOM      3  O   UNL     1      -1.183  14.094  20.624  0.00  0.00    +0.000 OA
ATOM      4  O   UNL     1      -0.337  13.926  18.555  0.00  0.00    +0.000 OA
ATOM      5  C   UNL     1       0.883  13.389  19.052  0.00  0.00    +0.000 C 
ATOM      6  C   UNL     1       0.749  11.896  19.189  0.00  0.00    +0.000 A 
ATOM      7  C   UNL     1      -0.378  11.192  19.508  0.00  0.00    +0.000 A 
ATOM      8  C   UNL     1      -0.111   9.644  19.641  0.00  0.00    +0.000 A 
ATOM      9  C   UNL     1       1.069   9.046  19.193  0.00  0.00    +0.000 A 
ATOM     10  N   UNL     1       1.892   9.918  18.494  0.00  0.00    +0.000 N 
ATOM     11  C   UNL     1       1.863  11.252  18.471  0.00  0.00    +0.000 A 
ATOM     12  O   UNL     1       2.676  11.918  17.840  0.00  0.00    +0.000 OA
ATOM     13  C   UNL     1       2.899   9.307  17.686  0.00  0.00    +0.000 C 
ATOM     14  C   UNL     1       2.918   7.947  18.211  0.00  0.00    +0.000 A 
ATOM     15  C   UNL     1       3.920   7.064  17.857  0.00  0.00    +0.000 A 
ATOM     16  C   UNL     1       3.927   5.790  18.363  0.00  0.00    +0.000 A 
ATOM     17  C   UNL     1       4.895   4.834  17.896  0.00  0.00    +0.000 A 
ATOM     18  C   UNL     1       5.081   3.681  18.644  0.00  0.00    +0.000 A 
ATOM     19  C   UNL     1       4.286   3.469  19.767  0.00  0.00    +0.000 A 
ATOM     20  C   UNL     1       3.263   4.388  20.124  0.00  0.00    +0.000 A 
ATOM     21  C   UNL     1       2.995   5.585  19.432  0.00  0.00    +0.000 A 
ATOM     22  N   UNL     1       1.958   6.517  19.788  0.00  0.00    +0.000 NA
ATOM     23  C   UNL     1       1.891   7.690  19.105  0.00  0.00    +0.000 A 
ENDROOT
BRANCH  17  24
ATOM     24  N   UNL     1       5.718   4.941  16.721  0.00  0.00    +0.000 N 
ATOM     25  C   UNL     1       5.441   4.523  15.425  0.00  0.00    +0.000 C 
ATOM     26  O   UNL     1       4.432   3.938  15.049  0.00  0.00    +0.000 OA
ATOM     27  H   UNL     1       6.712   5.120  16.856  0.00  0.00    +0.000 HD
BRANCH  25  28
ATOM     28  C   UNL     1       6.573   4.787  14.415  0.00  0.00    +0.000 C 
BRANCH  28  29
ATOM     29  N   UNL     1       7.660   5.618  14.974  0.00  0.00    +0.000 NA
ATOM     30  H   UNL     1       8.448   5.005  15.193  0.00  0.00    +0.000 HD
ATOM     31  H   UNL     1       7.341   5.953  15.887  0.00  0.00    +0.000 HD
ENDBRANCH  28  29
ENDBRANCH  25  28
ENDBRANCH  17  24
BRANCH   1  33
ATOM     32  C   UNL     1      -4.555  11.890  18.896  0.00  0.00    +0.000 C 
ATOM     33  C   UNL     1      -3.289  12.420  19.636  0.00  0.00    +0.000 C 
ENDBRANCH   1  33
BRANCH   1  34
ATOM     34  O   UNL     1      -1.899  11.738  17.823  0.00  0.00    +0.000 OA
ATOM     35  H   UNL     1      -2.260  10.843  17.734  0.00  0.00    +0.000 HD
ENDBRANCH   1  34
TORSDOF 5
ENDMDL
