MODEL 1
REMARK VINA RESULT:      -7.6      0.000      0.000
REMARK  Name = 
REMARK  6 active torsions:
REMARK  status: ('A' for Active; 'I' for Inactive)
REMARK    1  A    between atoms: C_1  and  C_2
REMARK    2  A    between atoms: C_7  and  C_8
REMARK    3  A    between atoms: C_9  and  S_10
REMARK    4  A    between atoms: S_10  and  N_13
REMARK    5  A    between atoms: N_16  and  C_17
REMARK    6  A    between atoms: C_17  and  C_18
REMARK                            x       y       z     vdW  Elec       q    Type
REMARK                         _______ _______ _______ _____ _____    ______ ____
ROOT
ATOM      1  S   UNL     1       4.704   4.784  18.844  0.00  0.00    +0.000 S 
ATOM      2  O   UNL     1       4.716   3.353  19.080  0.00  0.00    +0.000 OA
ATOM      3  O   UNL     1       5.128   5.696  19.878  0.00  0.00    +0.000 OA
ENDROOT
BRANCH   1  12
ATOM      4  C   UNL     1       7.022   3.818  11.711  0.00  0.00    +0.000 C 
ATOM      5  C   UNL     1       6.347   3.954  13.050  0.00  0.00    +0.000 C 
ATOM      6  O   UNL     1       5.201   3.551  13.212  0.00  0.00    +0.000 OA
ATOM      7  N   UNL     1       7.152   4.578  13.973  0.00  0.00    +0.000 N 
ATOM      8  C   UNL     1       6.836   4.821  15.282  0.00  0.00    +0.000 A 
ATOM      9  N   UNL     1       7.555   5.641  16.007  0.00  0.00    +0.000 NA
ATOM     10  C   UNL     1       6.971   5.808  17.253  0.00  0.00    +0.000 A 
ATOM     11  C   UNL     1       7.579   6.885  18.086  0.00  0.00    +0.000 C 
ATOM     12  C   UNL     1       5.883   4.977  17.512  0.00  0.00    +0.000 A 
ATOM     13  S   UNL     1       5.548   4.070  16.082  0.00  0.00    +0.000 S 
ATOM     14  H   UNL     1       7.989   5.053  13.666  0.00  0.00    +0.000 HD
ENDBRANCH   1  12
BRANCH   1  15
ATOM     15  N   UNL     1       3.097   5.196  18.455  0.00  0.00    +0.000 NA
ATOM     16  C   UNL     1       2.076   5.291  19.523  0.00  0.00    +0.000 C 
ATOM     17  C   UNL     1       2.114   6.674  20.198  0.00  0.00    +0.000 C 
ATOM     18  N   UNL     1       2.301   7.858  19.330  0.00  0.00    +0.000 NA
ATOM     19  C   UNL     1       3.049   7.618  18.085  0.00  0.00    +0.000 C 
ATOM     20  C   UNL     1       2.860   6.242  17.444  0.00  0.00    +0.000 C 
BRANCH  18  21
ATOM     21  C   UNL     1       1.071   8.624  19.117  0.00  0.00    +0.000 C 
BRANCH  21  22
ATOM     22  C   UNL     1       0.585   9.281  20.393  0.00  0.00    +0.000 A 
ATOM     23  C   UNL     1       0.011   8.512  21.419  0.00  0.00    +0.000 A 
ATOM     24  C   UNL     1      -0.457   9.116  22.587  0.00  0.00    +0.000 A 
ATOM     25  C   UNL     1      -0.346  10.497  22.745  0.00  0.00    +0.000 A 
ATOM     26  C   UNL     1       0.229  11.270  21.738  0.00  0.00    +0.000 A 
ATOM     27  C   UNL     1       0.693  10.666  20.567  0.00  0.00    +0.000 A 
ENDBRANCH  21  22
ENDBRANCH  18  21
ENDBRANCH   1  15
TORSDOF 4
ENDMDL
MODEL 2
REMARK VINA RESULT:      -7.5      2.436      8.935
REMARK  Name = 
REMARK  6 active torsions:
REMARK  status: ('A' for Active; 'I' for Inactive)
REMARK    1  A    between atoms: C_1  and  C_2
REMARK    2  A    between atoms: C_7  and  C_8
REMARK    3  A    between atoms: C_9  and  S_10
REMARK    4  A    between atoms: S_10  and  N_13
REMARK    5  A    between atoms: N_16  and  C_17
REMARK    6  A    between atoms: C_17  and  C_18
REMARK                            x       y       z     vdW  Elec       q    Type
REMARK                         _______ _______ _______ _____ _____    ______ ____
ROOT
ATOM      1  S   UNL     1       2.737   5.936  19.300  0.00  0.00    +0.000 S 
ATOM      2  O   UNL     1       2.506   5.337  20.601  0.00  0.00    +0.000 OA
ATOM      3  O   UNL     1       2.236   5.299  18.107  0.00  0.00    +0.000 OA
ENDROOT
BRANCH   1  12
ATOM      4  C   UNL     1      -1.055  11.255  23.112  0.00  0.00    +0.000 C 
ATOM      5  C   UNL     1      -0.233  10.118  22.565  0.00  0.00    +0.000 C 
ATOM      6  O   UNL     1       0.184   9.238  23.309  0.00  0.00    +0.000 OA
ATOM      7  N   UNL     1      -0.025  10.236  21.211  0.00  0.00    +0.000 N 
ATOM      8  C   UNL     1       0.655   9.349  20.422  0.00  0.00    +0.000 A 
ATOM      9  N   UNL     1       1.019   9.672  19.206  0.00  0.00    +0.000 NA
ATOM     10  C   UNL     1       1.788   8.658  18.656  0.00  0.00    +0.000 A 
ATOM     11  C   UNL     1       2.440   9.003  17.361  0.00  0.00    +0.000 C 
ATOM     12  C   UNL     1       1.866   7.495  19.420  0.00  0.00    +0.000 A 
ATOM     13  S   UNL     1       1.041   7.776  20.910  0.00  0.00    +0.000 S 
ATOM     14  H   UNL     1      -0.235  11.108  20.747  0.00  0.00    +0.000 HD
ENDBRANCH   1  12
BRANCH   1  15
ATOM     15  N   UNL     1       4.426   6.062  19.118  0.00  0.00    +0.000 NA
ATOM     16  C   UNL     1       5.279   4.860  19.259  0.00  0.00    +0.000 C 
ATOM     17  C   UNL     1       5.341   4.072  17.939  0.00  0.00    +0.000 C 
ATOM     18  N   UNL     1       5.459   4.844  16.682  0.00  0.00    +0.000 NA
ATOM     19  C   UNL     1       4.879   6.196  16.714  0.00  0.00    +0.000 C 
ATOM     20  C   UNL     1       4.960   6.930  18.054  0.00  0.00    +0.000 C 
BRANCH  18  21
ATOM     21  C   UNL     1       6.805   4.815  16.105  0.00  0.00    +0.000 C 
BRANCH  21  22
ATOM     22  C   UNL     1       6.775   4.569  14.610  0.00  0.00    +0.000 A 
ATOM     23  C   UNL     1       5.817   3.711  14.047  0.00  0.00    +0.000 A 
ATOM     24  C   UNL     1       5.800   3.465  12.673  0.00  0.00    +0.000 A 
ATOM     25  C   UNL     1       6.737   4.083  11.846  0.00  0.00    +0.000 A 
ATOM     26  C   UNL     1       7.689   4.943  12.393  0.00  0.00    +0.000 A 
ATOM     27  C   UNL     1       7.709   5.185  13.768  0.00  0.00    +0.000 A 
ENDBRANCH  21  22
ENDBRANCH  18  21
ENDBRANCH   1  15
TORSDOF 4
ENDMDL
MODEL 3
REMARK VINA RESULT:      -7.5      0.895      1.383
REMARK  Name = 
REMARK  6 active torsions:
REMARK  status: ('A' for Active; 'I' for Inactive)
REMARK    1  A    between atoms: C_1  and  C_2
REMARK    2  A    between atoms: C_7  and  C_8
REMARK    3  A    between atoms: C_9  and  S_10
REMARK    4  A    between atoms: S_10  and  N_13
REMARK    5  A    between atoms: N_16  and  C_17
REMARK    6  A    between atoms: C_17  and  C_18
REMARK                            x       y       z     vdW  Elec       q    Type
REMARK                         _______ _______ _______ _____ _____    ______ ____
ROOT
ATOM      1  S   UNL     1       4.982   4.701  18.891  0.00  0.00    +0.000 S 
ATOM      2  O   UNL     1       5.125   3.279  19.140  0.00  0.00    +0.000 OA
ATOM      3  O   UNL     1       5.389   5.659  19.889  0.00  0.00    +0.000 OA
ENDROOT
BRANCH   1  12
ATOM      4  C   UNL     1       6.969   3.796  11.650  0.00  0.00    +0.000 C 
ATOM      5  C   UNL     1       6.361   3.899  13.024  0.00  0.00    +0.000 C 
ATOM      6  O   UNL     1       5.268   3.399  13.260  0.00  0.00    +0.000 OA
ATOM      7  N   UNL     1       7.158   4.611  13.889  0.00  0.00    +0.000 N 
ATOM      8  C   UNL     1       6.896   4.853  15.210  0.00  0.00    +0.000 A 
ATOM      9  N   UNL     1       7.579   5.748  15.879  0.00  0.00    +0.000 NA
ATOM     10  C   UNL     1       7.054   5.889  17.154  0.00  0.00    +0.000 A 
ATOM     11  C   UNL     1       7.608   7.033  17.933  0.00  0.00    +0.000 C 
ATOM     12  C   UNL     1       6.061   4.970  17.489  0.00  0.00    +0.000 A 
ATOM     13  S   UNL     1       5.729   4.007  16.096  0.00  0.00    +0.000 S 
ATOM     14  H   UNL     1       7.930   5.153  13.527  0.00  0.00    +0.000 HD
ENDBRANCH   1  12
BRANCH   1  15
ATOM     15  N   UNL     1       3.327   4.975  18.594  0.00  0.00    +0.000 NA
ATOM     16  C   UNL     1       2.406   5.249  19.721  0.00  0.00    +0.000 C 
ATOM     17  C   UNL     1       2.435   6.738  20.106  0.00  0.00    +0.000 C 
ATOM     18  N   UNL     1       2.480   7.732  19.009  0.00  0.00    +0.000 NA
ATOM     19  C   UNL     1       3.119   7.272  17.766  0.00  0.00    +0.000 C 
ATOM     20  C   UNL     1       2.943   5.791  17.428  0.00  0.00    +0.000 C 
BRANCH  18  21
ATOM     21  C   UNL     1       1.197   8.400  18.777  0.00  0.00    +0.000 C 
BRANCH  21  22
ATOM     22  C   UNL     1       1.223   9.847  19.226  0.00  0.00    +0.000 A 
ATOM     23  C   UNL     1       0.748  10.208  20.498  0.00  0.00    +0.000 A 
ATOM     24  C   UNL     1       0.750  11.543  20.906  0.00  0.00    +0.000 A 
ATOM     25  C   UNL     1       1.237  12.529  20.050  0.00  0.00    +0.000 A 
ATOM     26  C   UNL     1       1.718  12.182  18.789  0.00  0.00    +0.000 A 
ATOM     27  C   UNL     1       1.712  10.848  18.378  0.00  0.00    +0.000 A 
ENDBRANCH  21  22
ENDBRANCH  18  21
ENDBRANCH   1  15
TORSDOF 4
ENDMDL
MODEL 4
REMARK VINA RESULT:      -7.4      4.953      7.422
REMARK  Name = 
REMARK  6 active torsions:
REMARK  status: ('A' for Active; 'I' for Inactive)
REMARK    1  A    between atoms: C_1  and  C_2
REMARK    2  A    between atoms: C_7  and  C_8
REMARK    3  A    between atoms: C_9  and  S_10
REMARK    4  A    between atoms: S_10  and  N_13
REMARK    5  A    between atoms: N_16  and  C_17
REMARK    6  A    between atoms: C_17  and  C_18
REMARK                            x       y       z     vdW  Elec       q    Type
REMARK                         _______ _______ _______ _____ _____    ______ ____
ROOT
ATOM      1  S   UNL     1       0.866  10.304  18.610  0.00  0.00    +0.000 S 
ATOM      2  O   UNL     1       2.127  10.858  18.156  0.00  0.00    +0.000 OA
ATOM      3  O   UNL     1      -0.151   9.933  17.656  0.00  0.00    +0.000 OA
ENDROOT
BRANCH   1  12
ATOM      4  C   UNL     1       5.000   3.988  19.076  0.00  0.00    +0.000 C 
ATOM      5  C   UNL     1       4.335   5.316  18.823  0.00  0.00    +0.000 C 
ATOM      6  O   UNL     1       4.680   6.014  17.878  0.00  0.00    +0.000 OA
ATOM      7  N   UNL     1       3.378   5.601  19.768  0.00  0.00    +0.000 N 
ATOM      8  C   UNL     1       2.583   6.715  19.796  0.00  0.00    +0.000 A 
ATOM      9  N   UNL     1       1.889   7.020  20.864  0.00  0.00    +0.000 NA
ATOM     10  C   UNL     1       1.260   8.243  20.688  0.00  0.00    +0.000 A 
ATOM     11  C   UNL     1       0.620   8.796  21.915  0.00  0.00    +0.000 C 
ATOM     12  C   UNL     1       1.364   8.781  19.406  0.00  0.00    +0.000 A 
ATOM     13  S   UNL     1       2.388   7.751  18.473  0.00  0.00    +0.000 S 
ATOM     14  H   UNL     1       3.332   5.053  20.615  0.00  0.00    +0.000 HD
ENDBRANCH   1  12
BRANCH   1  15
ATOM     15  N   UNL     1       0.170  11.467  19.641  0.00  0.00    +0.000 NA
ATOM     16  C   UNL     1       1.013  12.190  20.621  0.00  0.00    +0.000 C 
ATOM     17  C   UNL     1       1.705  13.397  19.964  0.00  0.00    +0.000 C 
ATOM     18  N   UNL     1       0.912  14.214  19.017  0.00  0.00    +0.000 NA
ATOM     19  C   UNL     1      -0.161  13.498  18.310  0.00  0.00    +0.000 C 
ATOM     20  C   UNL     1      -0.851  12.379  19.093  0.00  0.00    +0.000 C 
BRANCH  18  21
ATOM     21  C   UNL     1       0.471  15.492  19.580  0.00  0.00    +0.000 C 
BRANCH  21  22
ATOM     22  C   UNL     1       0.483  16.600  18.547  0.00  0.00    +0.000 A 
ATOM     23  C   UNL     1      -0.707  17.253  18.186  0.00  0.00    +0.000 A 
ATOM     24  C   UNL     1      -0.702  18.259  17.218  0.00  0.00    +0.000 A 
ATOM     25  C   UNL     1       0.495  18.630  16.609  0.00  0.00    +0.000 A 
ATOM     26  C   UNL     1       1.684  17.995  16.965  0.00  0.00    +0.000 A 
ATOM     27  C   UNL     1       1.679  16.985  17.929  0.00  0.00    +0.000 A 
ENDBRANCH  21  22
ENDBRANCH  18  21
ENDBRANCH   1  15
TORSDOF 4
ENDMDL
MODEL 5
REMARK VINA RESULT:      -7.1      2.872      9.190
REMARK  Name = 
REMARK  6 active torsions:
REMARK  status: ('A' for Active; 'I' for Inactive)
REMARK    1  A    between atoms: C_1  and  C_2
REMARK    2  A    between atoms: C_7  and  C_8
REMARK    3  A    between atoms: C_9  and  S_10
REMARK    4  A    between atoms: S_10  and  N_13
REMARK    5  A    between atoms: N_16  and  C_17
REMARK    6  A    between atoms: C_17  and  C_18
REMARK                            x       y       z     vdW  Elec       q    Type
REMARK                         _______ _______ _______ _____ _____    ______ ____
ROOT
ATOM      1  S   UNL     1       2.761   7.379  18.079  0.00  0.00    +0.000 S 
ATOM      2  O   UNL     1       1.956   6.310  17.518  0.00  0.00    +0.000 OA
ATOM      3  O   UNL     1       2.835   8.657  17.416  0.00  0.00    +0.000 OA
ENDROOT
BRANCH   1  12
ATOM      4  C   UNL     1      -1.392  11.573  22.807  0.00  0.00    +0.000 C 
ATOM      5  C   UNL     1      -0.651  10.877  21.696  0.00  0.00    +0.000 C 
ATOM      6  O   UNL     1      -0.599  11.373  20.577  0.00  0.00    +0.000 OA
ATOM      7  N   UNL     1      -0.112   9.681  22.106  0.00  0.00    +0.000 N 
ATOM      8  C   UNL     1       0.641   8.833  21.339  0.00  0.00    +0.000 A 
ATOM      9  N   UNL     1       0.891   7.610  21.734  0.00  0.00    +0.000 NA
ATOM     10  C   UNL     1       1.568   6.920  20.742  0.00  0.00    +0.000 A 
ATOM     11  C   UNL     1       1.714   5.457  20.989  0.00  0.00    +0.000 C 
ATOM     12  C   UNL     1       1.965   7.692  19.651  0.00  0.00    +0.000 A 
ATOM     13  S   UNL     1       1.342   9.287  19.867  0.00  0.00    +0.000 S 
ATOM     14  H   UNL     1      -0.399   9.278  22.987  0.00  0.00    +0.000 HD
ENDBRANCH   1  12
BRANCH   1  15
ATOM     15  N   UNL     1       4.354   6.784  18.179  0.00  0.00    +0.000 NA
ATOM     16  C   UNL     1       4.601   5.397  18.633  0.00  0.00    +0.000 C 
ATOM     17  C   UNL     1       4.458   4.403  17.467  0.00  0.00    +0.000 C 
ATOM     18  N   UNL     1       5.017   4.797  16.154  0.00  0.00    +0.000 NA
ATOM     19  C   UNL     1       5.062   6.245  15.896  0.00  0.00    +0.000 C 
ATOM     20  C   UNL     1       5.309   7.137  17.114  0.00  0.00    +0.000 C 
BRANCH  18  21
ATOM     21  C   UNL     1       6.276   4.122  15.832  0.00  0.00    +0.000 C 
BRANCH  21  22
ATOM     22  C   UNL     1       6.608   4.219  14.357  0.00  0.00    +0.000 A 
ATOM     23  C   UNL     1       7.560   5.145  13.899  0.00  0.00    +0.000 A 
ATOM     24  C   UNL     1       7.853   5.252  12.538  0.00  0.00    +0.000 A 
ATOM     25  C   UNL     1       7.204   4.427  11.622  0.00  0.00    +0.000 A 
ATOM     26  C   UNL     1       6.263   3.498  12.065  0.00  0.00    +0.000 A 
ATOM     27  C   UNL     1       5.966   3.394  13.425  0.00  0.00    +0.000 A 
ENDBRANCH  21  22
ENDBRANCH  18  21
ENDBRANCH   1  15
TORSDOF 4
ENDMDL
MODEL 6
REMARK VINA RESULT:      -7.0      5.865     10.662
REMARK  Name = 
REMARK  6 active torsions:
REMARK  status: ('A' for Active; 'I' for Inactive)
REMARK    1  A    between atoms: C_1  and  C_2
REMARK    2  A    between atoms: C_7  and  C_8
REMARK    3  A    between atoms: C_9  and  S_10
REMARK    4  A    between atoms: S_10  and  N_13
REMARK    5  A    between atoms: N_16  and  C_17
REMARK    6  A    between atoms: C_17  and  C_18
REMARK                            x       y       z     vdW  Elec       q    Type
REMARK                         _______ _______ _______ _____ _____    ______ ____
ROOT
ATOM      1  S   UNL     1      -0.785  12.024  19.241  0.00  0.00    +0.000 S 
ATOM      2  O   UNL     1      -1.609  10.835  19.134  0.00  0.00    +0.000 OA
ATOM      3  O   UNL     1      -0.656  12.923  18.120  0.00  0.00    +0.000 OA
ENDROOT
BRANCH   1  12
ATOM      4  C   UNL     1      -6.714  13.651  23.645  0.00  0.00    +0.000 C 
ATOM      5  C   UNL     1      -5.645  13.124  22.725  0.00  0.00    +0.000 C 
ATOM      6  O   UNL     1      -5.849  12.130  22.039  0.00  0.00    +0.000 OA
ATOM      7  N   UNL     1      -4.490  13.866  22.798  0.00  0.00    +0.000 N 
ATOM      8  C   UNL     1      -3.353  13.658  22.065  0.00  0.00    +0.000 A 
ATOM      9  N   UNL     1      -2.228  14.248  22.385  0.00  0.00    +0.000 NA
ATOM     10  C   UNL     1      -1.204  13.791  21.570  0.00  0.00    +0.000 A 
ATOM     11  C   UNL     1       0.161  14.227  21.981  0.00  0.00    +0.000 C 
ATOM     12  C   UNL     1      -1.607  12.962  20.524  0.00  0.00    +0.000 A 
ATOM     13  S   UNL     1      -3.302  12.681  20.685  0.00  0.00    +0.000 S 
ATOM     14  H   UNL     1      -4.367  14.529  23.551  0.00  0.00    +0.000 HD
ENDBRANCH   1  12
BRANCH   1  15
ATOM     15  N   UNL     1       0.786  11.492  19.626  0.00  0.00    +0.000 NA
ATOM     16  C   UNL     1       1.023  10.709  20.861  0.00  0.00    +0.000 C 
ATOM     17  C   UNL     1       0.730   9.216  20.630  0.00  0.00    +0.000 C 
ATOM     18  N   UNL     1       1.174   8.618  19.351  0.00  0.00    +0.000 NA
ATOM     19  C   UNL     1       1.249   9.546  18.211  0.00  0.00    +0.000 C 
ATOM     20  C   UNL     1       1.647  10.985  18.542  0.00  0.00    +0.000 C 
BRANCH  18  21
ATOM     21  C   UNL     1       2.369   7.781  19.484  0.00  0.00    +0.000 C 
BRANCH  21  22
ATOM     22  C   UNL     1       2.042   6.305  19.379  0.00  0.00    +0.000 A 
ATOM     23  C   UNL     1       2.114   5.644  18.142  0.00  0.00    +0.000 A 
ATOM     24  C   UNL     1       1.792   4.290  18.038  0.00  0.00    +0.000 A 
ATOM     25  C   UNL     1       1.403   3.580  19.173  0.00  0.00    +0.000 A 
ATOM     26  C   UNL     1       1.335   4.224  20.408  0.00  0.00    +0.000 A 
ATOM     27  C   UNL     1       1.652   5.579  20.512  0.00  0.00    +0.000 A 
ENDBRANCH  21  22
ENDBRANCH  18  21
ENDBRANCH   1  15
TORSDOF 4
ENDMDL
MODEL 7
REMARK VINA RESULT:      -7.0      2.033      8.879
REMARK  Name = 
REMARK  6 active torsions:
REMARK  status: ('A' for Active; 'I' for Inactive)
REMARK    1  A    between atoms: C_1  and  C_2
REMARK    2  A    between atoms: C_7  and  C_8
REMARK    3  A    between atoms: C_9  and  S_10
REMARK    4  A    between atoms: S_10  and  N_13
REMARK    5  A    between atoms: N_16  and  C_17
REMARK    6  A    between atoms: C_17  and  C_18
REMARK                            x       y       z     vdW  Elec       q    Type
REMARK                         _______ _______ _______ _____ _____    ______ ____
ROOT
ATOM      1  S   UNL     1       4.986   4.778  18.672  0.00  0.00    +0.000 S 
ATOM      2  O   UNL     1       5.985   4.643  19.715  0.00  0.00    +0.000 OA
ATOM      3  O   UNL     1       4.419   3.605  18.052  0.00  0.00    +0.000 OA
ENDROOT
BRANCH   1  12
ATOM      4  C   UNL     1       0.056  10.429  19.652  0.00  0.00    +0.000 C 
ATOM      5  C   UNL     1       1.071   9.395  19.242  0.00  0.00    +0.000 C 
ATOM      6  O   UNL     1       1.738   9.546  18.225  0.00  0.00    +0.000 OA
ATOM      7  N   UNL     1       1.102   8.330  20.111  0.00  0.00    +0.000 N 
ATOM      8  C   UNL     1       1.936   7.248  20.027  0.00  0.00    +0.000 A 
ATOM      9  N   UNL     1       1.719   6.173  20.744  0.00  0.00    +0.000 NA
ATOM     10  C   UNL     1       2.625   5.182  20.400  0.00  0.00    +0.000 A 
ATOM     11  C   UNL     1       2.339   3.844  20.991  0.00  0.00    +0.000 C 
ATOM     12  C   UNL     1       3.632   5.581  19.522  0.00  0.00    +0.000 A 
ATOM     13  S   UNL     1       3.318   7.212  19.051  0.00  0.00    +0.000 S 
ATOM     14  H   UNL     1       0.363   8.216  20.789  0.00  0.00    +0.000 HD
ENDBRANCH   1  12
BRANCH   1  15
ATOM     15  N   UNL     1       5.705   5.692  17.428  0.00  0.00    +0.000 NA
ATOM     16  C   UNL     1       7.125   5.471  17.070  0.00  0.00    +0.000 C 
ATOM     17  C   UNL     1       7.267   4.294  16.089  0.00  0.00    +0.000 C 
ATOM     18  N   UNL     1       6.266   4.177  15.004  0.00  0.00    +0.000 NA
ATOM     19  C   UNL     1       4.940   4.738  15.305  0.00  0.00    +0.000 C 
ATOM     20  C   UNL     1       4.921   5.971  16.211  0.00  0.00    +0.000 C 
BRANCH  18  21
ATOM     21  C   UNL     1       6.777   4.592  13.695  0.00  0.00    +0.000 C 
BRANCH  21  22
ATOM     22  C   UNL     1       6.500   3.555  12.625  0.00  0.00    +0.000 A 
ATOM     23  C   UNL     1       5.181   3.244  12.257  0.00  0.00    +0.000 A 
ATOM     24  C   UNL     1       4.921   2.274  11.287  0.00  0.00    +0.000 A 
ATOM     25  C   UNL     1       5.980   1.612  10.668  0.00  0.00    +0.000 A 
ATOM     26  C   UNL     1       7.294   1.918  11.019  0.00  0.00    +0.000 A 
ATOM     27  C   UNL     1       7.554   2.884  11.992  0.00  0.00    +0.000 A 
ENDBRANCH  21  22
ENDBRANCH  18  21
ENDBRANCH   1  15
TORSDOF 4
ENDMDL
MODEL 8
REMARK VINA RESULT:      -6.9      5.770     10.684
REMARK  Name = 
REMARK  6 active torsions:
REMARK  status: ('A' for Active; 'I' for Inactive)
REMARK    1  A    between atoms: C_1  and  C_2
REMARK    2  A    between atoms: C_7  and  C_8
REMARK    3  A    between atoms: C_9  and  S_10
REMARK    4  A    between atoms: S_10  and  N_13
REMARK    5  A    between atoms: N_16  and  C_17
REMARK    6  A    between atoms: C_17  and  C_18
REMARK                            x       y       z     vdW  Elec       q    Type
REMARK                         _______ _______ _______ _____ _____    ______ ____
ROOT
ATOM      1  S   UNL     1      -0.855  11.859  19.162  0.00  0.00    +0.000 S 
ATOM      2  O   UNL     1      -1.547  10.667  18.710  0.00  0.00    +0.000 OA
ATOM      3  O   UNL     1      -0.679  12.980  18.270  0.00  0.00    +0.000 OA
ENDROOT
BRANCH   1  12
ATOM      4  C   UNL     1      -2.060  15.446  25.710  0.00  0.00    +0.000 C 
ATOM      5  C   UNL     1      -1.611  14.842  24.405  0.00  0.00    +0.000 C 
ATOM      6  O   UNL     1      -0.447  14.947  24.039  0.00  0.00    +0.000 OA
ATOM      7  N   UNL     1      -2.646  14.229  23.738  0.00  0.00    +0.000 N 
ATOM      8  C   UNL     1      -2.552  13.565  22.545  0.00  0.00    +0.000 A 
ATOM      9  N   UNL     1      -3.625  13.241  21.868  0.00  0.00    +0.000 NA
ATOM     10  C   UNL     1      -3.268  12.685  20.650  0.00  0.00    +0.000 A 
ATOM     11  C   UNL     1      -4.402  12.478  19.704  0.00  0.00    +0.000 C 
ATOM     12  C   UNL     1      -1.904  12.450  20.485  0.00  0.00    +0.000 A 
ATOM     13  S   UNL     1      -1.081  13.072  21.869  0.00  0.00    +0.000 S 
ATOM     14  H   UNL     1      -3.598  14.391  24.034  0.00  0.00    +0.000 HD
ENDBRANCH   1  12
BRANCH   1  15
ATOM     15  N   UNL     1       0.703  11.363  19.639  0.00  0.00    +0.000 NA
ATOM     16  C   UNL     1       0.883  10.571  20.877  0.00  0.00    +0.000 C 
ATOM     17  C   UNL     1       0.645   9.075  20.612  0.00  0.00    +0.000 C 
ATOM     18  N   UNL     1       1.185   8.504  19.357  0.00  0.00    +0.000 NA
ATOM     19  C   UNL     1       1.306   9.448  18.234  0.00  0.00    +0.000 C 
ATOM     20  C   UNL     1       1.643  10.893  18.605  0.00  0.00    +0.000 C 
BRANCH  18  21
ATOM     21  C   UNL     1       2.391   7.697  19.556  0.00  0.00    +0.000 C 
BRANCH  21  22
ATOM     22  C   UNL     1       2.113   6.216  19.400  0.00  0.00    +0.000 A 
ATOM     23  C   UNL     1       2.245   5.592  18.149  0.00  0.00    +0.000 A 
ATOM     24  C   UNL     1       1.969   4.232  17.998  0.00  0.00    +0.000 A 
ATOM     25  C   UNL     1       1.567   3.479  19.100  0.00  0.00    +0.000 A 
ATOM     26  C   UNL     1       1.440   4.085  20.349  0.00  0.00    +0.000 A 
ATOM     27  C   UNL     1       1.711   5.447  20.499  0.00  0.00    +0.000 A 
ENDBRANCH  21  22
ENDBRANCH  18  21
ENDBRANCH   1  15
TORSDOF 4
ENDMDL
MODEL 9
REMARK VINA RESULT:      -6.9      7.459     11.156
REMARK  Name = 
REMARK  6 active torsions:
REMARK  status: ('A' for Active; 'I' for Inactive)
REMARK    1  A    between atoms: C_1  and  C_2
REMARK    2  A    between atoms: C_7  and  C_8
REMARK    3  A    between atoms: C_9  and  S_10
REMARK    4  A    between atoms: S_10  and  N_13
REMARK    5  A    between atoms: N_16  and  C_17
REMARK    6  A    between atoms: C_17  and  C_18
REMARK                            x       y       z     vdW  Elec       q    Type
REMARK                         _______ _______ _______ _____ _____    ______ ____
ROOT
ATOM      1  S   UNL     1       4.719  15.762  18.844  0.00  0.00    +0.000 S 
ATOM      2  O   UNL     1       5.088  14.829  17.796  0.00  0.00    +0.000 OA
ATOM      3  O   UNL     1       4.082  17.013  18.513  0.00  0.00    +0.000 OA
ENDROOT
BRANCH   1  12
ATOM      4  C   UNL     1      -0.079  10.003  19.850  0.00  0.00    +0.000 C 
ATOM      5  C   UNL     1       0.966  11.021  19.474  0.00  0.00    +0.000 C 
ATOM      6  O   UNL     1       1.600  10.905  18.432  0.00  0.00    +0.000 OA
ATOM      7  N   UNL     1       1.097  12.002  20.428  0.00  0.00    +0.000 N 
ATOM      8  C   UNL     1       1.939  13.079  20.364  0.00  0.00    +0.000 A 
ATOM      9  N   UNL     1       2.178  13.811  21.423  0.00  0.00    +0.000 NA
ATOM     10  C   UNL     1       3.143  14.763  21.133  0.00  0.00    +0.000 A 
ATOM     11  C   UNL     1       3.655  15.511  22.317  0.00  0.00    +0.000 C 
ATOM     12  C   UNL     1       3.514  14.839  19.792  0.00  0.00    +0.000 A 
ATOM     13  S   UNL     1       2.695  13.584  18.937  0.00  0.00    +0.000 S 
ATOM     14  H   UNL     1       0.675  11.876  21.337  0.00  0.00    +0.000 HD
ENDBRANCH   1  12
BRANCH   1  15
ATOM     15  N   UNL     1       6.154  16.148  19.676  0.00  0.00    +0.000 NA
ATOM     16  C   UNL     1       6.869  15.104  20.446  0.00  0.00    +0.000 C 
ATOM     17  C   UNL     1       7.792  14.281  19.531  0.00  0.00    +0.000 C 
ATOM     18  N   UNL     1       8.562  15.009  18.496  0.00  0.00    +0.000 NA
ATOM     19  C   UNL     1       7.944  16.251  18.006  0.00  0.00    +0.000 C 
ATOM     20  C   UNL     1       7.128  17.044  19.028  0.00  0.00    +0.000 C 
BRANCH  18  21
ATOM     21  C   UNL     1       9.978  15.170  18.831  0.00  0.00    +0.000 C 
BRANCH  21  22
ATOM     22  C   UNL     1      10.711  13.844  18.845  0.00  0.00    +0.000 A 
ATOM     23  C   UNL     1      11.377  13.408  20.003  0.00  0.00    +0.000 A 
ATOM     24  C   UNL     1      12.071  12.197  20.012  0.00  0.00    +0.000 A 
ATOM     25  C   UNL     1      12.099  11.405  18.866  0.00  0.00    +0.000 A 
ATOM     26  C   UNL     1      11.436  11.823  17.713  0.00  0.00    +0.000 A 
ATOM     27  C   UNL     1      10.745  13.036  17.702  0.00  0.00    +0.000 A 
ENDBRANCH  21  22
ENDBRANCH  18  21
ENDBRANCH   1  15
TORSDOF 4
ENDMDL
