MODEL 1
REMARK VINA RESULT:      -7.1      0.000      0.000
REMARK  Name = 
REMARK  5 active torsions:
REMARK  status: ('A' for Active; 'I' for Inactive)
REMARK    1  A    between atoms: C_3  and  N_4
REMARK    2  A    between atoms: N_4  and  C_5
REMARK    3  A    between atoms: C_8  and  O_9
REMARK    4  A    between atoms: C_18  and  C_19
REMARK    5  A    between atoms: C_19  and  O_20
REMARK                            x       y       z     vdW  Elec       q    Type
REMARK                         _______ _______ _______ _____ _____    ______ ____
ROOT
ATOM      1  O   UNL     1       1.029   7.978  21.886  0.00  0.00    +0.000 OA
ATOM      2  C   UNL     1       1.166   8.476  20.770  0.00  0.00    +0.000 C 
ATOM      3  C   UNL     1       2.063   7.812  19.732  0.00  0.00    +0.000 C 
ATOM      4  C   UNL     1       2.326   8.443  18.562  0.00  0.00    +0.000 C 
ATOM      5 CL   UNL     1       3.358   7.744  17.343  0.00  0.00    +0.000 Cl
ATOM      6  C   UNL     1       1.799   9.798  18.235  0.00  0.00    +0.000 C 
ATOM      7  O   UNL     1       2.182  10.417  17.248  0.00  0.00    +0.000 OA
ATOM      8  C   UNL     1       0.803  10.292  19.147  0.00  0.00    +0.000 A 
ATOM      9  S   UNL     1      -0.093  11.695  18.846  0.00  0.00    +0.000 S 
ATOM     10  C   UNL     1      -1.006  11.489  20.278  0.00  0.00    +0.000 A 
ATOM     11  C   UNL     1      -0.582  10.384  20.989  0.00  0.00    +0.000 A 
ATOM     12  C   UNL     1       0.482   9.676  20.337  0.00  0.00    +0.000 A 
ENDROOT
BRANCH   3  13
ATOM     13  N   UNL     1       2.575   6.564  20.122  0.00  0.00    +0.000 N 
ATOM     14  H   UNL     1       2.765   6.530  21.129  0.00  0.00    +0.000 HD
BRANCH  13  15
ATOM     15  C   UNL     1       2.028   5.331  19.689  0.00  0.00    +0.000 A 
ATOM     16  C   UNL     1       1.375   4.518  20.627  0.00  0.00    +0.000 A 
ATOM     17  C   UNL     1       0.943   3.235  20.279  0.00  0.00    +0.000 A 
ATOM     18  C   UNL     1       1.131   2.779  18.979  0.00  0.00    +0.000 A 
ATOM     19  C   UNL     1       1.686   3.604  18.011  0.00  0.00    +0.000 A 
ATOM     20  C   UNL     1       2.126   4.881  18.363  0.00  0.00    +0.000 A 
BRANCH  18  21
ATOM     21  O   UNL     1       0.792   1.511  18.614  0.00  0.00    +0.000 OA
ATOM     22  H   UNL     1       0.747   0.961  19.414  0.00  0.00    +0.000 HD
ENDBRANCH  18  21
ENDBRANCH  13  15
ENDBRANCH   3  13
BRANCH  10  23
ATOM     23  C   UNL     1      -2.106  12.453  20.586  0.00  0.00    +0.000 C 
BRANCH  23  24
ATOM     24  O   UNL     1      -2.738  12.769  19.353  0.00  0.00    +0.000 OA
ATOM     25  H   UNL     1      -2.261  13.534  18.987  0.00  0.00    +0.000 HD
ENDBRANCH  23  24
ENDBRANCH  10  23
TORSDOF 5
ENDMDL
MODEL 2
REMARK VINA RESULT:      -7.1      0.280      1.055
REMARK  Name = 
REMARK  5 active torsions:
REMARK  status: ('A' for Active; 'I' for Inactive)
REMARK    1  A    between atoms: C_3  and  N_4
REMARK    2  A    between atoms: N_4  and  C_5
REMARK    3  A    between atoms: C_8  and  O_9
REMARK    4  A    between atoms: C_18  and  C_19
REMARK    5  A    between atoms: C_19  and  O_20
REMARK                            x       y       z     vdW  Elec       q    Type
REMARK                         _______ _______ _______ _____ _____    ______ ____
ROOT
ATOM      1  O   UNL     1       1.195   7.822  21.866  0.00  0.00    +0.000 OA
ATOM      2  C   UNL     1       1.302   8.300  20.738  0.00  0.00    +0.000 C 
ATOM      3  C   UNL     1       2.192   7.631  19.698  0.00  0.00    +0.000 C 
ATOM      4  C   UNL     1       2.423   8.243  18.510  0.00  0.00    +0.000 C 
ATOM      5 CL   UNL     1       3.446   7.538  17.287  0.00  0.00    +0.000 Cl
ATOM      6  C   UNL     1       1.865   9.580  18.166  0.00  0.00    +0.000 C 
ATOM      7  O   UNL     1       2.219  10.186  17.159  0.00  0.00    +0.000 OA
ATOM      8  C   UNL     1       0.876  10.075  19.086  0.00  0.00    +0.000 A 
ATOM      9  S   UNL     1      -0.051  11.455  18.773  0.00  0.00    +0.000 S 
ATOM     10  C   UNL     1      -0.935  11.261  20.226  0.00  0.00    +0.000 A 
ATOM     11  C   UNL     1      -0.477  10.180  20.951  0.00  0.00    +0.000 A 
ATOM     12  C   UNL     1       0.588   9.478  20.294  0.00  0.00    +0.000 A 
ENDROOT
BRANCH   3  13
ATOM     13  N   UNL     1       2.734   6.401  20.103  0.00  0.00    +0.000 N 
ATOM     14  H   UNL     1       2.962   6.399  21.104  0.00  0.00    +0.000 HD
BRANCH  13  15
ATOM     15  C   UNL     1       2.188   5.150  19.726  0.00  0.00    +0.000 A 
ATOM     16  C   UNL     1       2.523   4.619  18.472  0.00  0.00    +0.000 A 
ATOM     17  C   UNL     1       1.903   3.459  18.001  0.00  0.00    +0.000 A 
ATOM     18  C   UNL     1       0.973   2.807  18.802  0.00  0.00    +0.000 A 
ATOM     19  C   UNL     1       0.700   3.260  20.085  0.00  0.00    +0.000 A 
ATOM     20  C   UNL     1       1.312   4.424  20.550  0.00  0.00    +0.000 A 
BRANCH  18  21
ATOM     21  O   UNL     1       0.289   1.715  18.357  0.00  0.00    +0.000 OA
ATOM     22  H   UNL     1      -0.240   1.362  19.091  0.00  0.00    +0.000 HD
ENDBRANCH  18  21
ENDBRANCH  13  15
ENDBRANCH   3  13
BRANCH  10  23
ATOM     23  C   UNL     1      -2.046  12.211  20.534  0.00  0.00    +0.000 C 
BRANCH  23  24
ATOM     24  O   UNL     1      -2.600  12.621  19.290  0.00  0.00    +0.000 OA
ATOM     25  H   UNL     1      -3.510  12.279  19.268  0.00  0.00    +0.000 HD
ENDBRANCH  23  24
ENDBRANCH  10  23
TORSDOF 5
ENDMDL
MODEL 3
REMARK VINA RESULT:      -6.7      1.655      2.095
REMARK  Name = 
REMARK  5 active torsions:
REMARK  status: ('A' for Active; 'I' for Inactive)
REMARK    1  A    between atoms: C_3  and  N_4
REMARK    2  A    between atoms: N_4  and  C_5
REMARK    3  A    between atoms: C_8  and  O_9
REMARK    4  A    between atoms: C_18  and  C_19
REMARK    5  A    between atoms: C_19  and  O_20
REMARK                            x       y       z     vdW  Elec       q    Type
REMARK                         _______ _______ _______ _____ _____    ______ ____
ROOT
ATOM      1  O   UNL     1       1.692   8.615  22.649  0.00  0.00    +0.000 OA
ATOM      2  C   UNL     1       1.152   9.104  21.659  0.00  0.00    +0.000 C 
ATOM      3  C   UNL     1       1.565   8.666  20.259  0.00  0.00    +0.000 C 
ATOM      4  C   UNL     1       1.074   9.315  19.174  0.00  0.00    +0.000 C 
ATOM      5 CL   UNL     1       1.521   8.873  17.548  0.00  0.00    +0.000 Cl
ATOM      6  C   UNL     1       0.153  10.481  19.276  0.00  0.00    +0.000 C 
ATOM      7  O   UNL     1      -0.146  11.153  18.294  0.00  0.00    +0.000 OA
ATOM      8  C   UNL     1      -0.365  10.726  20.595  0.00  0.00    +0.000 A 
ATOM      9  S   UNL     1      -1.597  11.845  20.898  0.00  0.00    +0.000 S 
ATOM     10  C   UNL     1      -1.628  11.447  22.562  0.00  0.00    +0.000 A 
ATOM     11  C   UNL     1      -0.667  10.506  22.871  0.00  0.00    +0.000 A 
ATOM     12  C   UNL     1       0.083  10.078  21.726  0.00  0.00    +0.000 A 
ENDROOT
BRANCH   3  13
ATOM     13  N   UNL     1       2.479   7.601  20.230  0.00  0.00    +0.000 N 
ATOM     14  H   UNL     1       3.087   7.601  21.056  0.00  0.00    +0.000 HD
BRANCH  13  15
ATOM     15  C   UNL     1       2.114   6.274  19.897  0.00  0.00    +0.000 A 
ATOM     16  C   UNL     1       2.376   5.809  18.600  0.00  0.00    +0.000 A 
ATOM     17  C   UNL     1       1.911   4.558  18.183  0.00  0.00    +0.000 A 
ATOM     18  C   UNL     1       1.215   3.754  19.079  0.00  0.00    +0.000 A 
ATOM     19  C   UNL     1       1.031   4.154  20.396  0.00  0.00    +0.000 A 
ATOM     20  C   UNL     1       1.487   5.407  20.806  0.00  0.00    +0.000 A 
BRANCH  18  21
ATOM     21  O   UNL     1       0.681   2.561  18.698  0.00  0.00    +0.000 OA
ATOM     22  H   UNL     1       0.280   2.668  17.820  0.00  0.00    +0.000 HD
ENDBRANCH  18  21
ENDBRANCH  13  15
ENDBRANCH   3  13
BRANCH  10  23
ATOM     23  C   UNL     1      -2.635  12.105  23.449  0.00  0.00    +0.000 C 
BRANCH  23  24
ATOM     24  O   UNL     1      -3.842  12.205  22.705  0.00  0.00    +0.000 OA
ATOM     25  H   UNL     1      -3.965  11.347  22.264  0.00  0.00    +0.000 HD
ENDBRANCH  23  24
ENDBRANCH  10  23
TORSDOF 5
ENDMDL
MODEL 4
REMARK VINA RESULT:      -6.7      5.278      8.027
REMARK  Name = 
REMARK  5 active torsions:
REMARK  status: ('A' for Active; 'I' for Inactive)
REMARK    1  A    between atoms: C_3  and  N_4
REMARK    2  A    between atoms: N_4  and  C_5
REMARK    3  A    between atoms: C_8  and  O_9
REMARK    4  A    between atoms: C_18  and  C_19
REMARK    5  A    between atoms: C_19  and  O_20
REMARK                            x       y       z     vdW  Elec       q    Type
REMARK                         _______ _______ _______ _____ _____    ______ ____
ROOT
ATOM      1  O   UNL     1       4.424   2.861  17.026  0.00  0.00    +0.000 OA
ATOM      2  C   UNL     1       5.348   3.655  16.861  0.00  0.00    +0.000 C 
ATOM      3  C   UNL     1       6.007   4.331  18.058  0.00  0.00    +0.000 C 
ATOM      4  C   UNL     1       6.919   5.315  17.862  0.00  0.00    +0.000 C 
ATOM      5 CL   UNL     1       7.694   6.138  19.189  0.00  0.00    +0.000 Cl
ATOM      6  C   UNL     1       7.302   5.807  16.510  0.00  0.00    +0.000 C 
ATOM      7  O   UNL     1       8.001   6.805  16.361  0.00  0.00    +0.000 OA
ATOM      8  C   UNL     1       6.812   5.010  15.418  0.00  0.00    +0.000 A 
ATOM      9  S   UNL     1       7.312   5.247  13.819  0.00  0.00    +0.000 S 
ATOM     10  C   UNL     1       6.376   3.924  13.269  0.00  0.00    +0.000 A 
ATOM     11  C   UNL     1       5.659   3.354  14.301  0.00  0.00    +0.000 A 
ATOM     12  C   UNL     1       5.903   3.984  15.565  0.00  0.00    +0.000 A 
ENDROOT
BRANCH   3  13
ATOM     13  N   UNL     1       5.562   3.864  19.305  0.00  0.00    +0.000 N 
ATOM     14  H   UNL     1       6.174   4.177  20.067  0.00  0.00    +0.000 HD
BRANCH  13  15
ATOM     15  C   UNL     1       4.208   3.918  19.716  0.00  0.00    +0.000 A 
ATOM     16  C   UNL     1       3.589   2.738  20.153  0.00  0.00    +0.000 A 
ATOM     17  C   UNL     1       2.221   2.714  20.436  0.00  0.00    +0.000 A 
ATOM     18  C   UNL     1       1.477   3.882  20.319  0.00  0.00    +0.000 A 
ATOM     19  C   UNL     1       2.089   5.082  19.983  0.00  0.00    +0.000 A 
ATOM     20  C   UNL     1       3.453   5.102  19.691  0.00  0.00    +0.000 A 
BRANCH  18  21
ATOM     21  O   UNL     1       0.129   3.891  20.514  0.00  0.00    +0.000 OA
ATOM     22  H   UNL     1      -0.256   3.132  20.046  0.00  0.00    +0.000 HD
ENDBRANCH  18  21
ENDBRANCH  13  15
ENDBRANCH   3  13
BRANCH  10  23
ATOM     23  C   UNL     1       6.438   3.538  11.826  0.00  0.00    +0.000 C 
BRANCH  23  24
ATOM     24  O   UNL     1       6.319   2.123  11.769  0.00  0.00    +0.000 OA
ATOM     25  H   UNL     1       5.765   1.925  10.995  0.00  0.00    +0.000 HD
ENDBRANCH  23  24
ENDBRANCH  10  23
TORSDOF 5
ENDMDL
MODEL 5
REMARK VINA RESULT:      -6.7      3.383      4.459
REMARK  Name = 
REMARK  5 active torsions:
REMARK  status: ('A' for Active; 'I' for Inactive)
REMARK    1  A    between atoms: C_3  and  N_4
REMARK    2  A    between atoms: N_4  and  C_5
REMARK    3  A    between atoms: C_8  and  O_9
REMARK    4  A    between atoms: C_18  and  C_19
REMARK    5  A    between atoms: C_19  and  O_20
REMARK                            x       y       z     vdW  Elec       q    Type
REMARK                         _______ _______ _______ _____ _____    ______ ____
ROOT
ATOM      1  O   UNL     1       2.278   9.354  17.179  0.00  0.00    +0.000 OA
ATOM      2  C   UNL     1       2.219   8.616  18.161  0.00  0.00    +0.000 C 
ATOM      3  C   UNL     1       2.940   7.274  18.162  0.00  0.00    +0.000 C 
ATOM      4  C   UNL     1       2.748   6.403  19.183  0.00  0.00    +0.000 C 
ATOM      5 CL   UNL     1       3.530   4.845  19.234  0.00  0.00    +0.000 Cl
ATOM      6  C   UNL     1       1.825   6.678  20.320  0.00  0.00    +0.000 C 
ATOM      7  O   UNL     1       1.541   5.813  21.143  0.00  0.00    +0.000 OA
ATOM      8  C   UNL     1       1.329   8.027  20.380  0.00  0.00    +0.000 A 
ATOM      9  S   UNL     1       0.458   8.620  21.703  0.00  0.00    +0.000 S 
ATOM     10  C   UNL     1       0.362  10.183  21.012  0.00  0.00    +0.000 A 
ATOM     11  C   UNL     1       0.949  10.216  19.764  0.00  0.00    +0.000 A 
ATOM     12  C   UNL     1       1.517   8.957  19.380  0.00  0.00    +0.000 A 
ENDROOT
BRANCH   3  13
ATOM     13  N   UNL     1       3.749   7.049  17.037  0.00  0.00    +0.000 N 
ATOM     14  H   UNL     1       3.859   7.899  16.473  0.00  0.00    +0.000 HD
BRANCH  13  15
ATOM     15  C   UNL     1       4.975   6.341  17.091  0.00  0.00    +0.000 A 
ATOM     16  C   UNL     1       5.064   5.099  16.447  0.00  0.00    +0.000 A 
ATOM     17  C   UNL     1       6.205   4.303  16.589  0.00  0.00    +0.000 A 
ATOM     18  C   UNL     1       7.274   4.769  17.346  0.00  0.00    +0.000 A 
ATOM     19  C   UNL     1       7.245   6.036  17.911  0.00  0.00    +0.000 A 
ATOM     20  C   UNL     1       6.101   6.824  17.777  0.00  0.00    +0.000 A 
BRANCH  18  21
ATOM     21  O   UNL     1       8.375   3.999  17.572  0.00  0.00    +0.000 OA
ATOM     22  H   UNL     1       8.345   3.680  18.490  0.00  0.00    +0.000 HD
ENDBRANCH  18  21
ENDBRANCH  13  15
ENDBRANCH   3  13
BRANCH  10  23
ATOM     23  C   UNL     1      -0.292  11.282  21.786  0.00  0.00    +0.000 C 
BRANCH  23  24
ATOM     24  O   UNL     1      -0.302  10.881  23.150  0.00  0.00    +0.000 OA
ATOM     25  H   UNL     1       0.551  11.160  23.524  0.00  0.00    +0.000 HD
ENDBRANCH  23  24
ENDBRANCH  10  23
TORSDOF 5
ENDMDL
MODEL 6
REMARK VINA RESULT:      -6.7      1.662      1.843
REMARK  Name = 
REMARK  5 active torsions:
REMARK  status: ('A' for Active; 'I' for Inactive)
REMARK    1  A    between atoms: C_3  and  N_4
REMARK    2  A    between atoms: N_4  and  C_5
REMARK    3  A    between atoms: C_8  and  O_9
REMARK    4  A    between atoms: C_18  and  C_19
REMARK    5  A    between atoms: C_19  and  O_20
REMARK                            x       y       z     vdW  Elec       q    Type
REMARK                         _______ _______ _______ _____ _____    ______ ____
ROOT
ATOM      1  O   UNL     1       1.549   8.558  22.650  0.00  0.00    +0.000 OA
ATOM      2  C   UNL     1       1.062   9.110  21.666  0.00  0.00    +0.000 C 
ATOM      3  C   UNL     1       1.510   8.722  20.262  0.00  0.00    +0.000 C 
ATOM      4  C   UNL     1       1.082   9.436  19.193  0.00  0.00    +0.000 C 
ATOM      5 CL   UNL     1       1.573   9.054  17.564  0.00  0.00    +0.000 Cl
ATOM      6  C   UNL     1       0.198  10.629  19.316  0.00  0.00    +0.000 C 
ATOM      7  O   UNL     1      -0.042  11.356  18.357  0.00  0.00    +0.000 OA
ATOM      8  C   UNL     1      -0.358  10.833  20.627  0.00  0.00    +0.000 A 
ATOM      9  S   UNL     1      -1.561  11.981  20.939  0.00  0.00    +0.000 S 
ATOM     10  C   UNL     1      -1.667  11.509  22.581  0.00  0.00    +0.000 A 
ATOM     11  C   UNL     1      -0.751  10.521  22.878  0.00  0.00    +0.000 A 
ATOM     12  C   UNL     1       0.025  10.118  21.741  0.00  0.00    +0.000 A 
ENDROOT
BRANCH   3  13
ATOM     13  N   UNL     1       2.387   7.627  20.216  0.00  0.00    +0.000 N 
ATOM     14  H   UNL     1       2.950   7.555  21.071  0.00  0.00    +0.000 HD
BRANCH  13  15
ATOM     15  C   UNL     1       1.996   6.337  19.782  0.00  0.00    +0.000 A 
ATOM     16  C   UNL     1       1.340   5.492  20.689  0.00  0.00    +0.000 A 
ATOM     17  C   UNL     1       1.060   4.165  20.352  0.00  0.00    +0.000 A 
ATOM     18  C   UNL     1       1.403   3.693  19.090  0.00  0.00    +0.000 A 
ATOM     19  C   UNL     1       1.964   4.539  18.144  0.00  0.00    +0.000 A 
ATOM     20  C   UNL     1       2.253   5.861  18.486  0.00  0.00    +0.000 A 
BRANCH  18  21
ATOM     21  O   UNL     1       1.216   2.389  18.742  0.00  0.00    +0.000 OA
ATOM     22  H   UNL     1       0.287   2.268  18.485  0.00  0.00    +0.000 HD
ENDBRANCH  18  21
ENDBRANCH  13  15
ENDBRANCH   3  13
BRANCH  10  23
ATOM     23  C   UNL     1      -2.682  12.162  23.462  0.00  0.00    +0.000 C 
BRANCH  23  24
ATOM     24  O   UNL     1      -3.879  12.277  22.703  0.00  0.00    +0.000 OA
ATOM     25  H   UNL     1      -4.046  13.229  22.594  0.00  0.00    +0.000 HD
ENDBRANCH  23  24
ENDBRANCH  10  23
TORSDOF 5
ENDMDL
MODEL 7
REMARK VINA RESULT:      -6.6      4.982      8.100
REMARK  Name = 
REMARK  5 active torsions:
REMARK  status: ('A' for Active; 'I' for Inactive)
REMARK    1  A    between atoms: C_3  and  N_4
REMARK    2  A    between atoms: N_4  and  C_5
REMARK    3  A    between atoms: C_8  and  O_9
REMARK    4  A    between atoms: C_18  and  C_19
REMARK    5  A    between atoms: C_19  and  O_20
REMARK                            x       y       z     vdW  Elec       q    Type
REMARK                         _______ _______ _______ _____ _____    ______ ____
ROOT
ATOM      1  O   UNL     1       3.408   3.530  16.594  0.00  0.00    +0.000 OA
ATOM      2  C   UNL     1       4.521   4.053  16.604  0.00  0.00    +0.000 C 
ATOM      3  C   UNL     1       5.105   4.599  17.900  0.00  0.00    +0.000 C 
ATOM      4  C   UNL     1       6.261   5.307  17.877  0.00  0.00    +0.000 C 
ATOM      5 CL   UNL     1       6.971   5.972  19.324  0.00  0.00    +0.000 Cl
ATOM      6  C   UNL     1       6.997   5.615  16.619  0.00  0.00    +0.000 C 
ATOM      7  O   UNL     1       7.946   6.393  16.602  0.00  0.00    +0.000 OA
ATOM      8  C   UNL     1       6.522   4.914  15.457  0.00  0.00    +0.000 A 
ATOM      9  S   UNL     1       7.347   4.934  13.980  0.00  0.00    +0.000 S 
ATOM     10  C   UNL     1       6.215   3.866  13.267  0.00  0.00    +0.000 A 
ATOM     11  C   UNL     1       5.200   3.551  14.148  0.00  0.00    +0.000 A 
ATOM     12  C   UNL     1       5.367   4.163  15.434  0.00  0.00    +0.000 A 
ENDROOT
BRANCH   3  13
ATOM     13  N   UNL     1       4.337   4.326  19.043  0.00  0.00    +0.000 N 
ATOM     14  H   UNL     1       4.919   4.000  19.823  0.00  0.00    +0.000 HD
BRANCH  13  15
ATOM     15  C   UNL     1       3.324   5.192  19.524  0.00  0.00    +0.000 A 
ATOM     16  C   UNL     1       3.202   6.467  18.952  0.00  0.00    +0.000 A 
ATOM     17  C   UNL     1       2.312   7.404  19.485  0.00  0.00    +0.000 A 
ATOM     18  C   UNL     1       1.515   7.051  20.568  0.00  0.00    +0.000 A 
ATOM     19  C   UNL     1       1.550   5.764  21.086  0.00  0.00    +0.000 A 
ATOM     20  C   UNL     1       2.447   4.834  20.560  0.00  0.00    +0.000 A 
BRANCH  18  21
ATOM     21  O   UNL     1       0.687   7.953  21.167  0.00  0.00    +0.000 OA
ATOM     22  H   UNL     1       1.096   8.833  21.110  0.00  0.00    +0.000 HD
ENDBRANCH  18  21
ENDBRANCH  13  15
ENDBRANCH   3  13
BRANCH  10  23
ATOM     23  C   UNL     1       6.434   3.404  11.863  0.00  0.00    +0.000 C 
BRANCH  23  24
ATOM     24  O   UNL     1       6.179   2.006  11.841  0.00  0.00    +0.000 OA
ATOM     25  H   UNL     1       5.971   1.749  12.756  0.00  0.00    +0.000 HD
ENDBRANCH  23  24
ENDBRANCH  10  23
TORSDOF 5
ENDMDL
MODEL 8
REMARK VINA RESULT:      -6.5      3.285      5.120
REMARK  Name = 
REMARK  5 active torsions:
REMARK  status: ('A' for Active; 'I' for Inactive)
REMARK    1  A    between atoms: C_3  and  N_4
REMARK    2  A    between atoms: N_4  and  C_5
REMARK    3  A    between atoms: C_8  and  O_9
REMARK    4  A    between atoms: C_18  and  C_19
REMARK    5  A    between atoms: C_19  and  O_20
REMARK                            x       y       z     vdW  Elec       q    Type
REMARK                         _______ _______ _______ _____ _____    ______ ____
ROOT
ATOM      1  O   UNL     1      -1.833   9.666  17.106  0.00  0.00    +0.000 OA
ATOM      2  C   UNL     1      -1.945  10.572  17.930  0.00  0.00    +0.000 C 
ATOM      3  C   UNL     1      -0.711  11.160  18.604  0.00  0.00    +0.000 C 
ATOM      4  C   UNL     1      -0.852  12.049  19.617  0.00  0.00    +0.000 C 
ATOM      5 CL   UNL     1       0.520  12.744  20.439  0.00  0.00    +0.000 Cl
ATOM      6  C   UNL     1      -2.179  12.475  20.143  0.00  0.00    +0.000 C 
ATOM      7  O   UNL     1      -2.281  13.150  21.162  0.00  0.00    +0.000 OA
ATOM      8  C   UNL     1      -3.303  12.055  19.350  0.00  0.00    +0.000 A 
ATOM      9  S   UNL     1      -4.875  12.616  19.629  0.00  0.00    +0.000 S 
ATOM     10  C   UNL     1      -5.485  11.743  18.289  0.00  0.00    +0.000 A 
ATOM     11  C   UNL     1      -4.494  11.000  17.681  0.00  0.00    +0.000 A 
ATOM     12  C   UNL     1      -3.210  11.172  18.297  0.00  0.00    +0.000 A 
ENDROOT
BRANCH   3  13
ATOM     13  N   UNL     1       0.508  10.676  18.103  0.00  0.00    +0.000 N 
ATOM     14  H   UNL     1       1.172  11.438  17.921  0.00  0.00    +0.000 HD
BRANCH  13  15
ATOM     15  C   UNL     1       1.187   9.563  18.655  0.00  0.00    +0.000 A 
ATOM     16  C   UNL     1       2.028   8.807  17.824  0.00  0.00    +0.000 A 
ATOM     17  C   UNL     1       2.609   7.623  18.286  0.00  0.00    +0.000 A 
ATOM     18  C   UNL     1       2.378   7.213  19.594  0.00  0.00    +0.000 A 
ATOM     19  C   UNL     1       1.630   7.995  20.462  0.00  0.00    +0.000 A 
ATOM     20  C   UNL     1       1.042   9.172  19.996  0.00  0.00    +0.000 A 
BRANCH  18  21
ATOM     21  O   UNL     1       2.863   6.030  20.066  0.00  0.00    +0.000 OA
ATOM     22  H   UNL     1       3.357   5.592  19.353  0.00  0.00    +0.000 HD
ENDBRANCH  18  21
ENDBRANCH  13  15
ENDBRANCH   3  13
BRANCH  10  23
ATOM     23  C   UNL     1      -6.930  11.878  17.930  0.00  0.00    +0.000 C 
BRANCH  23  24
ATOM     24  O   UNL     1      -6.989  12.602  16.708  0.00  0.00    +0.000 OA
ATOM     25  H   UNL     1      -6.988  11.940  15.995  0.00  0.00    +0.000 HD
ENDBRANCH  23  24
ENDBRANCH  10  23
TORSDOF 5
ENDMDL
MODEL 9
REMARK VINA RESULT:      -6.4      3.187      7.060
REMARK  Name = 
REMARK  5 active torsions:
REMARK  status: ('A' for Active; 'I' for Inactive)
REMARK    1  A    between atoms: C_3  and  N_4
REMARK    2  A    between atoms: N_4  and  C_5
REMARK    3  A    between atoms: C_8  and  O_9
REMARK    4  A    between atoms: C_18  and  C_19
REMARK    5  A    between atoms: C_19  and  O_20
REMARK                            x       y       z     vdW  Elec       q    Type
REMARK                         _______ _______ _______ _____ _____    ______ ____
ROOT
ATOM      1  O   UNL     1       2.169  10.146  17.250  0.00  0.00    +0.000 OA
ATOM      2  C   UNL     1       1.931   9.340  18.147  0.00  0.00    +0.000 C 
ATOM      3  C   UNL     1       0.873   9.647  19.200  0.00  0.00    +0.000 C 
ATOM      4  C   UNL     1       0.722   8.826  20.268  0.00  0.00    +0.000 C 
ATOM      5 CL   UNL     1      -0.458   9.133  21.515  0.00  0.00    +0.000 Cl
ATOM      6  C   UNL     1       1.572   7.624  20.492  0.00  0.00    +0.000 C 
ATOM      7  O   UNL     1       1.530   6.992  21.543  0.00  0.00    +0.000 OA
ATOM      8  C   UNL     1       2.411   7.264  19.381  0.00  0.00    +0.000 A 
ATOM      9  S   UNL     1       3.281   5.814  19.327  0.00  0.00    +0.000 S 
ATOM     10  C   UNL     1       3.867   6.157  17.756  0.00  0.00    +0.000 A 
ATOM     11  C   UNL     1       3.433   7.391  17.317  0.00  0.00    +0.000 A 
ATOM     12  C   UNL     1       2.581   8.052  18.263  0.00  0.00    +0.000 A 
ENDROOT
BRANCH   3  13
ATOM     13  N   UNL     1       0.143  10.823  18.963  0.00  0.00    +0.000 N 
ATOM     14  H   UNL     1       0.705  11.524  18.467  0.00  0.00    +0.000 HD
BRANCH  13  15
ATOM     15  C   UNL     1      -1.184  10.827  18.470  0.00  0.00    +0.000 A 
ATOM     16  C   UNL     1      -1.504   9.992  17.390  0.00  0.00    +0.000 A 
ATOM     17  C   UNL     1      -2.760  10.064  16.781  0.00  0.00    +0.000 A 
ATOM     18  C   UNL     1      -3.712  10.945  17.280  0.00  0.00    +0.000 A 
ATOM     19  C   UNL     1      -3.450  11.710  18.408  0.00  0.00    +0.000 A 
ATOM     20  C   UNL     1      -2.192  11.645  19.007  0.00  0.00    +0.000 A 
BRANCH  18  21
ATOM     21  O   UNL     1      -4.923  11.102  16.676  0.00  0.00    +0.000 OA
ATOM     22  H   UNL     1      -4.783  11.180  15.717  0.00  0.00    +0.000 HD
ENDBRANCH  18  21
ENDBRANCH  13  15
ENDBRANCH   3  13
BRANCH  10  23
ATOM     23  C   UNL     1       4.721   5.146  17.061  0.00  0.00    +0.000 C 
BRANCH  23  24
ATOM     24  O   UNL     1       4.049   3.897  17.157  0.00  0.00    +0.000 OA
ATOM     25  H   UNL     1       3.391   3.883  16.442  0.00  0.00    +0.000 HD
ENDBRANCH  23  24
ENDBRANCH  10  23
TORSDOF 5
ENDMDL
