MODEL 1
REMARK VINA RESULT:      -9.0      0.000      0.000
REMARK  Name = 
REMARK  8 active torsions:
REMARK  status: ('A' for Active; 'I' for Inactive)
REMARK    1  A    between atoms: O_1  and  C_2
REMARK    2  A    between atoms: C_2  and  C_3
REMARK    3  A    between atoms: C_3  and  C_4
REMARK    4  A    between atoms: C_4  and  C_5
REMARK    5  A    between atoms: C_5  and  C_6
REMARK    6  A    between atoms: N_14  and  C_15
REMARK    7  A    between atoms: C_15  and  C_16
REMARK    8  A    between atoms: C_15  and  C_22
REMARK                            x       y       z     vdW  Elec       q    Type
REMARK                         _______ _______ _______ _____ _____    ______ ____
ROOT
ATOM      1  C   UNL     1       6.189   4.399  16.095  0.00  0.00    +0.000 C 
ATOM      2  C   UNL     1       5.956   5.895  16.329  0.00  0.00    +0.000 C 
ATOM      3  C   UNL     1       5.366   6.181  17.707  0.00  0.00    +0.000 C 
ATOM      4  N   UNL     1       4.100   5.448  17.920  0.00  0.00    +0.000 NA
ATOM      5  C   UNL     1       4.396   4.001  17.858  0.00  0.00    +0.000 C 
ATOM      6  C   UNL     1       4.923   3.618  16.468  0.00  0.00    +0.000 C 
ENDROOT
BRANCH   1   7
ATOM      7  O   UNL     1       7.239   3.938  16.956  0.00  0.00    +0.000 OA
ATOM      8  H   UNL     1       7.655   4.710  17.374  0.00  0.00    +0.000 HD
ENDBRANCH   1   7
BRANCH   1   9
ATOM      9  C   UNL     1       6.582   4.104  14.626  0.00  0.00    +0.000 C 
BRANCH   9  10
ATOM     10  C   UNL     1       7.348   5.252  13.959  0.00  0.00    +0.000 C 
BRANCH  10  11
ATOM     11  C   UNL     1       7.533   5.049  12.454  0.00  0.00    +0.000 C 
BRANCH  11  12
ATOM     12  C   UNL     1       6.862   3.757  12.050  0.00  0.00    +0.000 A 
ATOM     13  C   UNL     1       7.625   2.680  11.585  0.00  0.00    +0.000 A 
ATOM     14  C   UNL     1       7.000   1.530  11.099  0.00  0.00    +0.000 A 
ATOM     15  C   UNL     1       5.609   1.451  11.074  0.00  0.00    +0.000 A 
ATOM     16  C   UNL     1       4.841   2.513  11.545  0.00  0.00    +0.000 A 
ATOM     17  C   UNL     1       5.463   3.663  12.030  0.00  0.00    +0.000 A 
ENDBRANCH  11  12
ENDBRANCH  10  11
ENDBRANCH   9  10
ENDBRANCH   1   9
BRANCH   4  18
ATOM     18  C   UNL     1       3.484   5.850  19.227  0.00  0.00    +0.000 C 
BRANCH  18  19
ATOM     19  C   UNL     1       2.687   7.160  19.078  0.00  0.00    +0.000 A 
ATOM     20  C   UNL     1       1.998   7.713  20.172  0.00  0.00    +0.000 A 
ATOM     21  C   UNL     1       1.178   8.831  20.010  0.00  0.00    +0.000 A 
ATOM     22  C   UNL     1       1.036   9.412  18.752  0.00  0.00    +0.000 A 
ATOM     23  C   UNL     1       1.726   8.889  17.660  0.00  0.00    +0.000 A 
ATOM     24  C   UNL     1       2.552   7.774  17.820  0.00  0.00    +0.000 A 
ENDBRANCH  18  19
BRANCH  18  25
ATOM     25  C   UNL     1       2.602   4.784  19.896  0.00  0.00    +0.000 A 
ATOM     26  C   UNL     1       1.502   4.255  19.197  0.00  0.00    +0.000 A 
ATOM     27  C   UNL     1       0.705   3.258  19.762  0.00  0.00    +0.000 A 
ATOM     28  C   UNL     1       0.992   2.774  21.036  0.00  0.00    +0.000 A 
ATOM     29  C   UNL     1       2.078   3.281  21.743  0.00  0.00    +0.000 A 
ATOM     30  C   UNL     1       2.884   4.270  21.174  0.00  0.00    +0.000 A 
ENDBRANCH  18  25
ENDBRANCH   4  18
TORSDOF 8
ENDMDL
MODEL 2
REMARK VINA RESULT:      -9.0      0.834      1.535
REMARK  Name = 
REMARK  8 active torsions:
REMARK  status: ('A' for Active; 'I' for Inactive)
REMARK    1  A    between atoms: O_1  and  C_2
REMARK    2  A    between atoms: C_2  and  C_3
REMARK    3  A    between atoms: C_3  and  C_4
REMARK    4  A    between atoms: C_4  and  C_5
REMARK    5  A    between atoms: C_5  and  C_6
REMARK    6  A    between atoms: N_14  and  C_15
REMARK    7  A    between atoms: C_15  and  C_16
REMARK    8  A    between atoms: C_15  and  C_22
REMARK                            x       y       z     vdW  Elec       q    Type
REMARK                         _______ _______ _______ _____ _____    ______ ____
ROOT
ATOM      1  C   UNL     1       6.090   4.548  16.517  0.00  0.00    +0.000 C 
ATOM      2  C   UNL     1       6.601   4.933  17.909  0.00  0.00    +0.000 C 
ATOM      3  C   UNL     1       5.480   4.988  18.942  0.00  0.00    +0.000 C 
ATOM      4  N   UNL     1       4.411   5.925  18.536  0.00  0.00    +0.000 NA
ATOM      5  C   UNL     1       3.824   5.426  17.275  0.00  0.00    +0.000 C 
ATOM      6  C   UNL     1       4.877   5.415  16.158  0.00  0.00    +0.000 C 
ENDROOT
BRANCH   1   7
ATOM      7  O   UNL     1       5.646   3.184  16.530  0.00  0.00    +0.000 OA
ATOM      8  H   UNL     1       5.545   2.885  15.611  0.00  0.00    +0.000 HD
ENDBRANCH   1   7
BRANCH   1   9
ATOM      9  C   UNL     1       7.192   4.703  15.440  0.00  0.00    +0.000 C 
BRANCH   9  10
ATOM     10  C   UNL     1       6.650   5.139  14.073  0.00  0.00    +0.000 C 
BRANCH  10  11
ATOM     11  C   UNL     1       7.553   4.718  12.912  0.00  0.00    +0.000 C 
BRANCH  11  12
ATOM     12  C   UNL     1       6.879   3.600  12.152  0.00  0.00    +0.000 A 
ATOM     13  C   UNL     1       5.484   3.500  12.133  0.00  0.00    +0.000 A 
ATOM     14  C   UNL     1       4.863   2.402  11.533  0.00  0.00    +0.000 A 
ATOM     15  C   UNL     1       5.634   1.399  10.949  0.00  0.00    +0.000 A 
ATOM     16  C   UNL     1       7.024   1.495  10.954  0.00  0.00    +0.000 A 
ATOM     17  C   UNL     1       7.646   2.590  11.553  0.00  0.00    +0.000 A 
ENDBRANCH  11  12
ENDBRANCH  10  11
ENDBRANCH   9  10
ENDBRANCH   1   9
BRANCH   4  18
ATOM     18  C   UNL     1       3.393   6.053  19.630  0.00  0.00    +0.000 C 
BRANCH  18  19
ATOM     19  C   UNL     1       2.542   7.323  19.443  0.00  0.00    +0.000 A 
ATOM     20  C   UNL     1       1.733   7.809  20.486  0.00  0.00    +0.000 A 
ATOM     21  C   UNL     1       0.871   8.886  20.280  0.00  0.00    +0.000 A 
ATOM     22  C   UNL     1       0.805   9.495  19.028  0.00  0.00    +0.000 A 
ATOM     23  C   UNL     1       1.614   9.039  17.988  0.00  0.00    +0.000 A 
ATOM     24  C   UNL     1       2.482   7.964  18.193  0.00  0.00    +0.000 A 
ENDBRANCH  18  19
BRANCH  18  25
ATOM     25  C   UNL     1       2.470   4.838  19.816  0.00  0.00    +0.000 A 
ATOM     26  C   UNL     1       2.370   4.229  21.081  0.00  0.00    +0.000 A 
ATOM     27  C   UNL     1       1.511   3.148  21.291  0.00  0.00    +0.000 A 
ATOM     28  C   UNL     1       0.739   2.657  20.241  0.00  0.00    +0.000 A 
ATOM     29  C   UNL     1       0.819   3.248  18.984  0.00  0.00    +0.000 A 
ATOM     30  C   UNL     1       1.669   4.337  18.775  0.00  0.00    +0.000 A 
ENDBRANCH  18  25
ENDBRANCH   4  18
TORSDOF 8
ENDMDL
MODEL 3
REMARK VINA RESULT:      -8.8      0.705      1.484
REMARK  Name = 
REMARK  8 active torsions:
REMARK  status: ('A' for Active; 'I' for Inactive)
REMARK    1  A    between atoms: O_1  and  C_2
REMARK    2  A    between atoms: C_2  and  C_3
REMARK    3  A    between atoms: C_3  and  C_4
REMARK    4  A    between atoms: C_4  and  C_5
REMARK    5  A    between atoms: C_5  and  C_6
REMARK    6  A    between atoms: N_14  and  C_15
REMARK    7  A    between atoms: C_15  and  C_16
REMARK    8  A    between atoms: C_15  and  C_22
REMARK                            x       y       z     vdW  Elec       q    Type
REMARK                         _______ _______ _______ _____ _____    ______ ____
ROOT
ATOM      1  C   UNL     1       6.614   5.090  16.908  0.00  0.00    +0.000 C 
ATOM      2  C   UNL     1       6.400   6.494  17.482  0.00  0.00    +0.000 C 
ATOM      3  C   UNL     1       5.466   6.491  18.688  0.00  0.00    +0.000 C 
ATOM      4  N   UNL     1       4.155   5.891  18.360  0.00  0.00    +0.000 NA
ATOM      5  C   UNL     1       4.384   4.482  17.976  0.00  0.00    +0.000 C 
ATOM      6  C   UNL     1       5.257   4.402  16.715  0.00  0.00    +0.000 C 
ENDROOT
BRANCH   1   7
ATOM      7  O   UNL     1       7.359   4.299  17.845  0.00  0.00    +0.000 OA
ATOM      8  H   UNL     1       8.258   4.661  17.906  0.00  0.00    +0.000 HD
ENDBRANCH   1   7
BRANCH   1   9
ATOM      9  C   UNL     1       7.385   5.131  15.566  0.00  0.00    +0.000 C 
BRANCH   9  10
ATOM     10  C   UNL     1       6.908   4.079  14.557  0.00  0.00    +0.000 C 
BRANCH  10  11
ATOM     11  C   UNL     1       6.970   4.570  13.110  0.00  0.00    +0.000 C 
BRANCH  11  12
ATOM     12  C   UNL     1       6.472   3.471  12.201  0.00  0.00    +0.000 A 
ATOM     13  C   UNL     1       5.105   3.345  11.929  0.00  0.00    +0.000 A 
ATOM     14  C   UNL     1       4.630   2.261  11.187  0.00  0.00    +0.000 A 
ATOM     15  C   UNL     1       5.518   1.297  10.715  0.00  0.00    +0.000 A 
ATOM     16  C   UNL     1       6.882   1.419  10.972  0.00  0.00    +0.000 A 
ATOM     17  C   UNL     1       7.359   2.501  11.712  0.00  0.00    +0.000 A 
ENDBRANCH  11  12
ENDBRANCH  10  11
ENDBRANCH   9  10
ENDBRANCH   1   9
BRANCH   4  18
ATOM     18  C   UNL     1       3.221   6.022  19.526  0.00  0.00    +0.000 C 
BRANCH  18  19
ATOM     19  C   UNL     1       2.330   7.270  19.378  0.00  0.00    +0.000 A 
ATOM     20  C   UNL     1       2.219   7.933  18.143  0.00  0.00    +0.000 A 
ATOM     21  C   UNL     1       1.510   9.131  18.036  0.00  0.00    +0.000 A 
ATOM     22  C   UNL     1       0.902   9.682  19.162  0.00  0.00    +0.000 A 
ATOM     23  C   UNL     1       0.985   9.028  20.390  0.00  0.00    +0.000 A 
ATOM     24  C   UNL     1       1.689   7.826  20.499  0.00  0.00    +0.000 A 
ENDBRANCH  18  19
BRANCH  18  25
ATOM     25  C   UNL     1       2.342   4.793  19.807  0.00  0.00    +0.000 A 
ATOM     26  C   UNL     1       1.587   4.226  18.764  0.00  0.00    +0.000 A 
ATOM     27  C   UNL     1       0.809   3.086  18.979  0.00  0.00    +0.000 A 
ATOM     28  C   UNL     1       0.771   2.495  20.239  0.00  0.00    +0.000 A 
ATOM     29  C   UNL     1       1.515   3.037  21.283  0.00  0.00    +0.000 A 
ATOM     30  C   UNL     1       2.303   4.170  21.067  0.00  0.00    +0.000 A 
ENDBRANCH  18  25
ENDBRANCH   4  18
TORSDOF 8
ENDMDL
MODEL 4
REMARK VINA RESULT:      -8.6      0.733      1.500
REMARK  Name = 
REMARK  8 active torsions:
REMARK  status: ('A' for Active; 'I' for Inactive)
REMARK    1  A    between atoms: O_1  and  C_2
REMARK    2  A    between atoms: C_2  and  C_3
REMARK    3  A    between atoms: C_3  and  C_4
REMARK    4  A    between atoms: C_4  and  C_5
REMARK    5  A    between atoms: C_5  and  C_6
REMARK    6  A    between atoms: N_14  and  C_15
REMARK    7  A    between atoms: C_15  and  C_16
REMARK    8  A    between atoms: C_15  and  C_22
REMARK                            x       y       z     vdW  Elec       q    Type
REMARK                         _______ _______ _______ _____ _____    ______ ____
ROOT
ATOM      1  C   UNL     1       6.897   5.530  16.777  0.00  0.00    +0.000 C 
ATOM      2  C   UNL     1       5.986   6.761  16.746  0.00  0.00    +0.000 C 
ATOM      3  C   UNL     1       5.133   6.882  18.005  0.00  0.00    +0.000 C 
ATOM      4  N   UNL     1       4.314   5.671  18.226  0.00  0.00    +0.000 NA
ATOM      5  C   UNL     1       5.233   4.531  18.424  0.00  0.00    +0.000 C 
ATOM      6  C   UNL     1       6.077   4.293  17.164  0.00  0.00    +0.000 C 
ENDROOT
BRANCH   1   7
ATOM      7  O   UNL     1       7.902   5.703  17.787  0.00  0.00    +0.000 OA
ATOM      8  H   UNL     1       7.510   6.192  18.529  0.00  0.00    +0.000 HD
ENDBRANCH   1   7
BRANCH   1   9
ATOM      9  C   UNL     1       7.596   5.299  15.414  0.00  0.00    +0.000 C 
BRANCH   9  10
ATOM     10  C   UNL     1       6.718   4.561  14.397  0.00  0.00    +0.000 C 
BRANCH  10  11
ATOM     11  C   UNL     1       7.246   4.668  12.965  0.00  0.00    +0.000 C 
BRANCH  11  12
ATOM     12  C   UNL     1       6.678   3.530  12.150  0.00  0.00    +0.000 A 
ATOM     13  C   UNL     1       5.293   3.380  12.016  0.00  0.00    +0.000 A 
ATOM     14  C   UNL     1       4.764   2.263  11.365  0.00  0.00    +0.000 A 
ATOM     15  C   UNL     1       5.616   1.292  10.845  0.00  0.00    +0.000 A 
ATOM     16  C   UNL     1       6.996   1.438  10.964  0.00  0.00    +0.000 A 
ATOM     17  C   UNL     1       7.527   2.552  11.613  0.00  0.00    +0.000 A 
ENDBRANCH  11  12
ENDBRANCH  10  11
ENDBRANCH   9  10
ENDBRANCH   1   9
BRANCH   4  18
ATOM     18  C   UNL     1       3.396   5.876  19.394  0.00  0.00    +0.000 C 
BRANCH  18  19
ATOM     19  C   UNL     1       2.587   7.178  19.235  0.00  0.00    +0.000 A 
ATOM     20  C   UNL     1       1.938   7.762  20.337  0.00  0.00    +0.000 A 
ATOM     21  C   UNL     1       1.107   8.871  20.172  0.00  0.00    +0.000 A 
ATOM     22  C   UNL     1       0.915   9.414  18.904  0.00  0.00    +0.000 A 
ATOM     23  C   UNL     1       1.566   8.860  17.803  0.00  0.00    +0.000 A 
ATOM     24  C   UNL     1       2.403   7.753  17.965  0.00  0.00    +0.000 A 
ENDBRANCH  18  19
BRANCH  18  25
ATOM     25  C   UNL     1       2.439   4.710  19.693  0.00  0.00    +0.000 A 
ATOM     26  C   UNL     1       2.397   4.162  20.988  0.00  0.00    +0.000 A 
ATOM     27  C   UNL     1       1.511   3.128  21.300  0.00  0.00    +0.000 A 
ATOM     28  C   UNL     1       0.655   2.624  20.325  0.00  0.00    +0.000 A 
ATOM     29  C   UNL     1       0.678   3.156  19.039  0.00  0.00    +0.000 A 
ATOM     30  C   UNL     1       1.555   4.198  18.728  0.00  0.00    +0.000 A 
ENDBRANCH  18  25
ENDBRANCH   4  18
TORSDOF 8
ENDMDL
MODEL 5
REMARK VINA RESULT:      -8.3      0.952      1.417
REMARK  Name = 
REMARK  8 active torsions:
REMARK  status: ('A' for Active; 'I' for Inactive)
REMARK    1  A    between atoms: O_1  and  C_2
REMARK    2  A    between atoms: C_2  and  C_3
REMARK    3  A    between atoms: C_3  and  C_4
REMARK    4  A    between atoms: C_4  and  C_5
REMARK    5  A    between atoms: C_5  and  C_6
REMARK    6  A    between atoms: N_14  and  C_15
REMARK    7  A    between atoms: C_15  and  C_16
REMARK    8  A    between atoms: C_15  and  C_22
REMARK                            x       y       z     vdW  Elec       q    Type
REMARK                         _______ _______ _______ _____ _____    ______ ____
ROOT
ATOM      1  C   UNL     1       6.125   5.019  16.863  0.00  0.00    +0.000 C 
ATOM      2  C   UNL     1       6.515   5.647  18.205  0.00  0.00    +0.000 C 
ATOM      3  C   UNL     1       5.394   5.551  19.235  0.00  0.00    +0.000 C 
ATOM      4  N   UNL     1       4.147   6.176  18.745  0.00  0.00    +0.000 NA
ATOM      5  C   UNL     1       3.708   5.433  17.545  0.00  0.00    +0.000 C 
ATOM      6  C   UNL     1       4.753   5.549  16.427  0.00  0.00    +0.000 C 
ENDROOT
BRANCH   1   7
ATOM      7  O   UNL     1       6.000   3.599  17.017  0.00  0.00    +0.000 OA
ATOM      8  H   UNL     1       6.051   3.188  16.138  0.00  0.00    +0.000 HD
ENDBRANCH   1   7
BRANCH   1   9
ATOM      9  C   UNL     1       7.180   5.310  15.767  0.00  0.00    +0.000 C 
BRANCH   9  10
ATOM     10  C   UNL     1       7.258   4.220  14.692  0.00  0.00    +0.000 C 
BRANCH  10  11
ATOM     11  C   UNL     1       6.991   4.751  13.283  0.00  0.00    +0.000 C 
BRANCH  11  12
ATOM     12  C   UNL     1       6.236   3.702  12.501  0.00  0.00    +0.000 A 
ATOM     13  C   UNL     1       6.912   2.610  11.947  0.00  0.00    +0.000 A 
ATOM     14  C   UNL     1       6.238   1.705  11.124  0.00  0.00    +0.000 A 
ATOM     15  C   UNL     1       4.884   1.887  10.852  0.00  0.00    +0.000 A 
ATOM     16  C   UNL     1       4.199   2.966  11.407  0.00  0.00    +0.000 A 
ATOM     17  C   UNL     1       4.870   3.871  12.229  0.00  0.00    +0.000 A 
ENDBRANCH  11  12
ENDBRANCH  10  11
ENDBRANCH   9  10
ENDBRANCH   1   9
BRANCH   4  18
ATOM     18  C   UNL     1       3.110   6.179  19.828  0.00  0.00    +0.000 C 
BRANCH  18  19
ATOM     19  C   UNL     1       2.175   7.395  19.689  0.00  0.00    +0.000 A 
ATOM     20  C   UNL     1       2.139   8.145  18.500  0.00  0.00    +0.000 A 
ATOM     21  C   UNL     1       1.384   9.315  18.414  0.00  0.00    +0.000 A 
ATOM     22  C   UNL     1       0.652   9.753  19.515  0.00  0.00    +0.000 A 
ATOM     23  C   UNL     1       0.660   9.012  20.696  0.00  0.00    +0.000 A 
ATOM     24  C   UNL     1       1.411   7.837  20.783  0.00  0.00    +0.000 A 
ENDBRANCH  18  19
BRANCH  18  25
ATOM     25  C   UNL     1       2.272   4.896  19.942  0.00  0.00    +0.000 A 
ATOM     26  C   UNL     1       1.605   4.400  18.806  0.00  0.00    +0.000 A 
ATOM     27  C   UNL     1       0.868   3.215  18.868  0.00  0.00    +0.000 A 
ATOM     28  C   UNL     1       0.783   2.508  20.065  0.00  0.00    +0.000 A 
ATOM     29  C   UNL     1       1.440   2.979  21.198  0.00  0.00    +0.000 A 
ATOM     30  C   UNL     1       2.188   4.157  21.135  0.00  0.00    +0.000 A 
ENDBRANCH  18  25
ENDBRANCH   4  18
TORSDOF 8
ENDMDL
MODEL 6
REMARK VINA RESULT:      -8.3      0.798      1.254
REMARK  Name = 
REMARK  8 active torsions:
REMARK  status: ('A' for Active; 'I' for Inactive)
REMARK    1  A    between atoms: O_1  and  C_2
REMARK    2  A    between atoms: C_2  and  C_3
REMARK    3  A    between atoms: C_3  and  C_4
REMARK    4  A    between atoms: C_4  and  C_5
REMARK    5  A    between atoms: C_5  and  C_6
REMARK    6  A    between atoms: N_14  and  C_15
REMARK    7  A    between atoms: C_15  and  C_16
REMARK    8  A    between atoms: C_15  and  C_22
REMARK                            x       y       z     vdW  Elec       q    Type
REMARK                         _______ _______ _______ _____ _____    ______ ____
ROOT
ATOM      1  C   UNL     1       6.648   5.116  16.711  0.00  0.00    +0.000 C 
ATOM      2  C   UNL     1       6.568   6.463  17.437  0.00  0.00    +0.000 C 
ATOM      3  C   UNL     1       5.615   6.423  18.627  0.00  0.00    +0.000 C 
ATOM      4  N   UNL     1       4.256   6.001  18.224  0.00  0.00    +0.000 NA
ATOM      5  C   UNL     1       4.348   4.628  17.686  0.00  0.00    +0.000 C 
ATOM      6  C   UNL     1       5.232   4.598  16.431  0.00  0.00    +0.000 C 
ENDROOT
BRANCH   1   7
ATOM      7  O   UNL     1       7.291   4.153  17.558  0.00  0.00    +0.000 OA
ATOM      8  H   UNL     1       8.231   4.386  17.630  0.00  0.00    +0.000 HD
ENDBRANCH   1   7
BRANCH   1   9
ATOM      9  C   UNL     1       7.445   5.225  15.388  0.00  0.00    +0.000 C 
BRANCH   9  10
ATOM     10  C   UNL     1       7.127   4.104  14.391  0.00  0.00    +0.000 C 
BRANCH  10  11
ATOM     11  C   UNL     1       6.780   4.628  12.996  0.00  0.00    +0.000 C 
BRANCH  11  12
ATOM     12  C   UNL     1       5.959   3.585  12.274  0.00  0.00    +0.000 A 
ATOM     13  C   UNL     1       6.535   2.367  11.900  0.00  0.00    +0.000 A 
ATOM     14  C   UNL     1       5.814   1.452  11.129  0.00  0.00    +0.000 A 
ATOM     15  C   UNL     1       4.514   1.752  10.727  0.00  0.00    +0.000 A 
ATOM     16  C   UNL     1       3.928   2.958  11.104  0.00  0.00    +0.000 A 
ATOM     17  C   UNL     1       4.646   3.873  11.874  0.00  0.00    +0.000 A 
ENDBRANCH  11  12
ENDBRANCH  10  11
ENDBRANCH   9  10
ENDBRANCH   1   9
BRANCH   4  18
ATOM     18  C   UNL     1       3.318   6.098  19.390  0.00  0.00    +0.000 C 
BRANCH  18  19
ATOM     19  C   UNL     1       2.463   7.377  19.302  0.00  0.00    +0.000 A 
ATOM     20  C   UNL     1       1.748   7.844  20.419  0.00  0.00    +0.000 A 
ATOM     21  C   UNL     1       0.880   8.930  20.309  0.00  0.00    +0.000 A 
ATOM     22  C   UNL     1       0.714   9.566  19.081  0.00  0.00    +0.000 A 
ATOM     23  C   UNL     1       1.429   9.129  17.967  0.00  0.00    +0.000 A 
ATOM     24  C   UNL     1       2.304   8.046  18.076  0.00  0.00    +0.000 A 
ENDBRANCH  18  19
BRANCH  18  25
ATOM     25  C   UNL     1       2.403   4.881  19.603  0.00  0.00    +0.000 A 
ATOM     26  C   UNL     1       2.314   4.295  20.879  0.00  0.00    +0.000 A 
ATOM     27  C   UNL     1       1.462   3.213  21.113  0.00  0.00    +0.000 A 
ATOM     28  C   UNL     1       0.688   2.698  20.076  0.00  0.00    +0.000 A 
ATOM     29  C   UNL     1       0.758   3.267  18.808  0.00  0.00    +0.000 A 
ATOM     30  C   UNL     1       1.600   4.357  18.575  0.00  0.00    +0.000 A 
ENDBRANCH  18  25
ENDBRANCH   4  18
TORSDOF 8
ENDMDL
MODEL 7
REMARK VINA RESULT:      -8.2      4.122      8.729
REMARK  Name = 
REMARK  8 active torsions:
REMARK  status: ('A' for Active; 'I' for Inactive)
REMARK    1  A    between atoms: O_1  and  C_2
REMARK    2  A    between atoms: C_2  and  C_3
REMARK    3  A    between atoms: C_3  and  C_4
REMARK    4  A    between atoms: C_4  and  C_5
REMARK    5  A    between atoms: C_5  and  C_6
REMARK    6  A    between atoms: N_14  and  C_15
REMARK    7  A    between atoms: C_15  and  C_16
REMARK    8  A    between atoms: C_15  and  C_22
REMARK                            x       y       z     vdW  Elec       q    Type
REMARK                         _______ _______ _______ _____ _____    ______ ____
ROOT
ATOM      1  C   UNL     1       0.776   9.864  19.903  0.00  0.00    +0.000 C 
ATOM      2  C   UNL     1       1.453   9.898  18.529  0.00  0.00    +0.000 C 
ATOM      3  C   UNL     1       1.697   8.500  17.969  0.00  0.00    +0.000 C 
ATOM      4  N   UNL     1       2.505   7.676  18.894  0.00  0.00    +0.000 NA
ATOM      5  C   UNL     1       1.741   7.521  20.150  0.00  0.00    +0.000 C 
ATOM      6  C   UNL     1       1.521   8.885  20.819  0.00  0.00    +0.000 C 
ENDROOT
BRANCH   1   7
ATOM      7  O   UNL     1      -0.565   9.374  19.763  0.00  0.00    +0.000 OA
ATOM      8  H   UNL     1      -1.173  10.131  19.790  0.00  0.00    +0.000 HD
ENDBRANCH   1   7
BRANCH   1   9
ATOM      9  C   UNL     1       0.728  11.269  20.553  0.00  0.00    +0.000 C 
BRANCH   9  10
ATOM     10  C   UNL     1       0.245  12.366  19.597  0.00  0.00    +0.000 C 
BRANCH  10  11
ATOM     11  C   UNL     1      -1.154  12.882  19.940  0.00  0.00    +0.000 C 
BRANCH  11  12
ATOM     12  C   UNL     1      -2.157  12.218  19.025  0.00  0.00    +0.000 A 
ATOM     13  C   UNL     1      -1.763  11.748  17.768  0.00  0.00    +0.000 A 
ATOM     14  C   UNL     1      -2.710  11.244  16.874  0.00  0.00    +0.000 A 
ATOM     15  C   UNL     1      -4.056  11.209  17.232  0.00  0.00    +0.000 A 
ATOM     16  C   UNL     1      -4.456  11.665  18.486  0.00  0.00    +0.000 A 
ATOM     17  C   UNL     1      -3.512  12.169  19.380  0.00  0.00    +0.000 A 
ENDBRANCH  11  12
ENDBRANCH  10  11
ENDBRANCH   9  10
ENDBRANCH   1   9
BRANCH   4  18
ATOM     18  C   UNL     1       2.834   6.358  18.258  0.00  0.00    +0.000 C 
BRANCH  18  19
ATOM     19  C   UNL     1       4.359   6.151  18.183  0.00  0.00    +0.000 A 
ATOM     20  C   UNL     1       5.037   5.420  19.175  0.00  0.00    +0.000 A 
ATOM     21  C   UNL     1       6.429   5.333  19.174  0.00  0.00    +0.000 A 
ATOM     22  C   UNL     1       7.165   5.976  18.181  0.00  0.00    +0.000 A 
ATOM     23  C   UNL     1       6.509   6.689  17.179  0.00  0.00    +0.000 A 
ATOM     24  C   UNL     1       5.115   6.772  17.174  0.00  0.00    +0.000 A 
ENDBRANCH  18  19
BRANCH  18  25
ATOM     25  C   UNL     1       2.180   5.130  18.911  0.00  0.00    +0.000 A 
ATOM     26  C   UNL     1       1.602   4.137  18.097  0.00  0.00    +0.000 A 
ATOM     27  C   UNL     1       1.035   2.991  18.658  0.00  0.00    +0.000 A 
ATOM     28  C   UNL     1       1.033   2.818  20.040  0.00  0.00    +0.000 A 
ATOM     29  C   UNL     1       1.604   3.786  20.862  0.00  0.00    +0.000 A 
ATOM     30  C   UNL     1       2.182   4.927  20.302  0.00  0.00    +0.000 A 
ENDBRANCH  18  25
ENDBRANCH   4  18
TORSDOF 8
ENDMDL
MODEL 8
REMARK VINA RESULT:      -8.1      3.859      8.899
REMARK  Name = 
REMARK  8 active torsions:
REMARK  status: ('A' for Active; 'I' for Inactive)
REMARK    1  A    between atoms: O_1  and  C_2
REMARK    2  A    between atoms: C_2  and  C_3
REMARK    3  A    between atoms: C_3  and  C_4
REMARK    4  A    between atoms: C_4  and  C_5
REMARK    5  A    between atoms: C_5  and  C_6
REMARK    6  A    between atoms: N_14  and  C_15
REMARK    7  A    between atoms: C_15  and  C_16
REMARK    8  A    between atoms: C_15  and  C_22
REMARK                            x       y       z     vdW  Elec       q    Type
REMARK                         _______ _______ _______ _____ _____    ______ ____
ROOT
ATOM      1  C   UNL     1       0.754   9.816  20.199  0.00  0.00    +0.000 C 
ATOM      2  C   UNL     1       1.492   9.849  18.856  0.00  0.00    +0.000 C 
ATOM      3  C   UNL     1       1.691   8.455  18.271  0.00  0.00    +0.000 C 
ATOM      4  N   UNL     1       2.415   7.568  19.207  0.00  0.00    +0.000 NA
ATOM      5  C   UNL     1       1.590   7.422  20.424  0.00  0.00    +0.000 C 
ATOM      6  C   UNL     1       1.409   8.779  21.120  0.00  0.00    +0.000 C 
ENDROOT
BRANCH   1   7
ATOM      7  O   UNL     1      -0.602   9.399  19.989  0.00  0.00    +0.000 OA
ATOM      8  H   UNL     1      -1.173   9.893  20.600  0.00  0.00    +0.000 HD
ENDBRANCH   1   7
BRANCH   1   9
ATOM      9  C   UNL     1       0.748  11.206  20.883  0.00  0.00    +0.000 C 
BRANCH   9  10
ATOM     10  C   UNL     1      -0.661  11.770  21.102  0.00  0.00    +0.000 C 
BRANCH  10  11
ATOM     11  C   UNL     1      -1.013  12.890  20.122  0.00  0.00    +0.000 C 
BRANCH  11  12
ATOM     12  C   UNL     1      -2.017  12.365  19.123  0.00  0.00    +0.000 A 
ATOM     13  C   UNL     1      -3.371  12.277  19.461  0.00  0.00    +0.000 A 
ATOM     14  C   UNL     1      -4.281  11.682  18.585  0.00  0.00    +0.000 A 
ATOM     15  C   UNL     1      -3.841  11.171  17.365  0.00  0.00    +0.000 A 
ATOM     16  C   UNL     1      -2.496  11.263  17.015  0.00  0.00    +0.000 A 
ATOM     17  C   UNL     1      -1.586  11.857  17.889  0.00  0.00    +0.000 A 
ENDBRANCH  11  12
ENDBRANCH  10  11
ENDBRANCH   9  10
ENDBRANCH   1   9
BRANCH   4  18
ATOM     18  C   UNL     1       2.706   6.252  18.551  0.00  0.00    +0.000 C 
BRANCH  18  19
ATOM     19  C   UNL     1       4.211   6.106  18.257  0.00  0.00    +0.000 A 
ATOM     20  C   UNL     1       4.753   6.547  17.037  0.00  0.00    +0.000 A 
ATOM     21  C   UNL     1       6.091   6.307  16.720  0.00  0.00    +0.000 A 
ATOM     22  C   UNL     1       6.906   5.623  17.618  0.00  0.00    +0.000 A 
ATOM     23  C   UNL     1       6.391   5.194  18.841  0.00  0.00    +0.000 A 
ATOM     24  C   UNL     1       5.054   5.439  19.164  0.00  0.00    +0.000 A 
ENDBRANCH  18  19
BRANCH  18  25
ATOM     25  C   UNL     1       2.208   5.012  19.311  0.00  0.00    +0.000 A 
ATOM     26  C   UNL     1       2.491   4.879  20.683  0.00  0.00    +0.000 A 
ATOM     27  C   UNL     1       2.019   3.784  21.410  0.00  0.00    +0.000 A 
ATOM     28  C   UNL     1       1.258   2.803  20.779  0.00  0.00    +0.000 A 
ATOM     29  C   UNL     1       0.963   2.919  19.424  0.00  0.00    +0.000 A 
ATOM     30  C   UNL     1       1.424   4.019  18.698  0.00  0.00    +0.000 A 
ENDBRANCH  18  25
ENDBRANCH   4  18
TORSDOF 8
ENDMDL
MODEL 9
REMARK VINA RESULT:      -8.1      3.333      8.770
REMARK  Name = 
REMARK  8 active torsions:
REMARK  status: ('A' for Active; 'I' for Inactive)
REMARK    1  A    between atoms: O_1  and  C_2
REMARK    2  A    between atoms: C_2  and  C_3
REMARK    3  A    between atoms: C_3  and  C_4
REMARK    4  A    between atoms: C_4  and  C_5
REMARK    5  A    between atoms: C_5  and  C_6
REMARK    6  A    between atoms: N_14  and  C_15
REMARK    7  A    between atoms: C_15  and  C_16
REMARK    8  A    between atoms: C_15  and  C_22
REMARK                            x       y       z     vdW  Elec       q    Type
REMARK                         _______ _______ _______ _____ _____    ______ ____
ROOT
ATOM      1  C   UNL     1       0.934   9.823  19.773  0.00  0.00    +0.000 C 
ATOM      2  C   UNL     1       1.576   9.733  18.385  0.00  0.00    +0.000 C 
ATOM      3  C   UNL     1       1.632   8.301  17.864  0.00  0.00    +0.000 C 
ATOM      4  N   UNL     1       2.355   7.410  18.797  0.00  0.00    +0.000 NA
ATOM      5  C   UNL     1       1.610   7.387  20.073  0.00  0.00    +0.000 C 
ATOM      6  C   UNL     1       1.576   8.786  20.704  0.00  0.00    +0.000 C 
ENDROOT
BRANCH   1   7
ATOM      7  O   UNL     1      -0.460   9.499  19.678  0.00  0.00    +0.000 OA
ATOM      8  H   UNL     1      -0.577   8.567  19.925  0.00  0.00    +0.000 HD
ENDBRANCH   1   7
BRANCH   1   9
ATOM      9  C   UNL     1       1.076  11.241  20.379  0.00  0.00    +0.000 C 
BRANCH   9  10
ATOM     10  C   UNL     1       1.268  12.338  19.325  0.00  0.00    +0.000 C 
BRANCH  10  11
ATOM     11  C   UNL     1       0.220  13.448  19.422  0.00  0.00    +0.000 C 
BRANCH  11  12
ATOM     12  C   UNL     1      -1.131  12.877  19.059  0.00  0.00    +0.000 A 
ATOM     13  C   UNL     1      -2.188  12.926  19.974  0.00  0.00    +0.000 A 
ATOM     14  C   UNL     1      -3.399  12.293  19.688  0.00  0.00    +0.000 A 
ATOM     15  C   UNL     1      -3.560  11.607  18.486  0.00  0.00    +0.000 A 
ATOM     16  C   UNL     1      -2.517  11.562  17.564  0.00  0.00    +0.000 A 
ATOM     17  C   UNL     1      -1.306  12.193  17.848  0.00  0.00    +0.000 A 
ENDBRANCH  11  12
ENDBRANCH  10  11
ENDBRANCH   9  10
ENDBRANCH   1   9
BRANCH   4  18
ATOM     18  C   UNL     1       2.503   6.044  18.196  0.00  0.00    +0.000 C 
BRANCH  18  19
ATOM     19  C   UNL     1       3.923   5.844  17.633  0.00  0.00    +0.000 A 
ATOM     20  C   UNL     1       4.860   6.892  17.651  0.00  0.00    +0.000 A 
ATOM     21  C   UNL     1       6.103   6.751  17.033  0.00  0.00    +0.000 A 
ATOM     22  C   UNL     1       6.429   5.559  16.390  0.00  0.00    +0.000 A 
ATOM     23  C   UNL     1       5.520   4.502  16.379  0.00  0.00    +0.000 A 
ATOM     24  C   UNL     1       4.277   4.638  17.001  0.00  0.00    +0.000 A 
ENDBRANCH  18  19
BRANCH  18  25
ATOM     25  C   UNL     1       2.149   4.872  19.126  0.00  0.00    +0.000 A 
ATOM     26  C   UNL     1       2.769   4.775  20.386  0.00  0.00    +0.000 A 
ATOM     27  C   UNL     1       2.439   3.744  21.269  0.00  0.00    +0.000 A 
ATOM     28  C   UNL     1       1.487   2.794  20.908  0.00  0.00    +0.000 A 
ATOM     29  C   UNL     1       0.859   2.876  19.668  0.00  0.00    +0.000 A 
ATOM     30  C   UNL     1       1.179   3.912  18.789  0.00  0.00    +0.000 A 
ENDBRANCH  18  25
ENDBRANCH   4  18
TORSDOF 8
ENDMDL
