MODEL 1
REMARK VINA RESULT:      -8.4      0.000      0.000
REMARK  Name = 
REMARK  7 active torsions:
REMARK  status: ('A' for Active; 'I' for Inactive)
REMARK    1  A    between atoms: C_1  and  C_2
REMARK    2  A    between atoms: C_2  and  C_3
REMARK    3  A    between atoms: C_2  and  C_4
REMARK    4  A    between atoms: C_6  and  C_7
REMARK    5  A    between atoms: C_7  and  N_8
REMARK    6  A    between atoms: N_8  and  C_9
REMARK    7  A    between atoms: C_11  and  C_12
REMARK                            x       y       z     vdW  Elec       q    Type
REMARK                         _______ _______ _______ _____ _____    ______ ____
ROOT
ATOM      1  C   UNL     1       3.387   6.556  18.246  0.00  0.00    +0.000 A 
ATOM      2  C   UNL     1       2.351   5.743  18.741  0.00  0.00    +0.000 A 
ATOM      3  C   UNL     1       2.535   4.374  19.016  0.00  0.00    +0.000 A 
ATOM      4  C   UNL     1       3.791   3.802  18.800  0.00  0.00    +0.000 A 
ATOM      5  C   UNL     1       4.835   4.584  18.309  0.00  0.00    +0.000 A 
ATOM      6  C   UNL     1       4.644   5.949  18.042  0.00  0.00    +0.000 A 
ATOM      7  O   UNL     1       5.698   6.744  17.652  0.00  0.00    +0.000 OA
ATOM      8  C   UNL     1       6.749   6.056  17.000  0.00  0.00    +0.000 C 
ATOM      9  C   UNL     1       7.120   4.677  17.525  0.00  0.00    +0.000 C 
ATOM     10  O   UNL     1       8.223   4.163  17.364  0.00  0.00    +0.000 OA
ATOM     11  N   UNL     1       6.089   3.997  18.116  0.00  0.00    +0.000 N 
ATOM     12  H   UNL     1       6.275   3.044  18.401  0.00  0.00    +0.000 HD
ENDROOT
BRANCH   3  13
ATOM     13  C   UNL     1       1.403   3.526  19.543  0.00  0.00    +0.000 C 
ATOM     14  F   UNL     1       1.807   2.509  20.354  0.00  0.00    +0.000 F 
ATOM     15  F   UNL     1       0.509   4.251  20.267  0.00  0.00    +0.000 F 
ATOM     16  F   UNL     1       0.684   2.942  18.542  0.00  0.00    +0.000 F 
ENDBRANCH   3  13
BRANCH   1  17
ATOM     17  N   UNL     1       3.122   7.912  18.115  0.00  0.00    +0.000 N 
ATOM     18  H   UNL     1       3.682   8.565  18.659  0.00  0.00    +0.000 HD
BRANCH  17  19
ATOM     19  C   UNL     1       1.797   8.452  17.824  0.00  0.00    +0.000 C 
BRANCH  19  22
ATOM     20  C   UNL     1       0.340  10.261  20.604  0.00  0.00    +0.000 A 
ATOM     21  N   UNL     1       0.666   9.183  19.922  0.00  0.00    +0.000 NA
ATOM     22  C   UNL     1       1.334   9.539  18.758  0.00  0.00    +0.000 A 
ATOM     23  C   UNL     1       1.490  10.899  18.573  0.00  0.00    +0.000 A 
ATOM     24  S   UNL     1       0.811  11.754  19.894  0.00  0.00    +0.000 S 
BRANCH  20  26
ATOM     25  C   UNL     1       0.354   9.411  22.932  0.00  0.00    +0.000 C 
ATOM     26  C   UNL     1      -0.424  10.229  21.898  0.00  0.00    +0.000 C 
ATOM     27  C   UNL     1      -0.669  11.650  22.407  0.00  0.00    +0.000 C 
ENDBRANCH  20  26
ENDBRANCH  19  22
ENDBRANCH  17  19
ENDBRANCH   1  17
TORSDOF 5
ENDMDL
MODEL 2
REMARK VINA RESULT:      -8.4      1.562      2.141
REMARK  Name = 
REMARK  7 active torsions:
REMARK  status: ('A' for Active; 'I' for Inactive)
REMARK    1  A    between atoms: C_1  and  C_2
REMARK    2  A    between atoms: C_2  and  C_3
REMARK    3  A    between atoms: C_2  and  C_4
REMARK    4  A    between atoms: C_6  and  C_7
REMARK    5  A    between atoms: C_7  and  N_8
REMARK    6  A    between atoms: N_8  and  C_9
REMARK    7  A    between atoms: C_11  and  C_12
REMARK                            x       y       z     vdW  Elec       q    Type
REMARK                         _______ _______ _______ _____ _____    ______ ____
ROOT
ATOM      1  C   UNL     1       2.977   5.856  18.159  0.00  0.00    +0.000 A 
ATOM      2  C   UNL     1       2.226   5.099  19.076  0.00  0.00    +0.000 A 
ATOM      3  C   UNL     1       2.762   3.984  19.749  0.00  0.00    +0.000 A 
ATOM      4  C   UNL     1       4.090   3.622  19.509  0.00  0.00    +0.000 A 
ATOM      5  C   UNL     1       4.856   4.355  18.604  0.00  0.00    +0.000 A 
ATOM      6  C   UNL     1       4.315   5.466  17.941  0.00  0.00    +0.000 A 
ATOM      7  O   UNL     1       5.099   6.249  17.123  0.00  0.00    +0.000 OA
ATOM      8  C   UNL     1       6.211   5.584  16.555  0.00  0.00    +0.000 C 
ATOM      9  C   UNL     1       6.957   4.586  17.430  0.00  0.00    +0.000 C 
ATOM     10  O   UNL     1       8.129   4.268  17.249  0.00  0.00    +0.000 OA
ATOM     11  N   UNL     1       6.189   3.986  18.390  0.00  0.00    +0.000 N 
ATOM     12  H   UNL     1       6.628   3.256  18.935  0.00  0.00    +0.000 HD
ENDROOT
BRANCH   3  13
ATOM     13  C   UNL     1       1.931   3.188  20.725  0.00  0.00    +0.000 C 
ATOM     14  F   UNL     1       2.535   2.984  21.927  0.00  0.00    +0.000 F 
ATOM     15  F   UNL     1       0.742   3.789  20.999  0.00  0.00    +0.000 F 
ATOM     16  F   UNL     1       1.619   1.949  20.248  0.00  0.00    +0.000 F 
ENDBRANCH   3  13
BRANCH   1  17
ATOM     17  N   UNL     1       2.380   6.996  17.637  0.00  0.00    +0.000 N 
ATOM     18  H   UNL     1       2.139   7.002  16.649  0.00  0.00    +0.000 HD
BRANCH  17  19
ATOM     19  C   UNL     1       2.637   8.344  18.136  0.00  0.00    +0.000 C 
BRANCH  19  22
ATOM     20  C   UNL     1      -0.374  10.193  18.932  0.00  0.00    +0.000 A 
ATOM     21  N   UNL     1       0.552   9.710  18.130  0.00  0.00    +0.000 NA
ATOM     22  C   UNL     1       1.483   8.984  18.861  0.00  0.00    +0.000 A 
ATOM     23  C   UNL     1       1.248   8.945  20.222  0.00  0.00    +0.000 A 
ATOM     24  S   UNL     1      -0.183   9.810  20.596  0.00  0.00    +0.000 S 
BRANCH  20  26
ATOM     25  C   UNL     1      -1.017  12.486  18.244  0.00  0.00    +0.000 C 
ATOM     26  C   UNL     1      -1.513  11.055  18.464  0.00  0.00    +0.000 C 
ATOM     27  C   UNL     1      -2.115  10.489  17.177  0.00  0.00    +0.000 C 
ENDBRANCH  20  26
ENDBRANCH  19  22
ENDBRANCH  17  19
ENDBRANCH   1  17
TORSDOF 5
ENDMDL
MODEL 3
REMARK VINA RESULT:      -8.2      1.690      2.357
REMARK  Name = 
REMARK  7 active torsions:
REMARK  status: ('A' for Active; 'I' for Inactive)
REMARK    1  A    between atoms: C_1  and  C_2
REMARK    2  A    between atoms: C_2  and  C_3
REMARK    3  A    between atoms: C_2  and  C_4
REMARK    4  A    between atoms: C_6  and  C_7
REMARK    5  A    between atoms: C_7  and  N_8
REMARK    6  A    between atoms: N_8  and  C_9
REMARK    7  A    between atoms: C_11  and  C_12
REMARK                            x       y       z     vdW  Elec       q    Type
REMARK                         _______ _______ _______ _____ _____    ______ ____
ROOT
ATOM      1  C   UNL     1       2.951   6.054  18.279  0.00  0.00    +0.000 A 
ATOM      2  C   UNL     1       2.213   5.298  19.207  0.00  0.00    +0.000 A 
ATOM      3  C   UNL     1       2.744   4.161  19.844  0.00  0.00    +0.000 A 
ATOM      4  C   UNL     1       4.055   3.772  19.554  0.00  0.00    +0.000 A 
ATOM      5  C   UNL     1       4.808   4.503  18.637  0.00  0.00    +0.000 A 
ATOM      6  C   UNL     1       4.271   5.638  18.010  0.00  0.00    +0.000 A 
ATOM      7  O   UNL     1       5.046   6.417  17.180  0.00  0.00    +0.000 OA
ATOM      8  C   UNL     1       6.124   5.736  16.565  0.00  0.00    +0.000 C 
ATOM      9  C   UNL     1       6.874   4.707  17.397  0.00  0.00    +0.000 C 
ATOM     10  O   UNL     1       8.032   4.365  17.172  0.00  0.00    +0.000 OA
ATOM     11  N   UNL     1       6.124   4.108  18.372  0.00  0.00    +0.000 N 
ATOM     12  H   UNL     1       6.563   3.358  18.890  0.00  0.00    +0.000 HD
ENDROOT
BRANCH   3  13
ATOM     13  C   UNL     1       1.927   3.367  20.833  0.00  0.00    +0.000 C 
ATOM     14  F   UNL     1       0.614   3.723  20.876  0.00  0.00    +0.000 F 
ATOM     15  F   UNL     1       1.945   2.033  20.565  0.00  0.00    +0.000 F 
ATOM     16  F   UNL     1       2.391   3.495  22.109  0.00  0.00    +0.000 F 
ENDBRANCH   3  13
BRANCH   1  17
ATOM     17  N   UNL     1       2.363   7.216  17.796  0.00  0.00    +0.000 N 
ATOM     18  H   UNL     1       2.165   7.275  16.800  0.00  0.00    +0.000 HD
BRANCH  17  19
ATOM     19  C   UNL     1       2.584   8.536  18.380  0.00  0.00    +0.000 C 
BRANCH  19  22
ATOM     20  C   UNL     1      -0.571  10.315  18.422  0.00  0.00    +0.000 A 
ATOM     21  N   UNL     1       0.452   9.715  17.850  0.00  0.00    +0.000 NA
ATOM     22  C   UNL     1       1.335   9.254  18.818  0.00  0.00    +0.000 A 
ATOM     23  C   UNL     1       0.963   9.531  20.120  0.00  0.00    +0.000 A 
ATOM     24  S   UNL     1      -0.535  10.362  20.139  0.00  0.00    +0.000 S 
BRANCH  20  26
ATOM     25  C   UNL     1      -2.270   9.955  16.654  0.00  0.00    +0.000 C 
ATOM     26  C   UNL     1      -1.693  10.958  17.655  0.00  0.00    +0.000 C 
ATOM     27  C   UNL     1      -2.779  11.449  18.613  0.00  0.00    +0.000 C 
ENDBRANCH  20  26
ENDBRANCH  19  22
ENDBRANCH  17  19
ENDBRANCH   1  17
TORSDOF 5
ENDMDL
MODEL 4
REMARK VINA RESULT:      -8.2      1.331      2.103
REMARK  Name = 
REMARK  7 active torsions:
REMARK  status: ('A' for Active; 'I' for Inactive)
REMARK    1  A    between atoms: C_1  and  C_2
REMARK    2  A    between atoms: C_2  and  C_3
REMARK    3  A    between atoms: C_2  and  C_4
REMARK    4  A    between atoms: C_6  and  C_7
REMARK    5  A    between atoms: C_7  and  N_8
REMARK    6  A    between atoms: N_8  and  C_9
REMARK    7  A    between atoms: C_11  and  C_12
REMARK                            x       y       z     vdW  Elec       q    Type
REMARK                         _______ _______ _______ _____ _____    ______ ____
ROOT
ATOM      1  C   UNL     1       3.438   6.597  18.338  0.00  0.00    +0.000 A 
ATOM      2  C   UNL     1       2.531   5.897  19.155  0.00  0.00    +0.000 A 
ATOM      3  C   UNL     1       2.826   4.630  19.694  0.00  0.00    +0.000 A 
ATOM      4  C   UNL     1       4.066   4.049  19.418  0.00  0.00    +0.000 A 
ATOM      5  C   UNL     1       4.983   4.720  18.610  0.00  0.00    +0.000 A 
ATOM      6  C   UNL     1       4.682   5.984  18.081  0.00  0.00    +0.000 A 
ATOM      7  O   UNL     1       5.623   6.691  17.366  0.00  0.00    +0.000 OA
ATOM      8  C   UNL     1       6.602   5.893  16.727  0.00  0.00    +0.000 C 
ATOM      9  C   UNL     1       7.119   4.677  17.479  0.00  0.00    +0.000 C 
ATOM     10  O   UNL     1       8.213   4.161  17.267  0.00  0.00    +0.000 OA
ATOM     11  N   UNL     1       6.225   4.128  18.359  0.00  0.00    +0.000 N 
ATOM     12  H   UNL     1       6.502   3.269  18.815  0.00  0.00    +0.000 HD
ENDROOT
BRANCH   3  13
ATOM     13  C   UNL     1       1.832   3.901  20.564  0.00  0.00    +0.000 C 
ATOM     14  F   UNL     1       2.119   3.955  21.894  0.00  0.00    +0.000 F 
ATOM     15  F   UNL     1       0.572   4.396  20.432  0.00  0.00    +0.000 F 
ATOM     16  F   UNL     1       1.746   2.576  20.254  0.00  0.00    +0.000 F 
ENDBRANCH   3  13
BRANCH   1  17
ATOM     17  N   UNL     1       3.083   7.883  17.954  0.00  0.00    +0.000 N 
ATOM     18  H   UNL     1       3.723   8.643  18.174  0.00  0.00    +0.000 HD
BRANCH  17  19
ATOM     19  C   UNL     1       1.702   8.349  17.869  0.00  0.00    +0.000 C 
BRANCH  19  22
ATOM     20  C   UNL     1       1.199  11.650  19.274  0.00  0.00    +0.000 A 
ATOM     21  N   UNL     1       1.549  10.793  18.337  0.00  0.00    +0.000 NA
ATOM     22  C   UNL     1       1.360   9.493  18.787  0.00  0.00    +0.000 A 
ATOM     23  C   UNL     1       0.878   9.391  20.078  0.00  0.00    +0.000 A 
ATOM     24  S   UNL     1       0.629  10.953  20.737  0.00  0.00    +0.000 S 
BRANCH  20  26
ATOM     25  C   UNL     1       2.420  13.472  18.119  0.00  0.00    +0.000 C 
ATOM     26  C   UNL     1       1.312  13.141  19.122  0.00  0.00    +0.000 C 
ATOM     27  C   UNL     1      -0.022  13.732  18.666  0.00  0.00    +0.000 C 
ENDBRANCH  20  26
ENDBRANCH  19  22
ENDBRANCH  17  19
ENDBRANCH   1  17
TORSDOF 5
ENDMDL
MODEL 5
REMARK VINA RESULT:      -8.2      4.015      5.702
REMARK  Name = 
REMARK  7 active torsions:
REMARK  status: ('A' for Active; 'I' for Inactive)
REMARK    1  A    between atoms: C_1  and  C_2
REMARK    2  A    between atoms: C_2  and  C_3
REMARK    3  A    between atoms: C_2  and  C_4
REMARK    4  A    between atoms: C_6  and  C_7
REMARK    5  A    between atoms: C_7  and  N_8
REMARK    6  A    between atoms: N_8  and  C_9
REMARK    7  A    between atoms: C_11  and  C_12
REMARK                            x       y       z     vdW  Elec       q    Type
REMARK                         _______ _______ _______ _____ _____    ______ ____
ROOT
ATOM      1  C   UNL     1       5.229   3.639  16.363  0.00  0.00    +0.000 A 
ATOM      2  C   UNL     1       5.321   3.316  14.997  0.00  0.00    +0.000 A 
ATOM      3  C   UNL     1       6.148   4.030  14.109  0.00  0.00    +0.000 A 
ATOM      4  C   UNL     1       6.913   5.091  14.600  0.00  0.00    +0.000 A 
ATOM      5  C   UNL     1       6.840   5.433  15.950  0.00  0.00    +0.000 A 
ATOM      6  C   UNL     1       6.016   4.713  16.828  0.00  0.00    +0.000 A 
ATOM      7  O   UNL     1       6.017   4.985  18.178  0.00  0.00    +0.000 OA
ATOM      8  C   UNL     1       6.391   6.308  18.514  0.00  0.00    +0.000 C 
ATOM      9  C   UNL     1       7.511   6.950  17.708  0.00  0.00    +0.000 C 
ATOM     10  O   UNL     1       8.208   7.869  18.128  0.00  0.00    +0.000 OA
ATOM     11  N   UNL     1       7.626   6.487  16.426  0.00  0.00    +0.000 N 
ATOM     12  H   UNL     1       8.304   6.949  15.833  0.00  0.00    +0.000 HD
ENDROOT
BRANCH   3  13
ATOM     13  C   UNL     1       6.224   3.663  12.647  0.00  0.00    +0.000 C 
ATOM     14  F   UNL     1       6.601   2.375  12.420  0.00  0.00    +0.000 F 
ATOM     15  F   UNL     1       5.032   3.822  12.013  0.00  0.00    +0.000 F 
ATOM     16  F   UNL     1       7.115   4.439  11.964  0.00  0.00    +0.000 F 
ENDBRANCH   3  13
BRANCH   1  17
ATOM     17  N   UNL     1       4.466   2.799  17.163  0.00  0.00    +0.000 N 
ATOM     18  H   UNL     1       4.736   1.820  17.226  0.00  0.00    +0.000 HD
BRANCH  17  19
ATOM     19  C   UNL     1       3.034   2.977  17.387  0.00  0.00    +0.000 C 
BRANCH  19  22
ATOM     20  C   UNL     1       2.417   5.901  19.434  0.00  0.00    +0.000 A 
ATOM     21  N   UNL     1       2.761   5.267  18.332  0.00  0.00    +0.000 NA
ATOM     22  C   UNL     1       2.678   3.895  18.526  0.00  0.00    +0.000 A 
ATOM     23  C   UNL     1       2.281   3.512  19.793  0.00  0.00    +0.000 A 
ATOM     24  S   UNL     1       1.978   4.896  20.757  0.00  0.00    +0.000 S 
BRANCH  20  26
ATOM     25  C   UNL     1       2.117   8.041  18.220  0.00  0.00    +0.000 C 
ATOM     26  C   UNL     1       2.431   7.397  19.573  0.00  0.00    +0.000 C 
ATOM     27  C   UNL     1       1.420   7.843  20.630  0.00  0.00    +0.000 C 
ENDBRANCH  20  26
ENDBRANCH  19  22
ENDBRANCH  17  19
ENDBRANCH   1  17
TORSDOF 5
ENDMDL
MODEL 6
REMARK VINA RESULT:      -8.2      1.096      1.399
REMARK  Name = 
REMARK  7 active torsions:
REMARK  status: ('A' for Active; 'I' for Inactive)
REMARK    1  A    between atoms: C_1  and  C_2
REMARK    2  A    between atoms: C_2  and  C_3
REMARK    3  A    between atoms: C_2  and  C_4
REMARK    4  A    between atoms: C_6  and  C_7
REMARK    5  A    between atoms: C_7  and  N_8
REMARK    6  A    between atoms: N_8  and  C_9
REMARK    7  A    between atoms: C_11  and  C_12
REMARK                            x       y       z     vdW  Elec       q    Type
REMARK                         _______ _______ _______ _____ _____    ______ ____
ROOT
ATOM      1  C   UNL     1       2.962   5.706  18.361  0.00  0.00    +0.000 A 
ATOM      2  C   UNL     1       2.381   4.905  19.361  0.00  0.00    +0.000 A 
ATOM      3  C   UNL     1       3.063   3.820  19.945  0.00  0.00    +0.000 A 
ATOM      4  C   UNL     1       4.365   3.533  19.528  0.00  0.00    +0.000 A 
ATOM      5  C   UNL     1       4.963   4.311  18.538  0.00  0.00    +0.000 A 
ATOM      6  C   UNL     1       4.278   5.393  17.964  0.00  0.00    +0.000 A 
ATOM      7  O   UNL     1       4.902   6.222  17.059  0.00  0.00    +0.000 OA
ATOM      8  C   UNL     1       5.964   5.622  16.341  0.00  0.00    +0.000 C 
ATOM      9  C   UNL     1       6.873   4.665  17.098  0.00  0.00    +0.000 C 
ATOM     10  O   UNL     1       8.027   4.413  16.761  0.00  0.00    +0.000 OA
ATOM     11  N   UNL     1       6.273   4.019  18.145  0.00  0.00    +0.000 N 
ATOM     12  H   UNL     1       6.821   3.312  18.620  0.00  0.00    +0.000 HD
ENDROOT
BRANCH   3  13
ATOM     13  C   UNL     1       2.413   2.974  21.013  0.00  0.00    +0.000 C 
ATOM     14  F   UNL     1       1.758   3.694  21.965  0.00  0.00    +0.000 F 
ATOM     15  F   UNL     1       1.498   2.109  20.500  0.00  0.00    +0.000 F 
ATOM     16  F   UNL     1       3.317   2.204  21.684  0.00  0.00    +0.000 F 
ENDBRANCH   3  13
BRANCH   1  17
ATOM     17  N   UNL     1       2.238   6.813  17.936  0.00  0.00    +0.000 N 
ATOM     18  H   UNL     1       1.770   6.762  17.034  0.00  0.00    +0.000 HD
BRANCH  17  19
ATOM     19  C   UNL     1       2.583   8.187  18.287  0.00  0.00    +0.000 C 
BRANCH  19  22
ATOM     20  C   UNL     1       0.166   9.701  20.520  0.00  0.00    +0.000 A 
ATOM     21  N   UNL     1       1.186   8.927  20.215  0.00  0.00    +0.000 NA
ATOM     22  C   UNL     1       1.450   9.002  18.853  0.00  0.00    +0.000 A 
ATOM     23  C   UNL     1       0.603   9.831  18.144  0.00  0.00    +0.000 A 
ATOM     24  S   UNL     1      -0.532  10.556  19.203  0.00  0.00    +0.000 S 
BRANCH  20  26
ATOM     25  C   UNL     1       0.628   9.327  22.926  0.00  0.00    +0.000 C 
ATOM     26  C   UNL     1      -0.400   9.824  21.907  0.00  0.00    +0.000 C 
ATOM     27  C   UNL     1      -0.789  11.274  22.196  0.00  0.00    +0.000 C 
ENDBRANCH  20  26
ENDBRANCH  19  22
ENDBRANCH  17  19
ENDBRANCH   1  17
TORSDOF 5
ENDMDL
MODEL 7
REMARK VINA RESULT:      -8.2      1.229      1.422
REMARK  Name = 
REMARK  7 active torsions:
REMARK  status: ('A' for Active; 'I' for Inactive)
REMARK    1  A    between atoms: C_1  and  C_2
REMARK    2  A    between atoms: C_2  and  C_3
REMARK    3  A    between atoms: C_2  and  C_4
REMARK    4  A    between atoms: C_6  and  C_7
REMARK    5  A    between atoms: C_7  and  N_8
REMARK    6  A    between atoms: N_8  and  C_9
REMARK    7  A    between atoms: C_11  and  C_12
REMARK                            x       y       z     vdW  Elec       q    Type
REMARK                         _______ _______ _______ _____ _____    ______ ____
ROOT
ATOM      1  C   UNL     1       2.897   6.176  18.275  0.00  0.00    +0.000 A 
ATOM      2  C   UNL     1       2.030   5.293  18.944  0.00  0.00    +0.000 A 
ATOM      3  C   UNL     1       2.123   3.895  18.801  0.00  0.00    +0.000 A 
ATOM      4  C   UNL     1       3.117   3.363  17.976  0.00  0.00    +0.000 A 
ATOM      5  C   UNL     1       3.988   4.216  17.300  0.00  0.00    +0.000 A 
ATOM      6  C   UNL     1       3.891   5.607  17.451  0.00  0.00    +0.000 A 
ATOM      7  O   UNL     1       4.812   6.446  16.864  0.00  0.00    +0.000 OA
ATOM      8  C   UNL     1       5.436   5.921  15.707  0.00  0.00    +0.000 C 
ATOM      9  C   UNL     1       5.794   4.443  15.710  0.00  0.00    +0.000 C 
ATOM     10  O   UNL     1       6.677   3.957  15.007  0.00  0.00    +0.000 OA
ATOM     11  N   UNL     1       4.987   3.663  16.492  0.00  0.00    +0.000 N 
ATOM     12  H   UNL     1       5.141   2.664  16.453  0.00  0.00    +0.000 HD
ENDROOT
BRANCH   3  13
ATOM     13  C   UNL     1       1.176   2.972  19.529  0.00  0.00    +0.000 C 
ATOM     14  F   UNL     1       1.791   1.926  20.147  0.00  0.00    +0.000 F 
ATOM     15  F   UNL     1       0.470   3.616  20.496  0.00  0.00    +0.000 F 
ATOM     16  F   UNL     1       0.249   2.421  18.695  0.00  0.00    +0.000 F 
ENDBRANCH   3  13
BRANCH   1  17
ATOM     17  N   UNL     1       2.781   7.527  18.574  0.00  0.00    +0.000 N 
ATOM     18  H   UNL     1       2.840   7.809  19.550  0.00  0.00    +0.000 HD
BRANCH  17  19
ATOM     19  C   UNL     1       1.979   8.463  17.791  0.00  0.00    +0.000 C 
BRANCH  19  22
ATOM     20  C   UNL     1       0.229  10.116  20.498  0.00  0.00    +0.000 A 
ATOM     21  N   UNL     1       1.150   9.333  19.975  0.00  0.00    +0.000 NA
ATOM     22  C   UNL     1       1.022   9.305  18.593  0.00  0.00    +0.000 A 
ATOM     23  C   UNL     1      -0.017  10.065  18.092  0.00  0.00    +0.000 A 
ATOM     24  S   UNL     1      -0.837  10.856  19.372  0.00  0.00    +0.000 S 
BRANCH  20  26
ATOM     25  C   UNL     1      -0.913  11.490  22.216  0.00  0.00    +0.000 C 
ATOM     26  C   UNL     1       0.068  10.340  21.976  0.00  0.00    +0.000 C 
ATOM     27  C   UNL     1      -0.420   9.062  22.658  0.00  0.00    +0.000 C 
ENDBRANCH  20  26
ENDBRANCH  19  22
ENDBRANCH  17  19
ENDBRANCH   1  17
TORSDOF 5
ENDMDL
MODEL 8
REMARK VINA RESULT:      -8.1      1.499      2.192
REMARK  Name = 
REMARK  7 active torsions:
REMARK  status: ('A' for Active; 'I' for Inactive)
REMARK    1  A    between atoms: C_1  and  C_2
REMARK    2  A    between atoms: C_2  and  C_3
REMARK    3  A    between atoms: C_2  and  C_4
REMARK    4  A    between atoms: C_6  and  C_7
REMARK    5  A    between atoms: C_7  and  N_8
REMARK    6  A    between atoms: N_8  and  C_9
REMARK    7  A    between atoms: C_11  and  C_12
REMARK                            x       y       z     vdW  Elec       q    Type
REMARK                         _______ _______ _______ _____ _____    ______ ____
ROOT
ATOM      1  C   UNL     1       2.970   6.005  17.944  0.00  0.00    +0.000 A 
ATOM      2  C   UNL     1       2.040   5.175  18.595  0.00  0.00    +0.000 A 
ATOM      3  C   UNL     1       2.414   3.971  19.221  0.00  0.00    +0.000 A 
ATOM      4  C   UNL     1       3.758   3.589  19.206  0.00  0.00    +0.000 A 
ATOM      5  C   UNL     1       4.701   4.392  18.566  0.00  0.00    +0.000 A 
ATOM      6  C   UNL     1       4.319   5.593  17.949  0.00  0.00    +0.000 A 
ATOM      7  O   UNL     1       5.262   6.435  17.403  0.00  0.00    +0.000 OA
ATOM      8  C   UNL     1       6.456   5.798  16.990  0.00  0.00    +0.000 C 
ATOM      9  C   UNL     1       6.997   4.679  17.866  0.00  0.00    +0.000 C 
ATOM     10  O   UNL     1       8.177   4.340  17.883  0.00  0.00    +0.000 OA
ATOM     11  N   UNL     1       6.044   4.001  18.576  0.00  0.00    +0.000 N 
ATOM     12  H   UNL     1       6.354   3.196  19.105  0.00  0.00    +0.000 HD
ENDROOT
BRANCH   3  13
ATOM     13  C   UNL     1       1.393   3.098  19.910  0.00  0.00    +0.000 C 
ATOM     14  F   UNL     1       0.476   2.551  19.066  0.00  0.00    +0.000 F 
ATOM     15  F   UNL     1       1.966   2.056  20.569  0.00  0.00    +0.000 F 
ATOM     16  F   UNL     1       0.677   3.782  20.848  0.00  0.00    +0.000 F 
ENDBRANCH   3  13
BRANCH   1  17
ATOM     17  N   UNL     1       2.505   7.219  17.457  0.00  0.00    +0.000 N 
ATOM     18  H   UNL     1       2.435   7.336  16.449  0.00  0.00    +0.000 HD
BRANCH  17  19
ATOM     19  C   UNL     1       2.716   8.496  18.133  0.00  0.00    +0.000 C 
BRANCH  19  22
ATOM     20  C   UNL     1      -0.427  10.110  18.930  0.00  0.00    +0.000 A 
ATOM     21  N   UNL     1       0.539   9.709  18.130  0.00  0.00    +0.000 NA
ATOM     22  C   UNL     1       1.513   9.038  18.857  0.00  0.00    +0.000 A 
ATOM     23  C   UNL     1       1.267   8.956  20.215  0.00  0.00    +0.000 A 
ATOM     24  S   UNL     1      -0.226   9.709  20.589  0.00  0.00    +0.000 S 
BRANCH  20  26
ATOM     25  C   UNL     1      -1.197  12.334  18.154  0.00  0.00    +0.000 C 
ATOM     26  C   UNL     1      -1.620  10.897  18.465  0.00  0.00    +0.000 C 
ATOM     27  C   UNL     1      -2.245  10.240  17.234  0.00  0.00    +0.000 C 
ENDBRANCH  20  26
ENDBRANCH  19  22
ENDBRANCH  17  19
ENDBRANCH   1  17
TORSDOF 5
ENDMDL
MODEL 9
REMARK VINA RESULT:      -8.1      1.350      2.116
REMARK  Name = 
REMARK  7 active torsions:
REMARK  status: ('A' for Active; 'I' for Inactive)
REMARK    1  A    between atoms: C_1  and  C_2
REMARK    2  A    between atoms: C_2  and  C_3
REMARK    3  A    between atoms: C_2  and  C_4
REMARK    4  A    between atoms: C_6  and  C_7
REMARK    5  A    between atoms: C_7  and  N_8
REMARK    6  A    between atoms: N_8  and  C_9
REMARK    7  A    between atoms: C_11  and  C_12
REMARK                            x       y       z     vdW  Elec       q    Type
REMARK                         _______ _______ _______ _____ _____    ______ ____
ROOT
ATOM      1  C   UNL     1       3.467   6.563  18.331  0.00  0.00    +0.000 A 
ATOM      2  C   UNL     1       2.549   5.877  19.146  0.00  0.00    +0.000 A 
ATOM      3  C   UNL     1       2.842   4.624  19.719  0.00  0.00    +0.000 A 
ATOM      4  C   UNL     1       4.091   4.045  19.481  0.00  0.00    +0.000 A 
ATOM      5  C   UNL     1       5.018   4.704  18.675  0.00  0.00    +0.000 A 
ATOM      6  C   UNL     1       4.719   5.953  18.112  0.00  0.00    +0.000 A 
ATOM      7  O   UNL     1       5.669   6.650  17.398  0.00  0.00    +0.000 OA
ATOM      8  C   UNL     1       6.666   5.845  16.797  0.00  0.00    +0.000 C 
ATOM      9  C   UNL     1       7.177   4.650  17.588  0.00  0.00    +0.000 C 
ATOM     10  O   UNL     1       8.278   4.137  17.408  0.00  0.00    +0.000 OA
ATOM     11  N   UNL     1       6.269   4.116  18.462  0.00  0.00    +0.000 N 
ATOM     12  H   UNL     1       6.543   3.269  18.943  0.00  0.00    +0.000 HD
ENDROOT
BRANCH   3  13
ATOM     13  C   UNL     1       1.836   3.909  20.587  0.00  0.00    +0.000 C 
ATOM     14  F   UNL     1       1.674   2.594  20.277  0.00  0.00    +0.000 F 
ATOM     15  F   UNL     1       2.174   3.945  21.904  0.00  0.00    +0.000 F 
ATOM     16  F   UNL     1       0.594   4.467  20.507  0.00  0.00    +0.000 F 
ENDBRANCH   3  13
BRANCH   1  17
ATOM     17  N   UNL     1       3.111   7.838  17.910  0.00  0.00    +0.000 N 
ATOM     18  H   UNL     1       3.761   8.600  18.087  0.00  0.00    +0.000 HD
BRANCH  17  19
ATOM     19  C   UNL     1       1.731   8.311  17.841  0.00  0.00    +0.000 C 
BRANCH  19  22
ATOM     20  C   UNL     1       1.425  11.698  19.090  0.00  0.00    +0.000 A 
ATOM     21  N   UNL     1       1.759  10.776  18.211  0.00  0.00    +0.000 NA
ATOM     22  C   UNL     1       1.430   9.516  18.693  0.00  0.00    +0.000 A 
ATOM     23  C   UNL     1       0.859   9.508  19.951  0.00  0.00    +0.000 A 
ATOM     24  S   UNL     1       0.703  11.111  20.535  0.00  0.00    +0.000 S 
BRANCH  20  26
ATOM     25  C   UNL     1       0.341  13.899  18.745  0.00  0.00    +0.000 C 
ATOM     26  C   UNL     1       1.676  13.166  18.894  0.00  0.00    +0.000 C 
ATOM     27  C   UNL     1       2.474  13.732  20.069  0.00  0.00    +0.000 C 
ENDBRANCH  20  26
ENDBRANCH  19  22
ENDBRANCH  17  19
ENDBRANCH   1  17
TORSDOF 5
ENDMDL
