MODEL 1
REMARK VINA RESULT:      -7.9      0.000      0.000
REMARK  Name = 
REMARK  9 active torsions:
REMARK  status: ('A' for Active; 'I' for Inactive)
REMARK    1  A    between atoms: C_1  and  O_2
REMARK    2  A    between atoms: O_2  and  C_3
REMARK    3  A    between atoms: C_8  and  C_9
REMARK    4  A    between atoms: C_9  and  N_10
REMARK    5  A    between atoms: N_10  and  C_11
REMARK    6  A    between atoms: C_11  and  C_12
REMARK    7  A    between atoms: N_14  and  C_15
REMARK    8  A    between atoms: C_17  and  S_18
REMARK    9  A    between atoms: S_18  and  N_21
REMARK                            x       y       z     vdW  Elec       q    Type
REMARK                         _______ _______ _______ _____ _____    ______ ____
ROOT
ATOM      1  C   UNL     1       7.494   7.447  17.592  0.00  0.00    +0.000 C 
ATOM      2  O   UNL     1       7.938   6.596  18.359  0.00  0.00    +0.000 OA
ATOM      3  N   UNL     1       6.604   7.192  16.563  0.00  0.00    +0.000 N 
ATOM      4  H   UNL     1       6.621   7.849  15.788  0.00  0.00    +0.000 HD
ENDROOT
BRANCH   3   5
ATOM      5  C   UNL     1       5.987   5.942  16.364  0.00  0.00    +0.000 A 
ATOM      6  C   UNL     1       4.806   5.623  17.048  0.00  0.00    +0.000 A 
ATOM      7  C   UNL     1       4.213   4.370  16.863  0.00  0.00    +0.000 A 
ATOM      8  C   UNL     1       4.789   3.430  16.000  0.00  0.00    +0.000 A 
ATOM      9  C   UNL     1       5.954   3.758  15.301  0.00  0.00    +0.000 A 
ATOM     10  C   UNL     1       6.541   5.017  15.468  0.00  0.00    +0.000 A 
ATOM     11 CL   UNL     1       8.010   5.361  14.624  0.00  0.00    +0.000 Cl
BRANCH   7  12
ATOM     12  S   UNL     1       2.704   3.989  17.723  0.00  0.00    +0.000 S 
ATOM     13  O   UNL     1       1.903   5.192  17.716  0.00  0.00    +0.000 OA
ATOM     14  O   UNL     1       2.192   2.745  17.182  0.00  0.00    +0.000 OA
BRANCH  12  15
ATOM     15  N   UNL     1       3.207   3.691  19.314  0.00  0.00    +0.000 NA
ATOM     16  C   UNL     1       2.842   2.371  19.926  0.00  0.00    +0.000 C 
ATOM     17  C   UNL     1       1.425   2.376  20.512  0.00  0.00    +0.000 C 
ATOM     18  O   UNL     1       1.236   3.450  21.444  0.00  0.00    +0.000 OA
ATOM     19  C   UNL     1       1.490   4.720  20.826  0.00  0.00    +0.000 C 
ATOM     20  C   UNL     1       2.924   4.793  20.291  0.00  0.00    +0.000 C 
ENDBRANCH  12  15
ENDBRANCH   7  12
ENDBRANCH   3   5
BRANCH   1  21
ATOM     21  C   UNL     1       7.981   8.896  17.642  0.00  0.00    +0.000 C 
BRANCH  21  22
ATOM     22  N   UNL     1       8.867   9.143  18.793  0.00  0.00    +0.000 NA
ATOM     23  H   UNL     1       8.612   8.497  19.542  0.00  0.00    +0.000 HD
BRANCH  22  24
ATOM     24  C   UNL     1       8.702  10.510  19.334  0.00  0.00    +0.000 C 
BRANCH  24  30
ATOM     25  C   UNL     1      10.694  11.902  20.163  0.00  0.00    +0.000 A 
ATOM     26  C   UNL     1      11.903  12.555  19.890  0.00  0.00    +0.000 A 
ATOM     27  C   UNL     1      12.326  12.750  18.576  0.00  0.00    +0.000 A 
ATOM     28  C   UNL     1      11.553  12.275  17.524  0.00  0.00    +0.000 A 
ATOM     29  C   UNL     1      10.390  11.556  17.791  0.00  0.00    +0.000 A 
ATOM     30  C   UNL     1       9.962  11.325  19.111  0.00  0.00    +0.000 A 
BRANCH  25  32
ATOM     31  C   UNL     1       9.526  12.979  21.902  0.00  0.00    +0.000 C 
ATOM     32  O   UNL     1      10.187  11.799  21.435  0.00  0.00    +0.000 OA
ENDBRANCH  25  32
ENDBRANCH  24  30
ENDBRANCH  22  24
ENDBRANCH  21  22
ENDBRANCH   1  21
TORSDOF 8
ENDMDL
MODEL 2
REMARK VINA RESULT:      -7.9      7.035      9.635
REMARK  Name = 
REMARK  9 active torsions:
REMARK  status: ('A' for Active; 'I' for Inactive)
REMARK    1  A    between atoms: C_1  and  O_2
REMARK    2  A    between atoms: O_2  and  C_3
REMARK    3  A    between atoms: C_8  and  C_9
REMARK    4  A    between atoms: C_9  and  N_10
REMARK    5  A    between atoms: N_10  and  C_11
REMARK    6  A    between atoms: C_11  and  C_12
REMARK    7  A    between atoms: N_14  and  C_15
REMARK    8  A    between atoms: C_17  and  S_18
REMARK    9  A    between atoms: S_18  and  N_21
REMARK                            x       y       z     vdW  Elec       q    Type
REMARK                         _______ _______ _______ _____ _____    ______ ____
ROOT
ATOM      1  C   UNL     1      -0.234   9.033  22.057  0.00  0.00    +0.000 C 
ATOM      2  O   UNL     1      -0.920   8.070  21.721  0.00  0.00    +0.000 OA
ATOM      3  N   UNL     1       0.941   9.418  21.434  0.00  0.00    +0.000 N 
ATOM      4  H   UNL     1       1.596   9.942  22.008  0.00  0.00    +0.000 HD
ENDROOT
BRANCH   3   5
ATOM      5  C   UNL     1       1.416   8.832  20.246  0.00  0.00    +0.000 A 
ATOM      6  C   UNL     1       2.080   7.599  20.283  0.00  0.00    +0.000 A 
ATOM      7  C   UNL     1       2.569   7.036  19.101  0.00  0.00    +0.000 A 
ATOM      8  C   UNL     1       2.401   7.694  17.877  0.00  0.00    +0.000 A 
ATOM      9  C   UNL     1       1.719   8.913  17.837  0.00  0.00    +0.000 A 
ATOM     10  C   UNL     1       1.211   9.471  19.014  0.00  0.00    +0.000 A 
ATOM     11 CL   UNL     1       0.419  11.005  18.925  0.00  0.00    +0.000 Cl
BRANCH   7  12
ATOM     12  S   UNL     1       3.393   5.461  19.166  0.00  0.00    +0.000 S 
ATOM     13  O   UNL     1       4.804   5.720  18.994  0.00  0.00    +0.000 OA
ATOM     14  O   UNL     1       2.897   4.753  20.330  0.00  0.00    +0.000 OA
BRANCH  12  15
ATOM     15  N   UNL     1       2.827   4.650  17.789  0.00  0.00    +0.000 NA
ATOM     16  C   UNL     1       1.437   4.085  17.833  0.00  0.00    +0.000 C 
ATOM     17  C   UNL     1       1.394   2.707  18.505  0.00  0.00    +0.000 C 
ATOM     18  O   UNL     1       2.310   1.786  17.895  0.00  0.00    +0.000 OA
ATOM     19  C   UNL     1       3.653   2.287  17.944  0.00  0.00    +0.000 C 
ATOM     20  C   UNL     1       3.766   3.630  17.216  0.00  0.00    +0.000 C 
ENDBRANCH  12  15
ENDBRANCH   7  12
ENDBRANCH   3   5
BRANCH   1  21
ATOM     21  C   UNL     1      -0.575   9.860  23.297  0.00  0.00    +0.000 C 
BRANCH  21  22
ATOM     22  N   UNL     1      -0.523  11.308  23.029  0.00  0.00    +0.000 NA
ATOM     23  H   UNL     1      -0.286  11.789  23.899  0.00  0.00    +0.000 HD
BRANCH  22  24
ATOM     24  C   UNL     1      -1.834  11.837  22.594  0.00  0.00    +0.000 C 
BRANCH  24  30
ATOM     25  C   UNL     1      -3.496  13.340  23.848  0.00  0.00    +0.000 A 
ATOM     26  C   UNL     1      -3.733  14.457  24.661  0.00  0.00    +0.000 A 
ATOM     27  C   UNL     1      -2.721  15.381  24.914  0.00  0.00    +0.000 A 
ATOM     28  C   UNL     1      -1.456  15.186  24.374  0.00  0.00    +0.000 A 
ATOM     29  C   UNL     1      -1.192  14.038  23.630  0.00  0.00    +0.000 A 
ATOM     30  C   UNL     1      -2.194  13.079  23.387  0.00  0.00    +0.000 A 
BRANCH  25  32
ATOM     31  C   UNL     1      -5.811  12.906  23.848  0.00  0.00    +0.000 C 
ATOM     32  O   UNL     1      -4.497  12.477  23.478  0.00  0.00    +0.000 OA
ENDBRANCH  25  32
ENDBRANCH  24  30
ENDBRANCH  22  24
ENDBRANCH  21  22
ENDBRANCH   1  21
TORSDOF 8
ENDMDL
MODEL 3
REMARK VINA RESULT:      -7.8      6.441      9.282
REMARK  Name = 
REMARK  9 active torsions:
REMARK  status: ('A' for Active; 'I' for Inactive)
REMARK    1  A    between atoms: C_1  and  O_2
REMARK    2  A    between atoms: O_2  and  C_3
REMARK    3  A    between atoms: C_8  and  C_9
REMARK    4  A    between atoms: C_9  and  N_10
REMARK    5  A    between atoms: N_10  and  C_11
REMARK    6  A    between atoms: C_11  and  C_12
REMARK    7  A    between atoms: N_14  and  C_15
REMARK    8  A    between atoms: C_17  and  S_18
REMARK    9  A    between atoms: S_18  and  N_21
REMARK                            x       y       z     vdW  Elec       q    Type
REMARK                         _______ _______ _______ _____ _____    ______ ____
ROOT
ATOM      1  C   UNL     1       0.574   9.511  22.157  0.00  0.00    +0.000 C 
ATOM      2  O   UNL     1       1.734   9.690  22.523  0.00  0.00    +0.000 OA
ATOM      3  N   UNL     1       0.207   9.035  20.909  0.00  0.00    +0.000 N 
ATOM      4  H   UNL     1      -0.722   9.297  20.591  0.00  0.00    +0.000 HD
ENDROOT
BRANCH   3   5
ATOM      5  C   UNL     1       1.130   8.562  19.958  0.00  0.00    +0.000 A 
ATOM      6  C   UNL     1       1.768   7.329  20.147  0.00  0.00    +0.000 A 
ATOM      7  C   UNL     1       2.701   6.877  19.209  0.00  0.00    +0.000 A 
ATOM      8  C   UNL     1       3.005   7.648  18.080  0.00  0.00    +0.000 A 
ATOM      9  C   UNL     1       2.352   8.868  17.881  0.00  0.00    +0.000 A 
ATOM     10  C   UNL     1       1.404   9.314  18.807  0.00  0.00    +0.000 A 
ATOM     11 CL   UNL     1       0.659  10.853  18.547  0.00  0.00    +0.000 Cl
BRANCH   7  12
ATOM     12  S   UNL     1       3.486   5.301  19.454  0.00  0.00    +0.000 S 
ATOM     13  O   UNL     1       4.910   5.544  19.485  0.00  0.00    +0.000 OA
ATOM     14  O   UNL     1       2.814   4.643  20.558  0.00  0.00    +0.000 OA
BRANCH  12  15
ATOM     15  N   UNL     1       3.120   4.440  18.041  0.00  0.00    +0.000 NA
ATOM     16  C   UNL     1       1.678   4.133  17.763  0.00  0.00    +0.000 C 
ATOM     17  C   UNL     1       1.202   2.875  18.499  0.00  0.00    +0.000 C 
ATOM     18  O   UNL     1       2.037   1.743  18.217  0.00  0.00    +0.000 OA
ATOM     19  C   UNL     1       3.401   2.006  18.577  0.00  0.00    +0.000 C 
ATOM     20  C   UNL     1       3.949   3.212  17.807  0.00  0.00    +0.000 C 
ENDBRANCH  12  15
ENDBRANCH   7  12
ENDBRANCH   3   5
BRANCH   1  21
ATOM     21  C   UNL     1      -0.610   9.906  23.040  0.00  0.00    +0.000 C 
BRANCH  21  22
ATOM     22  N   UNL     1      -0.627  11.350  23.330  0.00  0.00    +0.000 NA
ATOM     23  H   UNL     1      -1.496  11.570  23.822  0.00  0.00    +0.000 HD
BRANCH  22  24
ATOM     24  C   UNL     1      -0.620  12.162  22.094  0.00  0.00    +0.000 C 
BRANCH  24  30
ATOM     25  C   UNL     1      -3.141  12.556  22.378  0.00  0.00    +0.000 A 
ATOM     26  C   UNL     1      -4.397  12.788  21.800  0.00  0.00    +0.000 A 
ATOM     27  C   UNL     1      -4.582  12.661  20.424  0.00  0.00    +0.000 A 
ATOM     28  C   UNL     1      -3.508  12.320  19.612  0.00  0.00    +0.000 A 
ATOM     29  C   UNL     1      -2.241  12.164  20.170  0.00  0.00    +0.000 A 
ATOM     30  C   UNL     1      -2.029  12.317  21.553  0.00  0.00    +0.000 A 
BRANCH  25  32
ATOM     31  C   UNL     1      -4.038  13.102  24.487  0.00  0.00    +0.000 C 
ATOM     32  O   UNL     1      -2.950  12.553  23.737  0.00  0.00    +0.000 OA
ENDBRANCH  25  32
ENDBRANCH  24  30
ENDBRANCH  22  24
ENDBRANCH  21  22
ENDBRANCH   1  21
TORSDOF 8
ENDMDL
MODEL 4
REMARK VINA RESULT:      -7.8      1.444      2.269
REMARK  Name = 
REMARK  9 active torsions:
REMARK  status: ('A' for Active; 'I' for Inactive)
REMARK    1  A    between atoms: C_1  and  O_2
REMARK    2  A    between atoms: O_2  and  C_3
REMARK    3  A    between atoms: C_8  and  C_9
REMARK    4  A    between atoms: C_9  and  N_10
REMARK    5  A    between atoms: N_10  and  C_11
REMARK    6  A    between atoms: C_11  and  C_12
REMARK    7  A    between atoms: N_14  and  C_15
REMARK    8  A    between atoms: C_17  and  S_18
REMARK    9  A    between atoms: S_18  and  N_21
REMARK                            x       y       z     vdW  Elec       q    Type
REMARK                         _______ _______ _______ _____ _____    ______ ____
ROOT
ATOM      1  C   UNL     1       7.653   7.496  17.715  0.00  0.00    +0.000 C 
ATOM      2  O   UNL     1       8.040   6.746  18.608  0.00  0.00    +0.000 OA
ATOM      3  N   UNL     1       6.929   7.090  16.605  0.00  0.00    +0.000 N 
ATOM      4  H   UNL     1       7.012   7.681  15.783  0.00  0.00    +0.000 HD
ENDROOT
BRANCH   3   5
ATOM      5  C   UNL     1       6.425   5.787  16.443  0.00  0.00    +0.000 A 
ATOM      6  C   UNL     1       5.639   5.205  17.447  0.00  0.00    +0.000 A 
ATOM      7  C   UNL     1       5.162   3.900  17.288  0.00  0.00    +0.000 A 
ATOM      8  C   UNL     1       5.463   3.168  16.133  0.00  0.00    +0.000 A 
ATOM      9  C   UNL     1       6.229   3.757  15.123  0.00  0.00    +0.000 A 
ATOM     10  C   UNL     1       6.692   5.068  15.269  0.00  0.00    +0.000 A 
ATOM     11 CL   UNL     1       7.679   5.739  14.017  0.00  0.00    +0.000 Cl
BRANCH   7  12
ATOM     12  S   UNL     1       4.150   3.185  18.562  0.00  0.00    +0.000 S 
ATOM     13  O   UNL     1       3.507   2.026  17.985  0.00  0.00    +0.000 OA
ATOM     14  O   UNL     1       4.962   3.073  19.758  0.00  0.00    +0.000 OA
BRANCH  12  15
ATOM     15  N   UNL     1       2.967   4.364  18.852  0.00  0.00    +0.000 NA
ATOM     16  C   UNL     1       2.865   4.926  20.240  0.00  0.00    +0.000 C 
ATOM     17  C   UNL     1       2.022   4.037  21.163  0.00  0.00    +0.000 C 
ATOM     18  O   UNL     1       0.723   3.776  20.612  0.00  0.00    +0.000 OA
ATOM     19  C   UNL     1       0.825   3.148  19.327  0.00  0.00    +0.000 C 
ATOM     20  C   UNL     1       1.596   4.034  18.342  0.00  0.00    +0.000 C 
ENDBRANCH  12  15
ENDBRANCH   7  12
ENDBRANCH   3   5
BRANCH   1  21
ATOM     21  C   UNL     1       8.036   8.976  17.695  0.00  0.00    +0.000 C 
BRANCH  21  22
ATOM     22  N   UNL     1       8.863   9.349  18.856  0.00  0.00    +0.000 NA
ATOM     23  H   UNL     1       8.243   9.644  19.613  0.00  0.00    +0.000 HD
BRANCH  22  24
ATOM     24  C   UNL     1       9.748  10.498  18.557  0.00  0.00    +0.000 C 
BRANCH  24  30
ATOM     25  C   UNL     1      10.257  12.794  19.587  0.00  0.00    +0.000 A 
ATOM     26  C   UNL     1      10.100  13.702  20.643  0.00  0.00    +0.000 A 
ATOM     27  C   UNL     1       9.523  13.301  21.847  0.00  0.00    +0.000 A 
ATOM     28  C   UNL     1       9.079  11.993  21.998  0.00  0.00    +0.000 A 
ATOM     29  C   UNL     1       9.161  11.107  20.926  0.00  0.00    +0.000 A 
ATOM     30  C   UNL     1       9.714  11.502  19.693  0.00  0.00    +0.000 A 
BRANCH  25  32
ATOM     31  C   UNL     1      10.307  14.150  17.662  0.00  0.00    +0.000 C 
ATOM     32  O   UNL     1      10.929  13.119  18.434  0.00  0.00    +0.000 OA
ENDBRANCH  25  32
ENDBRANCH  24  30
ENDBRANCH  22  24
ENDBRANCH  21  22
ENDBRANCH   1  21
TORSDOF 8
ENDMDL
MODEL 5
REMARK VINA RESULT:      -7.8      6.707      9.059
REMARK  Name = 
REMARK  9 active torsions:
REMARK  status: ('A' for Active; 'I' for Inactive)
REMARK    1  A    between atoms: C_1  and  O_2
REMARK    2  A    between atoms: O_2  and  C_3
REMARK    3  A    between atoms: C_8  and  C_9
REMARK    4  A    between atoms: C_9  and  N_10
REMARK    5  A    between atoms: N_10  and  C_11
REMARK    6  A    between atoms: C_11  and  C_12
REMARK    7  A    between atoms: N_14  and  C_15
REMARK    8  A    between atoms: C_17  and  S_18
REMARK    9  A    between atoms: S_18  and  N_21
REMARK                            x       y       z     vdW  Elec       q    Type
REMARK                         _______ _______ _______ _____ _____    ______ ____
ROOT
ATOM      1  C   UNL     1      -0.088   8.811  22.048  0.00  0.00    +0.000 C 
ATOM      2  O   UNL     1      -0.903   8.019  21.579  0.00  0.00    +0.000 OA
ATOM      3  N   UNL     1       1.118   9.144  21.455  0.00  0.00    +0.000 N 
ATOM      4  H   UNL     1       1.846   9.469  22.084  0.00  0.00    +0.000 HD
ENDROOT
BRANCH   3   5
ATOM      5  C   UNL     1       1.491   8.719  20.166  0.00  0.00    +0.000 A 
ATOM      6  C   UNL     1       2.167   7.504  19.992  0.00  0.00    +0.000 A 
ATOM      7  C   UNL     1       2.555   7.102  18.711  0.00  0.00    +0.000 A 
ATOM      8  C   UNL     1       2.273   7.902  17.597  0.00  0.00    +0.000 A 
ATOM      9  C   UNL     1       1.578   9.103  17.769  0.00  0.00    +0.000 A 
ATOM     10  C   UNL     1       1.172   9.501  19.046  0.00  0.00    +0.000 A 
ATOM     11 CL   UNL     1       0.360  11.018  19.219  0.00  0.00    +0.000 Cl
BRANCH   7  12
ATOM     12  S   UNL     1       3.395   5.548  18.506  0.00  0.00    +0.000 S 
ATOM     13  O   UNL     1       4.213   5.668  17.320  0.00  0.00    +0.000 OA
ATOM     14  O   UNL     1       3.978   5.192  19.785  0.00  0.00    +0.000 OA
BRANCH  12  15
ATOM     15  N   UNL     1       2.146   4.449  18.185  0.00  0.00    +0.000 NA
ATOM     16  C   UNL     1       1.387   3.892  19.354  0.00  0.00    +0.000 C 
ATOM     17  C   UNL     1       2.103   2.695  19.991  0.00  0.00    +0.000 C 
ATOM     18  O   UNL     1       2.395   1.673  19.027  0.00  0.00    +0.000 OA
ATOM     19  C   UNL     1       3.205   2.187  17.960  0.00  0.00    +0.000 C 
ATOM     20  C   UNL     1       2.497   3.339  17.240  0.00  0.00    +0.000 C 
ENDBRANCH  12  15
ENDBRANCH   7  12
ENDBRANCH   3   5
BRANCH   1  21
ATOM     21  C   UNL     1      -0.296   9.445  23.424  0.00  0.00    +0.000 C 
BRANCH  21  22
ATOM     22  N   UNL     1      -0.339  10.916  23.356  0.00  0.00    +0.000 NA
ATOM     23  H   UNL     1      -0.439  11.280  24.305  0.00  0.00    +0.000 HD
BRANCH  22  24
ATOM     24  C   UNL     1      -1.507  11.400  22.588  0.00  0.00    +0.000 C 
BRANCH  24  30
ATOM     25  C   UNL     1      -1.257  13.893  23.149  0.00  0.00    +0.000 A 
ATOM     26  C   UNL     1      -1.830  15.088  23.607  0.00  0.00    +0.000 A 
ATOM     27  C   UNL     1      -3.095  15.093  24.192  0.00  0.00    +0.000 A 
ATOM     28  C   UNL     1      -3.807  13.906  24.306  0.00  0.00    +0.000 A 
ATOM     29  C   UNL     1      -3.278  12.728  23.783  0.00  0.00    +0.000 A 
ATOM     30  C   UNL     1      -2.014  12.709  23.163  0.00  0.00    +0.000 A 
BRANCH  25  32
ATOM     31  C   UNL     1       0.581  15.095  22.298  0.00  0.00    +0.000 C 
ATOM     32  O   UNL     1       0.031  13.830  22.680  0.00  0.00    +0.000 OA
ENDBRANCH  25  32
ENDBRANCH  24  30
ENDBRANCH  22  24
ENDBRANCH  21  22
ENDBRANCH   1  21
TORSDOF 8
ENDMDL
MODEL 6
REMARK VINA RESULT:      -7.8      1.264      1.479
REMARK  Name = 
REMARK  9 active torsions:
REMARK  status: ('A' for Active; 'I' for Inactive)
REMARK    1  A    between atoms: C_1  and  O_2
REMARK    2  A    between atoms: O_2  and  C_3
REMARK    3  A    between atoms: C_8  and  C_9
REMARK    4  A    between atoms: C_9  and  N_10
REMARK    5  A    between atoms: N_10  and  C_11
REMARK    6  A    between atoms: C_11  and  C_12
REMARK    7  A    between atoms: N_14  and  C_15
REMARK    8  A    between atoms: C_17  and  S_18
REMARK    9  A    between atoms: S_18  and  N_21
REMARK                            x       y       z     vdW  Elec       q    Type
REMARK                         _______ _______ _______ _____ _____    ______ ____
ROOT
ATOM      1  C   UNL     1       7.672   7.781  17.810  0.00  0.00    +0.000 C 
ATOM      2  O   UNL     1       8.034   6.915  18.604  0.00  0.00    +0.000 OA
ATOM      3  N   UNL     1       6.789   7.569  16.764  0.00  0.00    +0.000 N 
ATOM      4  H   UNL     1       6.873   8.207  15.978  0.00  0.00    +0.000 HD
ENDROOT
BRANCH   3   5
ATOM      5  C   UNL     1       6.087   6.364  16.574  0.00  0.00    +0.000 A 
ATOM      6  C   UNL     1       4.889   6.131  17.262  0.00  0.00    +0.000 A 
ATOM      7  C   UNL     1       4.210   4.921  17.086  0.00  0.00    +0.000 A 
ATOM      8  C   UNL     1       4.718   3.939  16.226  0.00  0.00    +0.000 A 
ATOM      9  C   UNL     1       5.902   4.182  15.524  0.00  0.00    +0.000 A 
ATOM     10  C   UNL     1       6.574   5.398  15.682  0.00  0.00    +0.000 A 
ATOM     11 CL   UNL     1       8.061   5.635  14.833  0.00  0.00    +0.000 Cl
BRANCH   7  12
ATOM     12  S   UNL     1       2.681   4.649  17.951  0.00  0.00    +0.000 S 
ATOM     13  O   UNL     1       2.087   5.949  18.167  0.00  0.00    +0.000 OA
ATOM     14  O   UNL     1       1.961   3.603  17.252  0.00  0.00    +0.000 OA
BRANCH  12  15
ATOM     15  N   UNL     1       3.168   4.027  19.451  0.00  0.00    +0.000 NA
ATOM     16  C   UNL     1       3.226   2.536  19.603  0.00  0.00    +0.000 C 
ATOM     17  C   UNL     1       1.856   1.935  19.943  0.00  0.00    +0.000 C 
ATOM     18  O   UNL     1       1.274   2.553  21.099  0.00  0.00    +0.000 OA
ATOM     19  C   UNL     1       1.129   3.967  20.911  0.00  0.00    +0.000 C 
ATOM     20  C   UNL     1       2.486   4.628  20.644  0.00  0.00    +0.000 C 
ENDBRANCH  12  15
ENDBRANCH   7  12
ENDBRANCH   3   5
BRANCH   1  21
ATOM     21  C   UNL     1       8.262   9.191  17.845  0.00  0.00    +0.000 C 
BRANCH  21  22
ATOM     22  N   UNL     1       9.154   9.390  19.001  0.00  0.00    +0.000 NA
ATOM     23  H   UNL     1       8.866   8.750  19.745  0.00  0.00    +0.000 HD
BRANCH  22  24
ATOM     24  C   UNL     1       9.047  10.759  19.552  0.00  0.00    +0.000 C 
BRANCH  24  30
ATOM     25  C   UNL     1       9.382  13.014  18.371  0.00  0.00    +0.000 A 
ATOM     26  C   UNL     1      10.220  13.897  17.676  0.00  0.00    +0.000 A 
ATOM     27  C   UNL     1      11.463  13.477  17.206  0.00  0.00    +0.000 A 
ATOM     28  C   UNL     1      11.888  12.176  17.444  0.00  0.00    +0.000 A 
ATOM     29  C   UNL     1      11.095  11.317  18.203  0.00  0.00    +0.000 A 
ATOM     30  C   UNL     1       9.849  11.733  18.710  0.00  0.00    +0.000 A 
BRANCH  25  32
ATOM     31  C   UNL     1       7.334  13.967  17.704  0.00  0.00    +0.000 C 
ATOM     32  O   UNL     1       8.105  13.355  18.742  0.00  0.00    +0.000 OA
ENDBRANCH  25  32
ENDBRANCH  24  30
ENDBRANCH  22  24
ENDBRANCH  21  22
ENDBRANCH   1  21
TORSDOF 8
ENDMDL
MODEL 7
REMARK VINA RESULT:      -7.7      6.881     10.082
REMARK  Name = 
REMARK  9 active torsions:
REMARK  status: ('A' for Active; 'I' for Inactive)
REMARK    1  A    between atoms: C_1  and  O_2
REMARK    2  A    between atoms: O_2  and  C_3
REMARK    3  A    between atoms: C_8  and  C_9
REMARK    4  A    between atoms: C_9  and  N_10
REMARK    5  A    between atoms: N_10  and  C_11
REMARK    6  A    between atoms: C_11  and  C_12
REMARK    7  A    between atoms: N_14  and  C_15
REMARK    8  A    between atoms: C_17  and  S_18
REMARK    9  A    between atoms: S_18  and  N_21
REMARK                            x       y       z     vdW  Elec       q    Type
REMARK                         _______ _______ _______ _____ _____    ______ ____
ROOT
ATOM      1  C   UNL     1       0.375  10.083  21.893  0.00  0.00    +0.000 C 
ATOM      2  O   UNL     1       1.366  10.807  21.833  0.00  0.00    +0.000 OA
ATOM      3  N   UNL     1       0.086   9.069  20.995  0.00  0.00    +0.000 N 
ATOM      4  H   UNL     1      -0.896   8.822  20.907  0.00  0.00    +0.000 HD
ENDROOT
BRANCH   3   5
ATOM      5  C   UNL     1       0.972   8.653  19.985  0.00  0.00    +0.000 A 
ATOM      6  C   UNL     1       1.689   7.457  20.125  0.00  0.00    +0.000 A 
ATOM      7  C   UNL     1       2.586   7.063  19.127  0.00  0.00    +0.000 A 
ATOM      8  C   UNL     1       2.774   7.854  17.987  0.00  0.00    +0.000 A 
ATOM      9  C   UNL     1       2.042   9.035  17.838  0.00  0.00    +0.000 A 
ATOM     10  C   UNL     1       1.130   9.423  18.824  0.00  0.00    +0.000 A 
ATOM     11 CL   UNL     1       0.284  10.918  18.623  0.00  0.00    +0.000 Cl
BRANCH   7  12
ATOM     12  S   UNL     1       3.472   5.533  19.312  0.00  0.00    +0.000 S 
ATOM     13  O   UNL     1       4.880   5.855  19.245  0.00  0.00    +0.000 OA
ATOM     14  O   UNL     1       2.916   4.838  20.457  0.00  0.00    +0.000 OA
BRANCH  12  15
ATOM     15  N   UNL     1       3.058   4.653  17.924  0.00  0.00    +0.000 NA
ATOM     16  C   UNL     1       1.624   4.244  17.757  0.00  0.00    +0.000 C 
ATOM     17  C   UNL     1       1.298   2.953  18.517  0.00  0.00    +0.000 C 
ATOM     18  O   UNL     1       2.187   1.884  18.160  0.00  0.00    +0.000 OA
ATOM     19  C   UNL     1       3.552   2.243  18.414  0.00  0.00    +0.000 C 
ATOM     20  C   UNL     1       3.951   3.488  17.615  0.00  0.00    +0.000 C 
ENDBRANCH  12  15
ENDBRANCH   7  12
ENDBRANCH   3   5
BRANCH   1  21
ATOM     21  C   UNL     1      -0.715  10.310  22.941  0.00  0.00    +0.000 C 
BRANCH  21  22
ATOM     22  N   UNL     1      -1.029  11.739  23.114  0.00  0.00    +0.000 NA
ATOM     23  H   UNL     1      -1.543  11.853  23.990  0.00  0.00    +0.000 HD
BRANCH  22  24
ATOM     24  C   UNL     1      -1.906  12.247  22.036  0.00  0.00    +0.000 C 
BRANCH  24  30
ATOM     25  C   UNL     1      -4.387  12.831  21.732  0.00  0.00    +0.000 A 
ATOM     26  C   UNL     1      -5.673  12.946  22.278  0.00  0.00    +0.000 A 
ATOM     27  C   UNL     1      -5.873  12.855  23.654  0.00  0.00    +0.000 A 
ATOM     28  C   UNL     1      -4.791  12.628  24.496  0.00  0.00    +0.000 A 
ATOM     29  C   UNL     1      -3.522  12.435  23.954  0.00  0.00    +0.000 A 
ATOM     30  C   UNL     1      -3.306  12.495  22.564  0.00  0.00    +0.000 A 
BRANCH  25  32
ATOM     31  C   UNL     1      -5.051  12.374  19.519  0.00  0.00    +0.000 C 
ATOM     32  O   UNL     1      -4.136  13.036  20.398  0.00  0.00    +0.000 OA
ENDBRANCH  25  32
ENDBRANCH  24  30
ENDBRANCH  22  24
ENDBRANCH  21  22
ENDBRANCH   1  21
TORSDOF 8
ENDMDL
MODEL 8
REMARK VINA RESULT:      -7.5      4.690      7.826
REMARK  Name = 
REMARK  9 active torsions:
REMARK  status: ('A' for Active; 'I' for Inactive)
REMARK    1  A    between atoms: C_1  and  O_2
REMARK    2  A    between atoms: O_2  and  C_3
REMARK    3  A    between atoms: C_8  and  C_9
REMARK    4  A    between atoms: C_9  and  N_10
REMARK    5  A    between atoms: N_10  and  C_11
REMARK    6  A    between atoms: C_11  and  C_12
REMARK    7  A    between atoms: N_14  and  C_15
REMARK    8  A    between atoms: C_17  and  S_18
REMARK    9  A    between atoms: S_18  and  N_21
REMARK                            x       y       z     vdW  Elec       q    Type
REMARK                         _______ _______ _______ _____ _____    ______ ____
ROOT
ATOM      1  C   UNL     1       2.284   4.249  17.737  0.00  0.00    +0.000 C 
ATOM      2  O   UNL     1       1.057   4.181  17.689  0.00  0.00    +0.000 OA
ATOM      3  N   UNL     1       2.993   5.289  18.314  0.00  0.00    +0.000 N 
ATOM      4  H   UNL     1       3.934   5.435  17.958  0.00  0.00    +0.000 HD
ENDROOT
BRANCH   3   5
ATOM      5  C   UNL     1       2.387   6.328  19.045  0.00  0.00    +0.000 A 
ATOM      6  C   UNL     1       2.105   7.554  18.428  0.00  0.00    +0.000 A 
ATOM      7  C   UNL     1       1.526   8.588  19.168  0.00  0.00    +0.000 A 
ATOM      8  C   UNL     1       1.223   8.410  20.523  0.00  0.00    +0.000 A 
ATOM      9  C   UNL     1       1.484   7.180  21.133  0.00  0.00    +0.000 A 
ATOM     10  C   UNL     1       2.046   6.136  20.392  0.00  0.00    +0.000 A 
ATOM     11 CL   UNL     1       2.399   4.648  21.199  0.00  0.00    +0.000 Cl
BRANCH   7  12
ATOM     12  S   UNL     1       1.157  10.130  18.363  0.00  0.00    +0.000 S 
ATOM     13  O   UNL     1       2.341  10.511  17.626  0.00  0.00    +0.000 OA
ATOM     14  O   UNL     1      -0.124   9.984  17.700  0.00  0.00    +0.000 OA
BRANCH  12  15
ATOM     15  N   UNL     1       0.952  11.219  19.646  0.00  0.00    +0.000 NA
ATOM     16  C   UNL     1      -0.451  11.572  20.046  0.00  0.00    +0.000 C 
ATOM     17  C   UNL     1      -1.038  12.688  19.173  0.00  0.00    +0.000 C 
ATOM     18  O   UNL     1      -0.196  13.850  19.154  0.00  0.00    +0.000 OA
ATOM     19  C   UNL     1       1.118  13.526  18.677  0.00  0.00    +0.000 C 
ATOM     20  C   UNL     1       1.780  12.467  19.564  0.00  0.00    +0.000 C 
ENDBRANCH  12  15
ENDBRANCH   7  12
ENDBRANCH   3   5
BRANCH   1  21
ATOM     21  C   UNL     1       3.166   3.205  17.051  0.00  0.00    +0.000 C 
BRANCH  21  22
ATOM     22  N   UNL     1       4.517   3.151  17.636  0.00  0.00    +0.000 NA
ATOM     23  H   UNL     1       4.566   3.830  18.399  0.00  0.00    +0.000 HD
BRANCH  22  24
ATOM     24  C   UNL     1       5.559   3.534  16.658  0.00  0.00    +0.000 C 
BRANCH  24  30
ATOM     25  C   UNL     1       6.655   5.838  16.373  0.00  0.00    +0.000 A 
ATOM     26  C   UNL     1       7.309   6.940  16.943  0.00  0.00    +0.000 A 
ATOM     27  C   UNL     1       7.778   6.889  18.255  0.00  0.00    +0.000 A 
ATOM     28  C   UNL     1       7.580   5.744  19.015  0.00  0.00    +0.000 A 
ATOM     29  C   UNL     1       6.862   4.675  18.482  0.00  0.00    +0.000 A 
ATOM     30  C   UNL     1       6.356   4.719  17.169  0.00  0.00    +0.000 A 
BRANCH  25  32
ATOM     31  C   UNL     1       7.201   5.102  14.204  0.00  0.00    +0.000 C 
ATOM     32  O   UNL     1       6.288   5.807  15.051  0.00  0.00    +0.000 OA
ENDBRANCH  25  32
ENDBRANCH  24  30
ENDBRANCH  22  24
ENDBRANCH  21  22
ENDBRANCH   1  21
TORSDOF 8
ENDMDL
MODEL 9
REMARK VINA RESULT:      -7.5      5.773      9.205
REMARK  Name = 
REMARK  9 active torsions:
REMARK  status: ('A' for Active; 'I' for Inactive)
REMARK    1  A    between atoms: C_1  and  O_2
REMARK    2  A    between atoms: O_2  and  C_3
REMARK    3  A    between atoms: C_8  and  C_9
REMARK    4  A    between atoms: C_9  and  N_10
REMARK    5  A    between atoms: N_10  and  C_11
REMARK    6  A    between atoms: C_11  and  C_12
REMARK    7  A    between atoms: N_14  and  C_15
REMARK    8  A    between atoms: C_17  and  S_18
REMARK    9  A    between atoms: S_18  and  N_21
REMARK                            x       y       z     vdW  Elec       q    Type
REMARK                         _______ _______ _______ _____ _____    ______ ____
ROOT
ATOM      1  C   UNL     1       1.505   9.506  18.331  0.00  0.00    +0.000 C 
ATOM      2  O   UNL     1       0.846   8.882  17.501  0.00  0.00    +0.000 OA
ATOM      3  N   UNL     1       2.119   8.939  19.435  0.00  0.00    +0.000 N 
ATOM      4  H   UNL     1       2.279   9.562  20.222  0.00  0.00    +0.000 HD
ENDROOT
BRANCH   3   5
ATOM      5  C   UNL     1       2.183   7.551  19.659  0.00  0.00    +0.000 A 
ATOM      6  C   UNL     1       3.097   6.763  18.947  0.00  0.00    +0.000 A 
ATOM      7  C   UNL     1       3.137   5.382  19.158  0.00  0.00    +0.000 A 
ATOM      8  C   UNL     1       2.270   4.777  20.077  0.00  0.00    +0.000 A 
ATOM      9  C   UNL     1       1.374   5.567  20.804  0.00  0.00    +0.000 A 
ATOM     10  C   UNL     1       1.344   6.951  20.609  0.00  0.00    +0.000 A 
ATOM     11 CL   UNL     1       0.184   7.883  21.491  0.00  0.00    +0.000 Cl
BRANCH   7  12
ATOM     12  S   UNL     1       4.316   4.400  18.261  0.00  0.00    +0.000 S 
ATOM     13  O   UNL     1       5.069   3.651  19.241  0.00  0.00    +0.000 OA
ATOM     14  O   UNL     1       3.605   3.730  17.190  0.00  0.00    +0.000 OA
BRANCH  12  15
ATOM     15  N   UNL     1       5.347   5.546  17.556  0.00  0.00    +0.000 NA
ATOM     16  C   UNL     1       5.498   5.527  16.063  0.00  0.00    +0.000 C 
ATOM     17  C   UNL     1       6.537   4.497  15.601  0.00  0.00    +0.000 C 
ATOM     18  O   UNL     1       7.803   4.688  16.248  0.00  0.00    +0.000 OA
ATOM     19  C   UNL     1       7.670   4.607  17.674  0.00  0.00    +0.000 C 
ATOM     20  C   UNL     1       6.698   5.670  18.196  0.00  0.00    +0.000 C 
ENDBRANCH  12  15
ENDBRANCH   7  12
ENDBRANCH   3   5
BRANCH   1  21
ATOM     21  C   UNL     1       1.623  11.029  18.272  0.00  0.00    +0.000 C 
BRANCH  21  22
ATOM     22  N   UNL     1       0.306  11.689  18.306  0.00  0.00    +0.000 NA
ATOM     23  H   UNL     1       0.453  12.700  18.338  0.00  0.00    +0.000 HD
BRANCH  22  24
ATOM     24  C   UNL     1      -0.460  11.331  19.521  0.00  0.00    +0.000 C 
BRANCH  24  30
ATOM     25  C   UNL     1      -2.675  11.139  18.236  0.00  0.00    +0.000 A 
ATOM     26  C   UNL     1      -4.055  11.373  18.174  0.00  0.00    +0.000 A 
ATOM     27  C   UNL     1      -4.681  12.193  19.111  0.00  0.00    +0.000 A 
ATOM     28  C   UNL     1      -3.936  12.770  20.131  0.00  0.00    +0.000 A 
ATOM     29  C   UNL     1      -2.578  12.479  20.245  0.00  0.00    +0.000 A 
ATOM     30  C   UNL     1      -1.934  11.631  19.325  0.00  0.00    +0.000 A 
BRANCH  25  32
ATOM     31  C   UNL     1      -2.595  10.528  15.963  0.00  0.00    +0.000 C 
ATOM     32  O   UNL     1      -2.006  10.439  17.263  0.00  0.00    +0.000 OA
ENDBRANCH  25  32
ENDBRANCH  24  30
ENDBRANCH  22  24
ENDBRANCH  21  22
ENDBRANCH   1  21
TORSDOF 8
ENDMDL
