MODEL 1
REMARK VINA RESULT:      -7.1      0.000      0.000
REMARK  Name = 
REMARK  5 active torsions:
REMARK  status: ('A' for Active; 'I' for Inactive)
REMARK    1  A    between atoms: C_1  and  C_2
REMARK    2  A    between atoms: C_2  and  C_14
REMARK    3  A    between atoms: N_3  and  N_4
REMARK    4  A    between atoms: C_5  and  C_7
REMARK    5  A    between atoms: C_17  and  N_18
REMARK                            x       y       z     vdW  Elec       q    Type
REMARK                         _______ _______ _______ _____ _____    ______ ____
ROOT
ATOM      1  C   UNL     1       1.648   5.036  20.295  0.00  0.00    +0.000 C 
ATOM      2  C   UNL     1       2.454   5.955  19.402  0.00  0.00    +0.000 C 
ATOM      3  N   UNL     1       2.486   7.255  19.486  0.00  0.00    +0.000 NA
ENDROOT
BRANCH   2   4
ATOM      4  C   UNL     1       3.320   5.287  18.368  0.00  0.00    +0.000 A 
ATOM      5  C   UNL     1       3.427   3.892  18.289  0.00  0.00    +0.000 A 
ATOM      6  C   UNL     1       4.322   3.298  17.392  0.00  0.00    +0.000 A 
ATOM      7  C   UNL     1       5.093   4.077  16.529  0.00  0.00    +0.000 A 
ATOM      8  C   UNL     1       4.993   5.465  16.616  0.00  0.00    +0.000 A 
ATOM      9  C   UNL     1       4.095   6.071  17.507  0.00  0.00    +0.000 A 
BRANCH   7  10
ATOM     10  N   UNL     1       6.111   3.488  15.773  0.00  0.00    +0.000 N 
ATOM     11  H   UNL     1       6.853   3.067  16.322  0.00  0.00    +0.000 HD
ATOM     12  H   UNL     1       5.779   2.878  15.033  0.00  0.00    +0.000 HD
ENDBRANCH   7  10
ENDBRANCH   2   4
BRANCH   3  13
ATOM     13  N   UNL     1       1.754   7.934  20.413  0.00  0.00    +0.000 N 
ATOM     14  C   UNL     1       1.029   9.049  20.019  0.00  0.00    +0.000 C 
ATOM     15  O   UNL     1       0.994   9.498  18.873  0.00  0.00    +0.000 OA
ATOM     16  H   UNL     1       1.647   7.560  21.342  0.00  0.00    +0.000 HD
BRANCH  14  17
ATOM     17  C   UNL     1       0.225   9.732  21.074  0.00  0.00    +0.000 A 
ATOM     18  C   UNL     1       0.155   9.264  22.394  0.00  0.00    +0.000 A 
ATOM     19  C   UNL     1      -0.565   9.983  23.354  0.00  0.00    +0.000 A 
ATOM     20  C   UNL     1      -1.217  11.167  23.005  0.00  0.00    +0.000 A 
ATOM     21  C   UNL     1      -1.148  11.631  21.692  0.00  0.00    +0.000 A 
ATOM     22 BR   UNL     1      -2.017  13.242  21.222  0.00  0.00    +0.000 Br
ATOM     23  C   UNL     1      -0.429  10.924  20.730  0.00  0.00    +0.000 A 
ENDBRANCH  14  17
ENDBRANCH   3  13
TORSDOF 4
ENDMDL
MODEL 2
REMARK VINA RESULT:      -7.0      3.458      8.435
REMARK  Name = 
REMARK  5 active torsions:
REMARK  status: ('A' for Active; 'I' for Inactive)
REMARK    1  A    between atoms: C_1  and  C_2
REMARK    2  A    between atoms: C_2  and  C_14
REMARK    3  A    between atoms: N_3  and  N_4
REMARK    4  A    between atoms: C_5  and  C_7
REMARK    5  A    between atoms: C_17  and  N_18
REMARK                            x       y       z     vdW  Elec       q    Type
REMARK                         _______ _______ _______ _____ _____    ______ ____
ROOT
ATOM      1  C   UNL     1       1.088   9.803  18.638  0.00  0.00    +0.000 C 
ATOM      2  C   UNL     1       0.960   9.240  20.038  0.00  0.00    +0.000 C 
ATOM      3  N   UNL     1       1.532   8.151  20.471  0.00  0.00    +0.000 NA
ENDROOT
BRANCH   2   4
ATOM      4  C   UNL     1       0.138  10.046  21.007  0.00  0.00    +0.000 A 
ATOM      5  C   UNL     1      -0.060   9.626  22.329  0.00  0.00    +0.000 A 
ATOM      6  C   UNL     1      -0.917  10.334  23.179  0.00  0.00    +0.000 A 
ATOM      7  C   UNL     1      -1.557  11.495  22.744  0.00  0.00    +0.000 A 
ATOM      8  C   UNL     1      -1.368  11.905  21.424  0.00  0.00    +0.000 A 
ATOM      9  C   UNL     1      -0.507  11.206  20.566  0.00  0.00    +0.000 A 
BRANCH   7  10
ATOM     10  N   UNL     1      -2.547  12.087  23.533  0.00  0.00    +0.000 N 
ATOM     11  H   UNL     1      -2.264  12.948  23.989  0.00  0.00    +0.000 HD
ATOM     12  H   UNL     1      -3.450  12.168  23.076  0.00  0.00    +0.000 HD
ENDBRANCH   7  10
ENDBRANCH   2   4
BRANCH   3  13
ATOM     13  N   UNL     1       2.314   7.381  19.664  0.00  0.00    +0.000 N 
ATOM     14  C   UNL     1       2.316   6.005  19.836  0.00  0.00    +0.000 C 
ATOM     15  O   UNL     1       1.657   5.400  20.684  0.00  0.00    +0.000 OA
ATOM     16  H   UNL     1       2.791   7.796  18.880  0.00  0.00    +0.000 HD
BRANCH  14  17
ATOM     17  C   UNL     1       3.171   5.214  18.904  0.00  0.00    +0.000 A 
ATOM     18  C   UNL     1       2.639   4.306  17.977  0.00  0.00    +0.000 A 
ATOM     19  C   UNL     1       3.488   3.640  17.086  0.00  0.00    +0.000 A 
ATOM     20  C   UNL     1       4.864   3.875  17.114  0.00  0.00    +0.000 A 
ATOM     21  C   UNL     1       5.391   4.777  18.036  0.00  0.00    +0.000 A 
ATOM     22 BR   UNL     1       7.252   5.107  18.065  0.00  0.00    +0.000 Br
ATOM     23  C   UNL     1       4.553   5.449  18.925  0.00  0.00    +0.000 A 
ENDBRANCH  14  17
ENDBRANCH   3  13
TORSDOF 4
ENDMDL
MODEL 3
REMARK VINA RESULT:      -7.0      0.694      1.300
REMARK  Name = 
REMARK  5 active torsions:
REMARK  status: ('A' for Active; 'I' for Inactive)
REMARK    1  A    between atoms: C_1  and  C_2
REMARK    2  A    between atoms: C_2  and  C_14
REMARK    3  A    between atoms: N_3  and  N_4
REMARK    4  A    between atoms: C_5  and  C_7
REMARK    5  A    between atoms: C_17  and  N_18
REMARK                            x       y       z     vdW  Elec       q    Type
REMARK                         _______ _______ _______ _____ _____    ______ ____
ROOT
ATOM      1  C   UNL     1       2.663   5.196  20.122  0.00  0.00    +0.000 C 
ATOM      2  C   UNL     1       2.966   6.195  19.025  0.00  0.00    +0.000 C 
ATOM      3  N   UNL     1       2.582   7.441  19.010  0.00  0.00    +0.000 NA
ENDROOT
BRANCH   2   4
ATOM      4  C   UNL     1       3.823   5.701  17.891  0.00  0.00    +0.000 A 
ATOM      5  C   UNL     1       4.516   6.586  17.055  0.00  0.00    +0.000 A 
ATOM      6  C   UNL     1       5.217   6.108  15.941  0.00  0.00    +0.000 A 
ATOM      7  C   UNL     1       5.277   4.742  15.665  0.00  0.00    +0.000 A 
ATOM      8  C   UNL     1       4.577   3.864  16.493  0.00  0.00    +0.000 A 
ATOM      9  C   UNL     1       3.877   4.331  17.614  0.00  0.00    +0.000 A 
BRANCH   7  10
ATOM     10  N   UNL     1       5.819   4.293  14.458  0.00  0.00    +0.000 N 
ATOM     11  H   UNL     1       5.636   3.317  14.250  0.00  0.00    +0.000 HD
ATOM     12  H   UNL     1       5.633   4.901  13.667  0.00  0.00    +0.000 HD
ENDBRANCH   7  10
ENDBRANCH   2   4
BRANCH   3  13
ATOM     13  N   UNL     1       1.829   7.973  20.012  0.00  0.00    +0.000 N 
ATOM     14  C   UNL     1       1.207   9.198  19.815  0.00  0.00    +0.000 C 
ATOM     15  O   UNL     1       1.285   9.870  18.785  0.00  0.00    +0.000 OA
ATOM     16  H   UNL     1       1.631   7.429  20.837  0.00  0.00    +0.000 HD
BRANCH  14  17
ATOM     17  C   UNL     1       0.373   9.714  20.939  0.00  0.00    +0.000 A 
ATOM     18  C   UNL     1       0.369   9.125  22.211  0.00  0.00    +0.000 A 
ATOM     19  C   UNL     1      -0.386   9.692  23.242  0.00  0.00    +0.000 A 
ATOM     20  C   UNL     1      -1.140  10.846  23.012  0.00  0.00    +0.000 A 
ATOM     21  C   UNL     1      -1.136  11.431  21.747  0.00  0.00    +0.000 A 
ATOM     22 BR   UNL     1      -2.141  13.001  21.438  0.00  0.00    +0.000 Br
ATOM     23  C   UNL     1      -0.382  10.875  20.714  0.00  0.00    +0.000 A 
ENDBRANCH  14  17
ENDBRANCH   3  13
TORSDOF 4
ENDMDL
MODEL 4
REMARK VINA RESULT:      -7.0      0.919      1.039
REMARK  Name = 
REMARK  5 active torsions:
REMARK  status: ('A' for Active; 'I' for Inactive)
REMARK    1  A    between atoms: C_1  and  C_2
REMARK    2  A    between atoms: C_2  and  C_14
REMARK    3  A    between atoms: N_3  and  N_4
REMARK    4  A    between atoms: C_5  and  C_7
REMARK    5  A    between atoms: C_17  and  N_18
REMARK                            x       y       z     vdW  Elec       q    Type
REMARK                         _______ _______ _______ _____ _____    ______ ____
ROOT
ATOM      1  C   UNL     1       3.335   5.357  19.982  0.00  0.00    +0.000 C 
ATOM      2  C   UNL     1       3.216   6.228  18.749  0.00  0.00    +0.000 C 
ATOM      3  N   UNL     1       2.565   7.355  18.678  0.00  0.00    +0.000 NA
ENDROOT
BRANCH   2   4
ATOM      4  C   UNL     1       3.958   5.757  17.528  0.00  0.00    +0.000 A 
ATOM      5  C   UNL     1       4.102   4.394  17.235  0.00  0.00    +0.000 A 
ATOM      6  C   UNL     1       4.889   3.979  16.155  0.00  0.00    +0.000 A 
ATOM      7  C   UNL     1       5.511   4.910  15.322  0.00  0.00    +0.000 A 
ATOM      8  C   UNL     1       5.375   6.266  15.622  0.00  0.00    +0.000 A 
ATOM      9  C   UNL     1       4.585   6.693  16.698  0.00  0.00    +0.000 A 
BRANCH   7  10
ATOM     10  N   UNL     1       6.438   4.487  14.366  0.00  0.00    +0.000 N 
ATOM     11  H   UNL     1       7.183   3.902  14.731  0.00  0.00    +0.000 HD
ATOM     12  H   UNL     1       6.021   4.106  13.523  0.00  0.00    +0.000 HD
ENDBRANCH   7  10
ENDBRANCH   2   4
BRANCH   3  13
ATOM     13  N   UNL     1       1.891   7.864  19.747  0.00  0.00    +0.000 N 
ATOM     14  C   UNL     1       1.251   9.088  19.624  0.00  0.00    +0.000 C 
ATOM     15  O   UNL     1       1.243   9.780  18.604  0.00  0.00    +0.000 OA
ATOM     16  H   UNL     1       1.761   7.303  20.574  0.00  0.00    +0.000 HD
BRANCH  14  17
ATOM     17  C   UNL     1       0.506   9.579  20.820  0.00  0.00    +0.000 A 
ATOM     18  C   UNL     1       0.605   8.965  22.077  0.00  0.00    +0.000 A 
ATOM     19  C   UNL     1      -0.068   9.509  23.175  0.00  0.00    +0.000 A 
ATOM     20  C   UNL     1      -0.842  10.662  23.028  0.00  0.00    +0.000 A 
ATOM     21  C   UNL     1      -0.941  11.271  21.778  0.00  0.00    +0.000 A 
ATOM     22 BR   UNL     1      -1.975  12.840  21.580  0.00  0.00    +0.000 Br
ATOM     23  C   UNL     1      -0.269  10.739  20.678  0.00  0.00    +0.000 A 
ENDBRANCH  14  17
ENDBRANCH   3  13
TORSDOF 4
ENDMDL
MODEL 5
REMARK VINA RESULT:      -6.9      1.787      2.192
REMARK  Name = 
REMARK  5 active torsions:
REMARK  status: ('A' for Active; 'I' for Inactive)
REMARK    1  A    between atoms: C_1  and  C_2
REMARK    2  A    between atoms: C_2  and  C_14
REMARK    3  A    between atoms: N_3  and  N_4
REMARK    4  A    between atoms: C_5  and  C_7
REMARK    5  A    between atoms: C_17  and  N_18
REMARK                            x       y       z     vdW  Elec       q    Type
REMARK                         _______ _______ _______ _____ _____    ______ ____
ROOT
ATOM      1  C   UNL     1       2.264   8.151  17.942  0.00  0.00    +0.000 C 
ATOM      2  C   UNL     1       2.229   7.226  19.140  0.00  0.00    +0.000 C 
ATOM      3  N   UNL     1       1.784   7.538  20.325  0.00  0.00    +0.000 NA
ENDROOT
BRANCH   2   4
ATOM      4  C   UNL     1       2.708   5.818  18.909  0.00  0.00    +0.000 A 
ATOM      5  C   UNL     1       3.859   5.322  19.536  0.00  0.00    +0.000 A 
ATOM      6  C   UNL     1       4.346   4.048  19.220  0.00  0.00    +0.000 A 
ATOM      7  C   UNL     1       3.675   3.230  18.311  0.00  0.00    +0.000 A 
ATOM      8  C   UNL     1       2.536   3.730  17.680  0.00  0.00    +0.000 A 
ATOM      9  C   UNL     1       2.036   5.003  17.993  0.00  0.00    +0.000 A 
BRANCH   7  10
ATOM     10  N   UNL     1       4.265   2.043  17.867  0.00  0.00    +0.000 N 
ATOM     11  H   UNL     1       3.824   1.198  18.215  0.00  0.00    +0.000 HD
ATOM     12  H   UNL     1       4.432   2.012  16.866  0.00  0.00    +0.000 HD
ENDBRANCH   7  10
ENDBRANCH   2   4
BRANCH   3  13
ATOM     13  N   UNL     1       1.306   8.783  20.608  0.00  0.00    +0.000 N 
ATOM     14  C   UNL     1       0.090   8.909  21.263  0.00  0.00    +0.000 C 
ATOM     15  O   UNL     1      -0.621   7.966  21.615  0.00  0.00    +0.000 OA
ATOM     16  H   UNL     1       1.885   9.592  20.450  0.00  0.00    +0.000 HD
BRANCH  14  17
ATOM     17  C   UNL     1      -0.365  10.296  21.570  0.00  0.00    +0.000 A 
ATOM     18  C   UNL     1      -0.888  10.660  22.819  0.00  0.00    +0.000 A 
ATOM     19  C   UNL     1      -1.239  11.991  23.068  0.00  0.00    +0.000 A 
ATOM     20  C   UNL     1      -1.072  12.962  22.078  0.00  0.00    +0.000 A 
ATOM     21  C   UNL     1      -0.552  12.598  20.837  0.00  0.00    +0.000 A 
ATOM     22 BR   UNL     1      -0.310  13.913  19.501  0.00  0.00    +0.000 Br
ATOM     23  C   UNL     1      -0.195  11.275  20.581  0.00  0.00    +0.000 A 
ENDBRANCH  14  17
ENDBRANCH   3  13
TORSDOF 4
ENDMDL
MODEL 6
REMARK VINA RESULT:      -6.8      3.493      8.327
REMARK  Name = 
REMARK  5 active torsions:
REMARK  status: ('A' for Active; 'I' for Inactive)
REMARK    1  A    between atoms: C_1  and  C_2
REMARK    2  A    between atoms: C_2  and  C_14
REMARK    3  A    between atoms: N_3  and  N_4
REMARK    4  A    between atoms: C_5  and  C_7
REMARK    5  A    between atoms: C_17  and  N_18
REMARK                            x       y       z     vdW  Elec       q    Type
REMARK                         _______ _______ _______ _____ _____    ______ ____
ROOT
ATOM      1  C   UNL     1       1.684   8.865  18.845  0.00  0.00    +0.000 C 
ATOM      2  C   UNL     1       1.338   8.426  20.252  0.00  0.00    +0.000 C 
ATOM      3  N   UNL     1       1.650   7.278  20.784  0.00  0.00    +0.000 NA
ENDROOT
BRANCH   2   4
ATOM      4  C   UNL     1       0.617   9.434  21.106  0.00  0.00    +0.000 A 
ATOM      5  C   UNL     1       0.216   9.134  22.415  0.00  0.00    +0.000 A 
ATOM      6  C   UNL     1      -0.550  10.047  23.150  0.00  0.00    +0.000 A 
ATOM      7  C   UNL     1      -0.891  11.289  22.614  0.00  0.00    +0.000 A 
ATOM      8  C   UNL     1      -0.501  11.580  21.307  0.00  0.00    +0.000 A 
ATOM      9  C   UNL     1       0.271  10.675  20.564  0.00  0.00    +0.000 A 
BRANCH   7  10
ATOM     10  N   UNL     1      -1.805  12.112  23.278  0.00  0.00    +0.000 N 
ATOM     11  H   UNL     1      -1.509  13.078  23.374  0.00  0.00    +0.000 HD
ATOM     12  H   UNL     1      -2.759  12.029  22.944  0.00  0.00    +0.000 HD
ENDBRANCH   7  10
ENDBRANCH   2   4
BRANCH   3  13
ATOM     13  N   UNL     1       2.328   6.323  20.088  0.00  0.00    +0.000 N 
ATOM     14  C   UNL     1       1.830   5.028  20.054  0.00  0.00    +0.000 C 
ATOM     15  O   UNL     1       0.803   4.653  20.621  0.00  0.00    +0.000 OA
ATOM     16  H   UNL     1       3.111   6.582  19.509  0.00  0.00    +0.000 HD
BRANCH  14  17
ATOM     17  C   UNL     1       2.601   4.035  19.251  0.00  0.00    +0.000 A 
ATOM     18  C   UNL     1       2.484   2.651  19.445  0.00  0.00    +0.000 A 
ATOM     19  C   UNL     1       3.185   1.768  18.617  0.00  0.00    +0.000 A 
ATOM     20  C   UNL     1       4.004   2.257  17.597  0.00  0.00    +0.000 A 
ATOM     21  C   UNL     1       4.121   3.632  17.406  0.00  0.00    +0.000 A 
ATOM     22 BR   UNL     1       5.215   4.295  16.015  0.00  0.00    +0.000 Br
ATOM     23  C   UNL     1       3.421   4.520  18.222  0.00  0.00    +0.000 A 
ENDBRANCH  14  17
ENDBRANCH   3  13
TORSDOF 4
ENDMDL
MODEL 7
REMARK VINA RESULT:      -6.8      1.317      2.040
REMARK  Name = 
REMARK  5 active torsions:
REMARK  status: ('A' for Active; 'I' for Inactive)
REMARK    1  A    between atoms: C_1  and  C_2
REMARK    2  A    between atoms: C_2  and  C_14
REMARK    3  A    between atoms: N_3  and  N_4
REMARK    4  A    between atoms: C_5  and  C_7
REMARK    5  A    between atoms: C_17  and  N_18
REMARK                            x       y       z     vdW  Elec       q    Type
REMARK                         _______ _______ _______ _____ _____    ______ ____
ROOT
ATOM      1  C   UNL     1       3.982   5.370  19.562  0.00  0.00    +0.000 C 
ATOM      2  C   UNL     1       3.806   6.003  18.198  0.00  0.00    +0.000 C 
ATOM      3  N   UNL     1       3.064   7.043  17.936  0.00  0.00    +0.000 NA
ENDROOT
BRANCH   2   4
ATOM      4  C   UNL     1       4.600   5.395  17.074  0.00  0.00    +0.000 A 
ATOM      5  C   UNL     1       5.132   6.179  16.041  0.00  0.00    +0.000 A 
ATOM      6  C   UNL     1       5.771   5.579  14.950  0.00  0.00    +0.000 A 
ATOM      7  C   UNL     1       5.932   4.195  14.888  0.00  0.00    +0.000 A 
ATOM      8  C   UNL     1       5.392   3.415  15.911  0.00  0.00    +0.000 A 
ATOM      9  C   UNL     1       4.754   4.006  17.011  0.00  0.00    +0.000 A 
BRANCH   7  10
ATOM     10  N   UNL     1       6.402   3.595  13.716  0.00  0.00    +0.000 N 
ATOM     11  H   UNL     1       5.749   2.954  13.279  0.00  0.00    +0.000 HD
ATOM     12  H   UNL     1       6.813   4.244  13.053  0.00  0.00    +0.000 HD
ENDBRANCH   7  10
ENDBRANCH   2   4
BRANCH   3  13
ATOM     13  N   UNL     1       2.337   7.669  18.903  0.00  0.00    +0.000 N 
ATOM     14  C   UNL     1       1.718   8.876  18.611  0.00  0.00    +0.000 C 
ATOM     15  O   UNL     1       1.776   9.452  17.524  0.00  0.00    +0.000 OA
ATOM     16  H   UNL     1       2.155   7.202  19.777  0.00  0.00    +0.000 HD
BRANCH  14  17
ATOM     17  C   UNL     1       0.913   9.497  19.702  0.00  0.00    +0.000 A 
ATOM     18  C   UNL     1       0.965   9.049  21.030  0.00  0.00    +0.000 A 
ATOM     19  C   UNL     1       0.235   9.713  22.021  0.00  0.00    +0.000 A 
ATOM     20  C   UNL     1      -0.549  10.822  21.696  0.00  0.00    +0.000 A 
ATOM     21  C   UNL     1      -0.600  11.267  20.376  0.00  0.00    +0.000 A 
ATOM     22 BR   UNL     1      -1.647  12.778  19.936  0.00  0.00    +0.000 Br
ATOM     23  C   UNL     1       0.128  10.614  19.382  0.00  0.00    +0.000 A 
ENDBRANCH  14  17
ENDBRANCH   3  13
TORSDOF 4
ENDMDL
MODEL 8
REMARK VINA RESULT:      -6.8      1.878      2.569
REMARK  Name = 
REMARK  5 active torsions:
REMARK  status: ('A' for Active; 'I' for Inactive)
REMARK    1  A    between atoms: C_1  and  C_2
REMARK    2  A    between atoms: C_2  and  C_14
REMARK    3  A    between atoms: N_3  and  N_4
REMARK    4  A    between atoms: C_5  and  C_7
REMARK    5  A    between atoms: C_17  and  N_18
REMARK                            x       y       z     vdW  Elec       q    Type
REMARK                         _______ _______ _______ _____ _____    ______ ____
ROOT
ATOM      1  C   UNL     1       2.488   7.940  18.234  0.00  0.00    +0.000 C 
ATOM      2  C   UNL     1       2.226   7.002  19.393  0.00  0.00    +0.000 C 
ATOM      3  N   UNL     1       1.706   7.342  20.539  0.00  0.00    +0.000 NA
ENDROOT
BRANCH   2   4
ATOM      4  C   UNL     1       2.557   5.552  19.164  0.00  0.00    +0.000 A 
ATOM      5  C   UNL     1       3.140   5.111  17.968  0.00  0.00    +0.000 A 
ATOM      6  C   UNL     1       3.336   3.745  17.734  0.00  0.00    +0.000 A 
ATOM      7  C   UNL     1       2.998   2.798  18.701  0.00  0.00    +0.000 A 
ATOM      8  C   UNL     1       2.408   3.238  19.887  0.00  0.00    +0.000 A 
ATOM      9  C   UNL     1       2.212   4.604  20.133  0.00  0.00    +0.000 A 
BRANCH   7  10
ATOM     10  N   UNL     1       3.025   1.436  18.389  0.00  0.00    +0.000 N 
ATOM     11  H   UNL     1       3.956   1.054  18.253  0.00  0.00    +0.000 HD
ATOM     12  H   UNL     1       2.452   0.859  18.995  0.00  0.00    +0.000 HD
ENDBRANCH   7  10
ENDBRANCH   2   4
BRANCH   3  13
ATOM     13  N   UNL     1       1.353   8.628  20.815  0.00  0.00    +0.000 N 
ATOM     14  C   UNL     1       0.130   8.880  21.418  0.00  0.00    +0.000 C 
ATOM     15  O   UNL     1      -0.694   8.018  21.730  0.00  0.00    +0.000 OA
ATOM     16  H   UNL     1       2.022   9.372  20.691  0.00  0.00    +0.000 HD
BRANCH  14  17
ATOM     17  C   UNL     1      -0.187  10.306  21.721  0.00  0.00    +0.000 A 
ATOM     18  C   UNL     1      -1.003  10.688  22.795  0.00  0.00    +0.000 A 
ATOM     19  C   UNL     1      -1.212  12.044  23.067  0.00  0.00    +0.000 A 
ATOM     20  C   UNL     1      -0.613  13.023  22.271  0.00  0.00    +0.000 A 
ATOM     21  C   UNL     1       0.197  12.643  21.203  0.00  0.00    +0.000 A 
ATOM     22 BR   UNL     1       1.023  13.966  20.135  0.00  0.00    +0.000 Br
ATOM     23  C   UNL     1       0.416  11.293  20.928  0.00  0.00    +0.000 A 
ENDBRANCH  14  17
ENDBRANCH   3  13
TORSDOF 4
ENDMDL
MODEL 9
REMARK VINA RESULT:      -6.8      1.578      2.435
REMARK  Name = 
REMARK  5 active torsions:
REMARK  status: ('A' for Active; 'I' for Inactive)
REMARK    1  A    between atoms: C_1  and  C_2
REMARK    2  A    between atoms: C_2  and  C_14
REMARK    3  A    between atoms: N_3  and  N_4
REMARK    4  A    between atoms: C_5  and  C_7
REMARK    5  A    between atoms: C_17  and  N_18
REMARK                            x       y       z     vdW  Elec       q    Type
REMARK                         _______ _______ _______ _____ _____    ______ ____
ROOT
ATOM      1  C   UNL     1       2.809   5.756  19.548  0.00  0.00    +0.000 C 
ATOM      2  C   UNL     1       3.155   6.458  18.252  0.00  0.00    +0.000 C 
ATOM      3  N   UNL     1       2.741   7.643  17.899  0.00  0.00    +0.000 NA
ENDROOT
BRANCH   2   4
ATOM      4  C   UNL     1       4.095   5.729  17.331  0.00  0.00    +0.000 A 
ATOM      5  C   UNL     1       4.887   6.413  16.398  0.00  0.00    +0.000 A 
ATOM      6  C   UNL     1       5.671   5.707  15.478  0.00  0.00    +0.000 A 
ATOM      7  C   UNL     1       5.715   4.313  15.497  0.00  0.00    +0.000 A 
ATOM      8  C   UNL     1       4.918   3.634  16.419  0.00  0.00    +0.000 A 
ATOM      9  C   UNL     1       4.133   4.331  17.348  0.00  0.00    +0.000 A 
BRANCH   7  10
ATOM     10  N   UNL     1       6.350   3.617  14.465  0.00  0.00    +0.000 N 
ATOM     11  H   UNL     1       7.314   3.892  14.302  0.00  0.00    +0.000 HD
ATOM     12  H   UNL     1       6.235   2.610  14.510  0.00  0.00    +0.000 HD
ENDBRANCH   7  10
ENDBRANCH   2   4
BRANCH   3  13
ATOM     13  N   UNL     1       1.911   8.379  18.690  0.00  0.00    +0.000 N 
ATOM     14  C   UNL     1       1.642   9.696  18.347  0.00  0.00    +0.000 C 
ATOM     15  O   UNL     1       2.106  10.278  17.365  0.00  0.00    +0.000 OA
ATOM     16  H   UNL     1       1.409   7.937  19.443  0.00  0.00    +0.000 HD
BRANCH  14  17
ATOM     17  C   UNL     1       0.703  10.441  19.236  0.00  0.00    +0.000 A 
ATOM     18  C   UNL     1      -0.050  11.537  18.791  0.00  0.00    +0.000 A 
ATOM     19  C   UNL     1      -0.961  12.156  19.654  0.00  0.00    +0.000 A 
ATOM     20  C   UNL     1      -1.124  11.688  20.960  0.00  0.00    +0.000 A 
ATOM     21  C   UNL     1      -0.375  10.598  21.401  0.00  0.00    +0.000 A 
ATOM     22 BR   UNL     1      -0.607   9.953  23.162  0.00  0.00    +0.000 Br
ATOM     23  C   UNL     1       0.531   9.972  20.546  0.00  0.00    +0.000 A 
ENDBRANCH  14  17
ENDBRANCH   3  13
TORSDOF 4
ENDMDL
