MODEL 1
REMARK VINA RESULT:      -8.1      0.000      0.000
REMARK  Name = 
REMARK  5 active torsions:
REMARK  status: ('A' for Active; 'I' for Inactive)
REMARK    1  A    between atoms: C_10  and  O_11
REMARK    2  A    between atoms: O_11  and  C_12
REMARK    3  A    between atoms: C_12  and  C_13
REMARK    4  A    between atoms: N_16  and  C_17
REMARK    5  A    between atoms: C_17  and  C_18
REMARK                            x       y       z     vdW  Elec       q    Type
REMARK                         _______ _______ _______ _____ _____    ______ ____
ROOT
ATOM      1  N   UNL     1      11.390  16.548  18.392  0.00  0.00    +0.000 NA
ATOM      2  C   UNL     1      10.753  15.559  17.872  0.00  0.00    +0.000 C 
ATOM      3  N   UNL     1      10.127  15.669  16.682  0.00  0.00    +0.000 N 
ATOM      4  N   UNL     1      10.582  14.349  18.477  0.00  0.00    +0.000 N 
ATOM      5  C   UNL     1      10.635  14.275  19.953  0.00  0.00    +0.000 C 
ATOM      6  C   UNL     1      11.029  12.899  20.512  0.00  0.00    +0.000 C 
ATOM      7  C   UNL     1      10.281  11.812  19.792  0.00  0.00    +0.000 A 
ATOM      8  C   UNL     1       9.709  10.719  20.437  0.00  0.00    +0.000 A 
ATOM      9  C   UNL     1       8.984   9.781  19.695  0.00  0.00    +0.000 A 
ATOM     10  C   UNL     1       8.839   9.924  18.310  0.00  0.00    +0.000 A 
ATOM     11  C   UNL     1       9.458  10.993  17.663  0.00  0.00    +0.000 A 
ATOM     12  C   UNL     1      10.175  11.943  18.398  0.00  0.00    +0.000 A 
ATOM     13  C   UNL     1      10.866  13.113  17.741  0.00  0.00    +0.000 C 
ATOM     14  H   UNL     1      11.393  17.332  17.740  0.00  0.00    +0.000 HD
ATOM     15  H   UNL     1       9.976  16.623  16.378  0.00  0.00    +0.000 HD
ATOM     16  H   UNL     1       9.249  15.160  16.685  0.00  0.00    +0.000 HD
ENDROOT
BRANCH  10  17
ATOM     17  O   UNL     1       8.071   8.963  17.704  0.00  0.00    +0.000 OA
BRANCH  17  18
ATOM     18  C   UNL     1       8.046   7.686  18.343  0.00  0.00    +0.000 C 
BRANCH  18  19
ATOM     19  C   UNL     1       7.580   6.609  17.348  0.00  0.00    +0.000 C 
ATOM     20  C   UNL     1       6.338   7.031  16.560  0.00  0.00    +0.000 C 
ATOM     21  C   UNL     1       5.102   7.124  17.454  0.00  0.00    +0.000 C 
ATOM     22  N   UNL     1       4.827   5.857  18.154  0.00  0.00    +0.000 NA
ATOM     23  C   UNL     1       5.993   5.376  18.915  0.00  0.00    +0.000 C 
ATOM     24  C   UNL     1       7.270   5.293  18.070  0.00  0.00    +0.000 C 
BRANCH  22  25
ATOM     25  C   UNL     1       3.669   5.995  19.064  0.00  0.00    +0.000 C 
BRANCH  25  26
ATOM     26  C   UNL     1       2.854   4.729  19.214  0.00  0.00    +0.000 A 
ATOM     27  C   UNL     1       1.933   4.347  18.236  0.00  0.00    +0.000 A 
ATOM     28  C   UNL     1       1.176   3.205  18.445  0.00  0.00    +0.000 A 
ATOM     29  N   UNL     1       1.284   2.419  19.539  0.00  0.00    +0.000 NA
ATOM     30  C   UNL     1       2.188   2.799  20.466  0.00  0.00    +0.000 A 
ATOM     31  C   UNL     1       2.987   3.926  20.351  0.00  0.00    +0.000 A 
ENDBRANCH  25  26
ENDBRANCH  22  25
ENDBRANCH  18  19
ENDBRANCH  17  18
ENDBRANCH  10  17
TORSDOF 5
ENDMDL
MODEL 2
REMARK VINA RESULT:      -8.0      6.389      7.679
REMARK  Name = 
REMARK  5 active torsions:
REMARK  status: ('A' for Active; 'I' for Inactive)
REMARK    1  A    between atoms: C_10  and  O_11
REMARK    2  A    between atoms: O_11  and  C_12
REMARK    3  A    between atoms: C_12  and  C_13
REMARK    4  A    between atoms: N_16  and  C_17
REMARK    5  A    between atoms: C_17  and  C_18
REMARK                            x       y       z     vdW  Elec       q    Type
REMARK                         _______ _______ _______ _____ _____    ______ ____
ROOT
ATOM      1  N   UNL     1      -1.236  11.238  23.330  0.00  0.00    +0.000 NA
ATOM      2  C   UNL     1      -0.426  10.302  22.982  0.00  0.00    +0.000 C 
ATOM      3  N   UNL     1       0.106   9.455  23.888  0.00  0.00    +0.000 N 
ATOM      4  N   UNL     1       0.030  10.110  21.712  0.00  0.00    +0.000 N 
ATOM      5  C   UNL     1       0.063  11.260  20.782  0.00  0.00    +0.000 C 
ATOM      6  C   UNL     1       0.002  10.884  19.294  0.00  0.00    +0.000 C 
ATOM      7  C   UNL     1       0.932   9.738  19.008  0.00  0.00    +0.000 A 
ATOM      8  C   UNL     1       1.756   9.681  17.888  0.00  0.00    +0.000 A 
ATOM      9  C   UNL     1       2.631   8.602  17.728  0.00  0.00    +0.000 A 
ATOM     10  C   UNL     1       2.676   7.573  18.676  0.00  0.00    +0.000 A 
ATOM     11  C   UNL     1       1.812   7.611  19.770  0.00  0.00    +0.000 A 
ATOM     12  C   UNL     1       0.942   8.691  19.945  0.00  0.00    +0.000 A 
ATOM     13  C   UNL     1      -0.015   8.773  21.109  0.00  0.00    +0.000 C 
ATOM     14  H   UNL     1      -1.439  11.162  24.326  0.00  0.00    +0.000 HD
ATOM     15  H   UNL     1       0.033   9.773  24.847  0.00  0.00    +0.000 HD
ATOM     16  H   UNL     1       1.072   9.242  23.663  0.00  0.00    +0.000 HD
ENDROOT
BRANCH  10  17
ATOM     17  O   UNL     1       3.604   6.595  18.428  0.00  0.00    +0.000 OA
BRANCH  17  18
ATOM     18  C   UNL     1       4.092   6.519  17.087  0.00  0.00    +0.000 C 
BRANCH  18  19
ATOM     19  C   UNL     1       5.482   5.860  17.070  0.00  0.00    +0.000 C 
ATOM     20  C   UNL     1       5.446   4.419  16.555  0.00  0.00    +0.000 C 
ATOM     21  C   UNL     1       4.719   3.488  17.525  0.00  0.00    +0.000 C 
ATOM     22  N   UNL     1       5.319   3.510  18.870  0.00  0.00    +0.000 NA
ATOM     23  C   UNL     1       5.410   4.874  19.418  0.00  0.00    +0.000 C 
ATOM     24  C   UNL     1       6.106   5.858  18.470  0.00  0.00    +0.000 C 
BRANCH  22  25
ATOM     25  C   UNL     1       4.555   2.654  19.804  0.00  0.00    +0.000 C 
BRANCH  25  26
ATOM     26  C   UNL     1       3.062   2.890  19.768  0.00  0.00    +0.000 A 
ATOM     27  C   UNL     1       2.235   2.134  18.932  0.00  0.00    +0.000 A 
ATOM     28  C   UNL     1       0.880   2.423  18.900  0.00  0.00    +0.000 A 
ATOM     29  N   UNL     1       0.296   3.388  19.644  0.00  0.00    +0.000 NA
ATOM     30  C   UNL     1       1.110   4.098  20.453  0.00  0.00    +0.000 A 
ATOM     31  C   UNL     1       2.477   3.889  20.552  0.00  0.00    +0.000 A 
ENDBRANCH  25  26
ENDBRANCH  22  25
ENDBRANCH  18  19
ENDBRANCH  17  18
ENDBRANCH  10  17
TORSDOF 5
ENDMDL
MODEL 3
REMARK VINA RESULT:      -7.8      6.440      7.771
REMARK  Name = 
REMARK  5 active torsions:
REMARK  status: ('A' for Active; 'I' for Inactive)
REMARK    1  A    between atoms: C_10  and  O_11
REMARK    2  A    between atoms: O_11  and  C_12
REMARK    3  A    between atoms: C_12  and  C_13
REMARK    4  A    between atoms: N_16  and  C_17
REMARK    5  A    between atoms: C_17  and  C_18
REMARK                            x       y       z     vdW  Elec       q    Type
REMARK                         _______ _______ _______ _____ _____    ______ ____
ROOT
ATOM      1  N   UNL     1      -1.306  10.968  23.374  0.00  0.00    +0.000 NA
ATOM      2  C   UNL     1      -0.426  10.103  23.009  0.00  0.00    +0.000 C 
ATOM      3  N   UNL     1       0.226   9.337  23.909  0.00  0.00    +0.000 N 
ATOM      4  N   UNL     1      -0.014   9.919  21.723  0.00  0.00    +0.000 N 
ATOM      5  C   UNL     1      -0.136  11.040  20.766  0.00  0.00    +0.000 C 
ATOM      6  C   UNL     1      -0.230  10.617  19.292  0.00  0.00    +0.000 C 
ATOM      7  C   UNL     1       0.792   9.557  18.988  0.00  0.00    +0.000 A 
ATOM      8  C   UNL     1       1.565   9.547  17.831  0.00  0.00    +0.000 A 
ATOM      9  C   UNL     1       2.531   8.551  17.654  0.00  0.00    +0.000 A 
ATOM     10  C   UNL     1       2.719   7.559  18.623  0.00  0.00    +0.000 A 
ATOM     11  C   UNL     1       1.907   7.546  19.757  0.00  0.00    +0.000 A 
ATOM     12  C   UNL     1       0.946   8.544  19.949  0.00  0.00    +0.000 A 
ATOM     13  C   UNL     1       0.042   8.567  21.156  0.00  0.00    +0.000 C 
ATOM     14  H   UNL     1      -1.454  10.902  24.381  0.00  0.00    +0.000 HD
ATOM     15  H   UNL     1       0.168   9.674  24.861  0.00  0.00    +0.000 HD
ATOM     16  H   UNL     1       1.197   9.210  23.641  0.00  0.00    +0.000 HD
ENDROOT
BRANCH  10  17
ATOM     17  O   UNL     1       3.725   6.667  18.352  0.00  0.00    +0.000 OA
BRANCH  17  18
ATOM     18  C   UNL     1       4.655   7.058  17.342  0.00  0.00    +0.000 C 
BRANCH  18  19
ATOM     19  C   UNL     1       5.865   6.108  17.345  0.00  0.00    +0.000 C 
ATOM     20  C   UNL     1       5.812   5.080  16.213  0.00  0.00    +0.000 C 
ATOM     21  C   UNL     1       4.679   4.073  16.413  0.00  0.00    +0.000 C 
ATOM     22  N   UNL     1       4.782   3.371  17.704  0.00  0.00    +0.000 NA
ATOM     23  C   UNL     1       4.865   4.304  18.841  0.00  0.00    +0.000 C 
ATOM     24  C   UNL     1       5.969   5.357  18.677  0.00  0.00    +0.000 C 
BRANCH  22  25
ATOM     25  C   UNL     1       3.638   2.455  17.901  0.00  0.00    +0.000 C 
BRANCH  25  26
ATOM     26  C   UNL     1       2.830   2.744  19.147  0.00  0.00    +0.000 A 
ATOM     27  C   UNL     1       3.313   2.400  20.412  0.00  0.00    +0.000 A 
ATOM     28  C   UNL     1       2.512   2.642  21.517  0.00  0.00    +0.000 A 
ATOM     29  N   UNL     1       1.288   3.209  21.453  0.00  0.00    +0.000 NA
ATOM     30  C   UNL     1       0.845   3.545  20.223  0.00  0.00    +0.000 A 
ATOM     31  C   UNL     1       1.567   3.339  19.058  0.00  0.00    +0.000 A 
ENDBRANCH  25  26
ENDBRANCH  22  25
ENDBRANCH  18  19
ENDBRANCH  17  18
ENDBRANCH  10  17
TORSDOF 5
ENDMDL
MODEL 4
REMARK VINA RESULT:      -7.8      6.703      9.698
REMARK  Name = 
REMARK  5 active torsions:
REMARK  status: ('A' for Active; 'I' for Inactive)
REMARK    1  A    between atoms: C_10  and  O_11
REMARK    2  A    between atoms: O_11  and  C_12
REMARK    3  A    between atoms: C_12  and  C_13
REMARK    4  A    between atoms: N_16  and  C_17
REMARK    5  A    between atoms: C_17  and  C_18
REMARK                            x       y       z     vdW  Elec       q    Type
REMARK                         _______ _______ _______ _____ _____    ______ ____
ROOT
ATOM      1  N   UNL     1       7.835   4.438  17.435  0.00  0.00    +0.000 NA
ATOM      2  C   UNL     1       7.087   5.464  17.230  0.00  0.00    +0.000 C 
ATOM      3  N   UNL     1       7.477   6.473  16.423  0.00  0.00    +0.000 N 
ATOM      4  N   UNL     1       5.886   5.676  17.839  0.00  0.00    +0.000 N 
ATOM      5  C   UNL     1       5.628   5.040  19.149  0.00  0.00    +0.000 C 
ATOM      6  C   UNL     1       4.142   4.821  19.474  0.00  0.00    +0.000 C 
ATOM      7  C   UNL     1       3.348   6.052  19.134  0.00  0.00    +0.000 A 
ATOM      8  C   UNL     1       2.348   6.568  19.952  0.00  0.00    +0.000 A 
ATOM      9  C   UNL     1       1.696   7.749  19.584  0.00  0.00    +0.000 A 
ATOM     10  C   UNL     1       2.030   8.409  18.396  0.00  0.00    +0.000 A 
ATOM     11  C   UNL     1       2.998   7.859  17.555  0.00  0.00    +0.000 A 
ATOM     12  C   UNL     1       3.664   6.684  17.920  0.00  0.00    +0.000 A 
ATOM     13  C   UNL     1       4.713   6.050  17.042  0.00  0.00    +0.000 C 
ATOM     14  H   UNL     1       8.669   4.501  16.852  0.00  0.00    +0.000 HD
ATOM     15  H   UNL     1       8.470   6.484  16.222  0.00  0.00    +0.000 HD
ATOM     16  H   UNL     1       7.187   7.370  16.798  0.00  0.00    +0.000 HD
ENDROOT
BRANCH  10  17
ATOM     17  O   UNL     1       1.349   9.577  18.169  0.00  0.00    +0.000 OA
BRANCH  17  18
ATOM     18  C   UNL     1       1.952  10.764  18.686  0.00  0.00    +0.000 C 
BRANCH  18  19
ATOM     19  C   UNL     1       0.996  11.958  18.514  0.00  0.00    +0.000 C 
ATOM     20  C   UNL     1       1.188  13.028  19.591  0.00  0.00    +0.000 C 
ATOM     21  C   UNL     1       0.753  12.531  20.970  0.00  0.00    +0.000 C 
ATOM     22  N   UNL     1      -0.648  12.077  20.979  0.00  0.00    +0.000 NA
ATOM     23  C   UNL     1      -0.912  11.061  19.946  0.00  0.00    +0.000 C 
ATOM     24  C   UNL     1      -0.466  11.498  18.545  0.00  0.00    +0.000 C 
BRANCH  22  25
ATOM     25  C   UNL     1      -1.021  11.538  22.306  0.00  0.00    +0.000 C 
BRANCH  25  26
ATOM     26  C   UNL     1      -1.837  12.494  23.147  0.00  0.00    +0.000 A 
ATOM     27  C   UNL     1      -3.112  12.143  23.600  0.00  0.00    +0.000 A 
ATOM     28  C   UNL     1      -3.839  13.074  24.326  0.00  0.00    +0.000 A 
ATOM     29  N   UNL     1      -3.384  14.306  24.641  0.00  0.00    +0.000 NA
ATOM     30  C   UNL     1      -2.147  14.621  24.205  0.00  0.00    +0.000 A 
ATOM     31  C   UNL     1      -1.345  13.763  23.468  0.00  0.00    +0.000 A 
ENDBRANCH  25  26
ENDBRANCH  22  25
ENDBRANCH  18  19
ENDBRANCH  17  18
ENDBRANCH  10  17
TORSDOF 5
ENDMDL
MODEL 5
REMARK VINA RESULT:      -7.8      7.036     10.288
REMARK  Name = 
REMARK  5 active torsions:
REMARK  status: ('A' for Active; 'I' for Inactive)
REMARK    1  A    between atoms: C_10  and  O_11
REMARK    2  A    between atoms: O_11  and  C_12
REMARK    3  A    between atoms: C_12  and  C_13
REMARK    4  A    between atoms: N_16  and  C_17
REMARK    5  A    between atoms: C_17  and  C_18
REMARK                            x       y       z     vdW  Elec       q    Type
REMARK                         _______ _______ _______ _____ _____    ______ ____
ROOT
ATOM      1  N   UNL     1       7.853   4.334  16.934  0.00  0.00    +0.000 NA
ATOM      2  C   UNL     1       7.074   5.343  17.108  0.00  0.00    +0.000 C 
ATOM      3  N   UNL     1       7.402   6.573  16.660  0.00  0.00    +0.000 N 
ATOM      4  N   UNL     1       5.903   5.301  17.804  0.00  0.00    +0.000 N 
ATOM      5  C   UNL     1       5.727   4.264  18.845  0.00  0.00    +0.000 C 
ATOM      6  C   UNL     1       4.265   3.898  19.143  0.00  0.00    +0.000 C 
ATOM      7  C   UNL     1       3.430   5.143  19.259  0.00  0.00    +0.000 A 
ATOM      8  C   UNL     1       2.464   5.328  20.244  0.00  0.00    +0.000 A 
ATOM      9  C   UNL     1       1.770   6.541  20.311  0.00  0.00    +0.000 A 
ATOM     10  C   UNL     1       2.028   7.563  19.391  0.00  0.00    +0.000 A 
ATOM     11  C   UNL     1       2.961   7.352  18.375  0.00  0.00    +0.000 A 
ATOM     12  C   UNL     1       3.669   6.147  18.307  0.00  0.00    +0.000 A 
ATOM     13  C   UNL     1       4.683   5.872  17.225  0.00  0.00    +0.000 C 
ATOM     14  H   UNL     1       8.653   4.613  16.368  0.00  0.00    +0.000 HD
ATOM     15  H   UNL     1       8.381   6.684  16.431  0.00  0.00    +0.000 HD
ATOM     16  H   UNL     1       7.113   7.288  17.320  0.00  0.00    +0.000 HD
ENDROOT
BRANCH  10  17
ATOM     17  O   UNL     1       1.313   8.716  19.589  0.00  0.00    +0.000 OA
BRANCH  17  18
ATOM     18  C   UNL     1       0.499   8.756  20.761  0.00  0.00    +0.000 C 
BRANCH  18  19
ATOM     19  C   UNL     1       1.143   9.669  21.818  0.00  0.00    +0.000 C 
ATOM     20  C   UNL     1       0.385   9.662  23.148  0.00  0.00    +0.000 C 
ATOM     21  C   UNL     1      -0.988  10.322  23.022  0.00  0.00    +0.000 C 
ATOM     22  N   UNL     1      -0.895  11.705  22.523  0.00  0.00    +0.000 NA
ATOM     23  C   UNL     1      -0.151  11.791  21.254  0.00  0.00    +0.000 C 
ATOM     24  C   UNL     1       1.225  11.116  21.317  0.00  0.00    +0.000 C 
BRANCH  22  25
ATOM     25  C   UNL     1      -2.240  12.295  22.346  0.00  0.00    +0.000 C 
BRANCH  25  26
ATOM     26  C   UNL     1      -2.495  13.507  23.213  0.00  0.00    +0.000 A 
ATOM     27  C   UNL     1      -1.437  14.200  23.808  0.00  0.00    +0.000 A 
ATOM     28  C   UNL     1      -1.728  15.275  24.633  0.00  0.00    +0.000 A 
ATOM     29  N   UNL     1      -2.980  15.712  24.891  0.00  0.00    +0.000 NA
ATOM     30  C   UNL     1      -3.986  15.037  24.297  0.00  0.00    +0.000 A 
ATOM     31  C   UNL     1      -3.799  13.947  23.461  0.00  0.00    +0.000 A 
ENDBRANCH  25  26
ENDBRANCH  22  25
ENDBRANCH  18  19
ENDBRANCH  17  18
ENDBRANCH  10  17
TORSDOF 5
ENDMDL
MODEL 6
REMARK VINA RESULT:      -7.7      4.946      8.269
REMARK  Name = 
REMARK  5 active torsions:
REMARK  status: ('A' for Active; 'I' for Inactive)
REMARK    1  A    between atoms: C_10  and  O_11
REMARK    2  A    between atoms: O_11  and  C_12
REMARK    3  A    between atoms: C_12  and  C_13
REMARK    4  A    between atoms: N_16  and  C_17
REMARK    5  A    between atoms: C_17  and  C_18
REMARK                            x       y       z     vdW  Elec       q    Type
REMARK                         _______ _______ _______ _____ _____    ______ ____
ROOT
ATOM      1  N   UNL     1      -1.942  13.645  19.307  0.00  0.00    +0.000 NA
ATOM      2  C   UNL     1      -1.343  12.626  18.799  0.00  0.00    +0.000 C 
ATOM      3  N   UNL     1      -1.381  12.372  17.475  0.00  0.00    +0.000 N 
ATOM      4  N   UNL     1      -0.684  11.679  19.525  0.00  0.00    +0.000 N 
ATOM      5  C   UNL     1      -1.072  11.462  20.936  0.00  0.00    +0.000 C 
ATOM      6  C   UNL     1       0.033  10.866  21.821  0.00  0.00    +0.000 C 
ATOM      7  C   UNL     1       0.714   9.730  21.109  0.00  0.00    +0.000 A 
ATOM      8  C   UNL     1       1.053   8.531  21.729  0.00  0.00    +0.000 A 
ATOM      9  C   UNL     1       1.637   7.506  20.977  0.00  0.00    +0.000 A 
ATOM     10  C   UNL     1       1.894   7.679  19.612  0.00  0.00    +0.000 A 
ATOM     11  C   UNL     1       1.598   8.901  19.008  0.00  0.00    +0.000 A 
ATOM     12  C   UNL     1       1.003   9.928  19.749  0.00  0.00    +0.000 A 
ATOM     13  C   UNL     1       0.670  11.268  19.141  0.00  0.00    +0.000 C 
ATOM     14  H   UNL     1      -2.343  14.212  18.561  0.00  0.00    +0.000 HD
ATOM     15  H   UNL     1      -2.110  12.869  16.977  0.00  0.00    +0.000 HD
ATOM     16  H   UNL     1      -1.455  11.375  17.298  0.00  0.00    +0.000 HD
ENDROOT
BRANCH  10  17
ATOM     17  O   UNL     1       2.428   6.587  18.979  0.00  0.00    +0.000 OA
BRANCH  17  18
ATOM     18  C   UNL     1       2.846   5.514  19.824  0.00  0.00    +0.000 C 
BRANCH  18  19
ATOM     19  C   UNL     1       2.510   4.165  19.167  0.00  0.00    +0.000 C 
ATOM     20  C   UNL     1       3.569   3.094  19.440  0.00  0.00    +0.000 C 
ATOM     21  C   UNL     1       4.891   3.412  18.741  0.00  0.00    +0.000 C 
ATOM     22  N   UNL     1       4.724   3.572  17.286  0.00  0.00    +0.000 NA
ATOM     23  C   UNL     1       3.696   4.572  16.949  0.00  0.00    +0.000 C 
ATOM     24  C   UNL     1       2.355   4.317  17.650  0.00  0.00    +0.000 C 
BRANCH  22  25
ATOM     25  C   UNL     1       6.003   3.946  16.645  0.00  0.00    +0.000 C 
BRANCH  25  26
ATOM     26  C   UNL     1       6.692   5.125  17.296  0.00  0.00    +0.000 A 
ATOM     27  C   UNL     1       6.638   6.397  16.719  0.00  0.00    +0.000 A 
ATOM     28  C   UNL     1       7.327   7.433  17.329  0.00  0.00    +0.000 A 
ATOM     29  N   UNL     1       8.042   7.297  18.466  0.00  0.00    +0.000 NA
ATOM     30  C   UNL     1       8.072   6.064  19.014  0.00  0.00    +0.000 A 
ATOM     31  C   UNL     1       7.422   4.963  18.478  0.00  0.00    +0.000 A 
ENDBRANCH  25  26
ENDBRANCH  22  25
ENDBRANCH  18  19
ENDBRANCH  17  18
ENDBRANCH  10  17
TORSDOF 5
ENDMDL
MODEL 7
REMARK VINA RESULT:      -7.7      5.822      9.935
REMARK  Name = 
REMARK  5 active torsions:
REMARK  status: ('A' for Active; 'I' for Inactive)
REMARK    1  A    between atoms: C_10  and  O_11
REMARK    2  A    between atoms: O_11  and  C_12
REMARK    3  A    between atoms: C_12  and  C_13
REMARK    4  A    between atoms: N_16  and  C_17
REMARK    5  A    between atoms: C_17  and  C_18
REMARK                            x       y       z     vdW  Elec       q    Type
REMARK                         _______ _______ _______ _____ _____    ______ ____
ROOT
ATOM      1  N   UNL     1       7.424   5.087  15.573  0.00  0.00    +0.000 NA
ATOM      2  C   UNL     1       6.785   5.783  16.447  0.00  0.00    +0.000 C 
ATOM      3  N   UNL     1       7.298   6.924  16.953  0.00  0.00    +0.000 N 
ATOM      4  N   UNL     1       5.591   5.422  16.996  0.00  0.00    +0.000 N 
ATOM      5  C   UNL     1       5.229   3.988  17.040  0.00  0.00    +0.000 C 
ATOM      6  C   UNL     1       3.720   3.710  17.097  0.00  0.00    +0.000 C 
ATOM      7  C   UNL     1       3.060   4.620  18.095  0.00  0.00    +0.000 A 
ATOM      8  C   UNL     1       2.087   4.193  18.996  0.00  0.00    +0.000 A 
ATOM      9  C   UNL     1       1.565   5.097  19.927  0.00  0.00    +0.000 A 
ATOM     10  C   UNL     1       2.001   6.426  19.954  0.00  0.00    +0.000 A 
ATOM     11  C   UNL     1       2.938   6.860  19.016  0.00  0.00    +0.000 A 
ATOM     12  C   UNL     1       3.475   5.962  18.089  0.00  0.00    +0.000 A 
ATOM     13  C   UNL     1       4.487   6.385  17.053  0.00  0.00    +0.000 C 
ATOM     14  H   UNL     1       8.279   5.574  15.307  0.00  0.00    +0.000 HD
ATOM     15  H   UNL     1       8.293   7.036  16.801  0.00  0.00    +0.000 HD
ATOM     16  H   UNL     1       7.083   7.011  17.941  0.00  0.00    +0.000 HD
ENDROOT
BRANCH  10  17
ATOM     17  O   UNL     1       1.444   7.200  20.940  0.00  0.00    +0.000 OA
BRANCH  17  18
ATOM     18  C   UNL     1       1.624   8.610  20.806  0.00  0.00    +0.000 C 
BRANCH  18  19
ATOM     19  C   UNL     1       0.322   9.262  20.310  0.00  0.00    +0.000 C 
ATOM     20  C   UNL     1       0.380   9.649  18.830  0.00  0.00    +0.000 C 
ATOM     21  C   UNL     1       1.366  10.790  18.581  0.00  0.00    +0.000 C 
ATOM     22  N   UNL     1       1.046  11.984  19.383  0.00  0.00    +0.000 NA
ATOM     23  C   UNL     1       0.947  11.679  20.821  0.00  0.00    +0.000 C 
ATOM     24  C   UNL     1      -0.008  10.518  21.125  0.00  0.00    +0.000 C 
BRANCH  22  25
ATOM     25  C   UNL     1       2.053  13.047  19.174  0.00  0.00    +0.000 C 
BRANCH  25  26
ATOM     26  C   UNL     1       1.502  14.449  19.317  0.00  0.00    +0.000 A 
ATOM     27  C   UNL     1       0.255  14.788  18.787  0.00  0.00    +0.000 A 
ATOM     28  C   UNL     1      -0.182  16.098  18.903  0.00  0.00    +0.000 A 
ATOM     29  N   UNL     1       0.519  17.076  19.516  0.00  0.00    +0.000 NA
ATOM     30  C   UNL     1       1.716  16.725  20.032  0.00  0.00    +0.000 A 
ATOM     31  C   UNL     1       2.243  15.444  19.963  0.00  0.00    +0.000 A 
ENDBRANCH  25  26
ENDBRANCH  22  25
ENDBRANCH  18  19
ENDBRANCH  17  18
ENDBRANCH  10  17
TORSDOF 5
ENDMDL
MODEL 8
REMARK VINA RESULT:      -7.6      2.175      2.300
REMARK  Name = 
REMARK  5 active torsions:
REMARK  status: ('A' for Active; 'I' for Inactive)
REMARK    1  A    between atoms: C_10  and  O_11
REMARK    2  A    between atoms: O_11  and  C_12
REMARK    3  A    between atoms: C_12  and  C_13
REMARK    4  A    between atoms: N_16  and  C_17
REMARK    5  A    between atoms: C_17  and  C_18
REMARK                            x       y       z     vdW  Elec       q    Type
REMARK                         _______ _______ _______ _____ _____    ______ ____
ROOT
ATOM      1  N   UNL     1       5.921  16.517  18.347  0.00  0.00    +0.000 NA
ATOM      2  C   UNL     1       5.933  15.250  18.125  0.00  0.00    +0.000 C 
ATOM      3  N   UNL     1       4.875  14.619  17.575  0.00  0.00    +0.000 N 
ATOM      4  N   UNL     1       6.954  14.417  18.474  0.00  0.00    +0.000 N 
ATOM      5  C   UNL     1       7.842  14.804  19.592  0.00  0.00    +0.000 C 
ATOM      6  C   UNL     1       9.244  14.179  19.542  0.00  0.00    +0.000 C 
ATOM      7  C   UNL     1       9.151  12.716  19.209  0.00  0.00    +0.000 A 
ATOM      8  C   UNL     1       9.904  11.735  19.848  0.00  0.00    +0.000 A 
ATOM      9  C   UNL     1       9.714  10.391  19.512  0.00  0.00    +0.000 A 
ATOM     10  C   UNL     1       8.784  10.024  18.532  0.00  0.00    +0.000 A 
ATOM     11  C   UNL     1       8.069  11.016  17.860  0.00  0.00    +0.000 A 
ATOM     12  C   UNL     1       8.243  12.362  18.197  0.00  0.00    +0.000 A 
ATOM     13  C   UNL     1       7.496  13.469  17.496  0.00  0.00    +0.000 C 
ATOM     14  H   UNL     1       5.060  16.920  17.979  0.00  0.00    +0.000 HD
ATOM     15  H   UNL     1       4.013  15.150  17.604  0.00  0.00    +0.000 HD
ATOM     16  H   UNL     1       4.737  13.707  17.997  0.00  0.00    +0.000 HD
ENDROOT
BRANCH  10  17
ATOM     17  O   UNL     1       8.661   8.675  18.325  0.00  0.00    +0.000 OA
BRANCH  17  18
ATOM     18  C   UNL     1       7.447   8.243  17.709  0.00  0.00    +0.000 C 
BRANCH  18  19
ATOM     19  C   UNL     1       7.578   6.779  17.257  0.00  0.00    +0.000 C 
ATOM     20  C   UNL     1       6.352   6.287  16.482  0.00  0.00    +0.000 C 
ATOM     21  C   UNL     1       5.119   6.184  17.379  0.00  0.00    +0.000 C 
ATOM     22  N   UNL     1       5.347   5.303  18.537  0.00  0.00    +0.000 NA
ATOM     23  C   UNL     1       6.532   5.703  19.316  0.00  0.00    +0.000 C 
ATOM     24  C   UNL     1       7.794   5.851  18.458  0.00  0.00    +0.000 C 
BRANCH  22  25
ATOM     25  C   UNL     1       4.162   5.275  19.422  0.00  0.00    +0.000 C 
BRANCH  25  26
ATOM     26  C   UNL     1       3.205   4.141  19.128  0.00  0.00    +0.000 A 
ATOM     27  C   UNL     1       1.836   4.378  18.976  0.00  0.00    +0.000 A 
ATOM     28  C   UNL     1       0.996   3.298  18.757  0.00  0.00    +0.000 A 
ATOM     29  N   UNL     1       1.420   2.019  18.663  0.00  0.00    +0.000 NA
ATOM     30  C   UNL     1       2.746   1.813  18.801  0.00  0.00    +0.000 A 
ATOM     31  C   UNL     1       3.667   2.825  19.028  0.00  0.00    +0.000 A 
ENDBRANCH  25  26
ENDBRANCH  22  25
ENDBRANCH  18  19
ENDBRANCH  17  18
ENDBRANCH  10  17
TORSDOF 5
ENDMDL
MODEL 9
REMARK VINA RESULT:      -7.6      6.624     10.008
REMARK  Name = 
REMARK  5 active torsions:
REMARK  status: ('A' for Active; 'I' for Inactive)
REMARK    1  A    between atoms: C_10  and  O_11
REMARK    2  A    between atoms: O_11  and  C_12
REMARK    3  A    between atoms: C_12  and  C_13
REMARK    4  A    between atoms: N_16  and  C_17
REMARK    5  A    between atoms: C_17  and  C_18
REMARK                            x       y       z     vdW  Elec       q    Type
REMARK                         _______ _______ _______ _____ _____    ______ ____
ROOT
ATOM      1  N   UNL     1       7.403   5.895  15.855  0.00  0.00    +0.000 NA
ATOM      2  C   UNL     1       6.671   6.400  16.783  0.00  0.00    +0.000 C 
ATOM      3  N   UNL     1       7.025   7.532  17.426  0.00  0.00    +0.000 N 
ATOM      4  N   UNL     1       5.528   5.829  17.259  0.00  0.00    +0.000 N 
ATOM      5  C   UNL     1       5.354   4.366  17.135  0.00  0.00    +0.000 C 
ATOM      6  C   UNL     1       3.893   3.892  17.123  0.00  0.00    +0.000 C 
ATOM      7  C   UNL     1       3.110   4.591  18.199  0.00  0.00    +0.000 A 
ATOM      8  C   UNL     1       2.192   3.946  19.021  0.00  0.00    +0.000 A 
ATOM      9  C   UNL     1       1.547   4.664  20.033  0.00  0.00    +0.000 A 
ATOM     10  C   UNL     1       1.806   6.026  20.219  0.00  0.00    +0.000 A 
ATOM     11  C   UNL     1       2.689   6.679  19.358  0.00  0.00    +0.000 A 
ATOM     12  C   UNL     1       3.348   5.968  18.351  0.00  0.00    +0.000 A 
ATOM     13  C   UNL     1       4.307   6.631  17.394  0.00  0.00    +0.000 C 
ATOM     14  H   UNL     1       8.191   6.514  15.665  0.00  0.00    +0.000 HD
ATOM     15  H   UNL     1       7.999   7.787  17.312  0.00  0.00    +0.000 HD
ATOM     16  H   UNL     1       6.791   7.480  18.411  0.00  0.00    +0.000 HD
ENDROOT
BRANCH  10  17
ATOM     17  O   UNL     1       1.143   6.606  21.269  0.00  0.00    +0.000 OA
BRANCH  17  18
ATOM     18  C   UNL     1       0.546   7.877  21.010  0.00  0.00    +0.000 C 
BRANCH  18  19
ATOM     19  C   UNL     1       1.335   8.986  21.728  0.00  0.00    +0.000 C 
ATOM     20  C   UNL     1       0.705   9.388  23.064  0.00  0.00    +0.000 C 
ATOM     21  C   UNL     1      -0.637  10.094  22.870  0.00  0.00    +0.000 C 
ATOM     22  N   UNL     1      -0.517  11.285  22.010  0.00  0.00    +0.000 NA
ATOM     23  C   UNL     1       0.108  10.975  20.712  0.00  0.00    +0.000 C 
ATOM     24  C   UNL     1       1.446  10.237  20.850  0.00  0.00    +0.000 C 
BRANCH  22  25
ATOM     25  C   UNL     1      -1.839  11.908  21.783  0.00  0.00    +0.000 C 
BRANCH  25  26
ATOM     26  C   UNL     1      -2.318  12.764  22.935  0.00  0.00    +0.000 A 
ATOM     27  C   UNL     1      -3.551  12.520  23.546  0.00  0.00    +0.000 A 
ATOM     28  C   UNL     1      -3.965  13.364  24.565  0.00  0.00    +0.000 A 
ATOM     29  N   UNL     1      -3.240  14.408  25.022  0.00  0.00    +0.000 NA
ATOM     30  C   UNL     1      -2.047  14.618  24.427  0.00  0.00    +0.000 A 
ATOM     31  C   UNL     1      -1.547  13.835  23.398  0.00  0.00    +0.000 A 
ENDBRANCH  25  26
ENDBRANCH  22  25
ENDBRANCH  18  19
ENDBRANCH  17  18
ENDBRANCH  10  17
TORSDOF 5
ENDMDL
