MODEL 1
REMARK VINA RESULT:      -8.3      0.000      0.000
REMARK  Name = 
REMARK  7 active torsions:
REMARK  status: ('A' for Active; 'I' for Inactive)
REMARK    1  A    between atoms: C_2  and  C_3
REMARK    2  A    between atoms: C_7  and  N_8
REMARK    3  A    between atoms: C_9  and  C_19
REMARK    4  A    between atoms: N_10  and  N_11
REMARK    5  A    between atoms: N_11  and  C_12
REMARK    6  A    between atoms: C_17  and  C_18
REMARK    7  A    between atoms: C_19  and  C_20
REMARK                            x       y       z     vdW  Elec       q    Type
REMARK                         _______ _______ _______ _____ _____    ______ ____
ROOT
ATOM      1  N   UNL     1       5.922   4.112  16.390  0.00  0.00    +0.000 NA
ATOM      2  C   UNL     1       5.975   5.064  17.290  0.00  0.00    +0.000 C 
ATOM      3  N   UNL     1       5.804   4.789  18.645  0.00  0.00    +0.000 N 
ATOM      4  H   UNL     1       6.558   5.150  19.227  0.00  0.00    +0.000 HD
ENDROOT
BRANCH   1   9
ATOM      5  C   UNL     1       5.564   3.887  12.692  0.00  0.00    +0.000 A 
ATOM      6  C   UNL     1       6.782   4.399  12.242  0.00  0.00    +0.000 A 
ATOM      7  C   UNL     1       7.722   4.849  13.170  0.00  0.00    +0.000 A 
ATOM      8  C   UNL     1       7.465   4.762  14.549  0.00  0.00    +0.000 A 
ATOM      9  C   UNL     1       6.266   4.229  15.026  0.00  0.00    +0.000 A 
ATOM     10  C   UNL     1       5.303   3.852  14.074  0.00  0.00    +0.000 A 
BRANCH   5  12
ATOM     11  C   UNL     1       3.819   2.945  10.952  0.00  0.00    +0.000 C 
ATOM     12  C   UNL     1       4.621   3.338  11.769  0.00  0.00    +0.000 C 
ENDBRANCH   5  12
ENDBRANCH   1   9
BRANCH   2  13
ATOM     13  C   UNL     1       6.260   6.570  17.008  0.00  0.00    +0.000 C 
ATOM     14  C   UNL     1       7.511   7.168  17.637  0.00  0.00    +0.000 C 
ATOM     15  O   UNL     1       5.541   7.235  16.275  0.00  0.00    +0.000 OA
ENDBRANCH   2  13
BRANCH   3  16
ATOM     16  N   UNL     1       5.205   3.660  19.173  0.00  0.00    +0.000 N 
ATOM     17  H   UNL     1       5.553   2.776  18.790  0.00  0.00    +0.000 HD
BRANCH  16  18
ATOM     18  C   UNL     1       3.802   3.650  19.419  0.00  0.00    +0.000 A 
ATOM     19  C   UNL     1       3.217   4.682  20.177  0.00  0.00    +0.000 A 
ATOM     20  C   UNL     1       1.845   4.700  20.468  0.00  0.00    +0.000 A 
ATOM     21  C   UNL     1       1.040   3.668  20.031  0.00  0.00    +0.000 A 
ATOM     22  C   UNL     1       1.598   2.607  19.327  0.00  0.00    +0.000 A 
ATOM     23  C   UNL     1       2.979   2.569  19.032  0.00  0.00    +0.000 A 
ATOM     24  C   UNL     1       3.506   1.355  18.321  0.00  0.00    +0.000 C 
ENDBRANCH  16  18
ENDBRANCH   3  16
TORSDOF 5
ENDMDL
MODEL 2
REMARK VINA RESULT:      -8.3      0.948      1.010
REMARK  Name = 
REMARK  7 active torsions:
REMARK  status: ('A' for Active; 'I' for Inactive)
REMARK    1  A    between atoms: C_2  and  C_3
REMARK    2  A    between atoms: C_7  and  N_8
REMARK    3  A    between atoms: C_9  and  C_19
REMARK    4  A    between atoms: N_10  and  N_11
REMARK    5  A    between atoms: N_11  and  C_12
REMARK    6  A    between atoms: C_17  and  C_18
REMARK    7  A    between atoms: C_19  and  C_20
REMARK                            x       y       z     vdW  Elec       q    Type
REMARK                         _______ _______ _______ _____ _____    ______ ____
ROOT
ATOM      1  N   UNL     1       5.725   3.688  16.612  0.00  0.00    +0.000 NA
ATOM      2  C   UNL     1       5.812   4.456  17.671  0.00  0.00    +0.000 C 
ATOM      3  N   UNL     1       5.562   3.958  18.948  0.00  0.00    +0.000 N 
ATOM      4  H   UNL     1       6.316   4.145  19.608  0.00  0.00    +0.000 HD
ENDROOT
BRANCH   1   9
ATOM      5  C   UNL     1       5.603   3.948  12.901  0.00  0.00    +0.000 A 
ATOM      6  C   UNL     1       6.796   4.611  12.608  0.00  0.00    +0.000 A 
ATOM      7  C   UNL     1       7.638   5.000  13.651  0.00  0.00    +0.000 A 
ATOM      8  C   UNL     1       7.311   4.704  14.985  0.00  0.00    +0.000 A 
ATOM      9  C   UNL     1       6.136   4.019  15.303  0.00  0.00    +0.000 A 
ATOM     10  C   UNL     1       5.266   3.702  14.245  0.00  0.00    +0.000 A 
BRANCH   5  12
ATOM     11  C   UNL     1       4.007   3.019  11.017  0.00  0.00    +0.000 C 
ATOM     12  C   UNL     1       4.766   3.459  11.850  0.00  0.00    +0.000 C 
ENDBRANCH   5  12
ENDBRANCH   1   9
BRANCH   2  13
ATOM     13  C   UNL     1       6.225   5.959  17.677  0.00  0.00    +0.000 C 
ATOM     14  C   UNL     1       7.581   6.302  18.277  0.00  0.00    +0.000 C 
ATOM     15  O   UNL     1       5.516   6.822  17.179  0.00  0.00    +0.000 OA
ENDBRANCH   2  13
BRANCH   3  16
ATOM     16  N   UNL     1       4.855   2.807  19.244  0.00  0.00    +0.000 N 
ATOM     17  H   UNL     1       4.988   2.043  18.575  0.00  0.00    +0.000 HD
BRANCH  16  18
ATOM     18  C   UNL     1       3.519   2.900  19.731  0.00  0.00    +0.000 A 
ATOM     19  C   UNL     1       3.272   2.825  21.115  0.00  0.00    +0.000 A 
ATOM     20  C   UNL     1       1.972   2.883  21.638  0.00  0.00    +0.000 A 
ATOM     21  C   UNL     1       0.894   2.987  20.782  0.00  0.00    +0.000 A 
ATOM     22  C   UNL     1       1.103   3.009  19.408  0.00  0.00    +0.000 A 
ATOM     23  C   UNL     1       2.404   2.942  18.863  0.00  0.00    +0.000 A 
ATOM     24  C   UNL     1       2.533   2.909  17.367  0.00  0.00    +0.000 C 
ENDBRANCH  16  18
ENDBRANCH   3  16
TORSDOF 5
ENDMDL
MODEL 3
REMARK VINA RESULT:      -8.2      3.016      7.262
REMARK  Name = 
REMARK  7 active torsions:
REMARK  status: ('A' for Active; 'I' for Inactive)
REMARK    1  A    between atoms: C_2  and  C_3
REMARK    2  A    between atoms: C_7  and  N_8
REMARK    3  A    between atoms: C_9  and  C_19
REMARK    4  A    between atoms: N_10  and  N_11
REMARK    5  A    between atoms: N_11  and  C_12
REMARK    6  A    between atoms: C_17  and  C_18
REMARK    7  A    between atoms: C_19  and  C_20
REMARK                            x       y       z     vdW  Elec       q    Type
REMARK                         _______ _______ _______ _____ _____    ______ ____
ROOT
ATOM      1  N   UNL     1       3.502   6.013  18.927  0.00  0.00    +0.000 NA
ATOM      2  C   UNL     1       3.122   4.759  18.949  0.00  0.00    +0.000 C 
ATOM      3  N   UNL     1       4.042   3.727  19.121  0.00  0.00    +0.000 N 
ATOM      4  H   UNL     1       3.796   3.092  19.879  0.00  0.00    +0.000 HD
ENDROOT
BRANCH   1   9
ATOM      5  C   UNL     1       1.188   8.584  20.302  0.00  0.00    +0.000 A 
ATOM      6  C   UNL     1       0.937   9.388  19.189  0.00  0.00    +0.000 A 
ATOM      7  C   UNL     1       1.561   9.092  17.975  0.00  0.00    +0.000 A 
ATOM      8  C   UNL     1       2.411   7.979  17.859  0.00  0.00    +0.000 A 
ATOM      9  C   UNL     1       2.658   7.144  18.952  0.00  0.00    +0.000 A 
ATOM     10  C   UNL     1       2.079   7.503  20.182  0.00  0.00    +0.000 A 
BRANCH   5  12
ATOM     11  C   UNL     1      -0.036   9.053  22.592  0.00  0.00    +0.000 C 
ATOM     12  C   UNL     1       0.494   8.810  21.532  0.00  0.00    +0.000 C 
ENDBRANCH   5  12
ENDBRANCH   1   9
BRANCH   2  13
ATOM     13  C   UNL     1       1.653   4.249  18.831  0.00  0.00    +0.000 C 
ATOM     14  C   UNL     1       0.906   3.984  20.131  0.00  0.00    +0.000 C 
ATOM     15  O   UNL     1       1.105   4.112  17.746  0.00  0.00    +0.000 OA
ENDBRANCH   2  13
BRANCH   3  16
ATOM     16  N   UNL     1       5.405   3.814  18.906  0.00  0.00    +0.000 N 
ATOM     17  H   UNL     1       5.937   4.187  19.698  0.00  0.00    +0.000 HD
BRANCH  16  18
ATOM     18  C   UNL     1       5.898   4.252  17.644  0.00  0.00    +0.000 A 
ATOM     19  C   UNL     1       5.461   3.620  16.464  0.00  0.00    +0.000 A 
ATOM     20  C   UNL     1       5.940   3.999  15.201  0.00  0.00    +0.000 A 
ATOM     21  C   UNL     1       6.888   4.997  15.100  0.00  0.00    +0.000 A 
ATOM     22  C   UNL     1       7.379   5.602  16.251  0.00  0.00    +0.000 A 
ATOM     23  C   UNL     1       6.914   5.228  17.531  0.00  0.00    +0.000 A 
ATOM     24  C   UNL     1       7.544   5.891  18.723  0.00  0.00    +0.000 C 
ENDBRANCH  16  18
ENDBRANCH   3  16
TORSDOF 5
ENDMDL
MODEL 4
REMARK VINA RESULT:      -8.1      1.517      2.160
REMARK  Name = 
REMARK  7 active torsions:
REMARK  status: ('A' for Active; 'I' for Inactive)
REMARK    1  A    between atoms: C_2  and  C_3
REMARK    2  A    between atoms: C_7  and  N_8
REMARK    3  A    between atoms: C_9  and  C_19
REMARK    4  A    between atoms: N_10  and  N_11
REMARK    5  A    between atoms: N_11  and  C_12
REMARK    6  A    between atoms: C_17  and  C_18
REMARK    7  A    between atoms: C_19  and  C_20
REMARK                            x       y       z     vdW  Elec       q    Type
REMARK                         _______ _______ _______ _____ _____    ______ ____
ROOT
ATOM      1  N   UNL     1       5.310   5.015  15.760  0.00  0.00    +0.000 NA
ATOM      2  C   UNL     1       5.773   5.113  16.982  0.00  0.00    +0.000 C 
ATOM      3  N   UNL     1       4.918   5.112  18.082  0.00  0.00    +0.000 N 
ATOM      4  H   UNL     1       5.168   4.418  18.785  0.00  0.00    +0.000 HD
ENDROOT
BRANCH   1   9
ATOM      5  C   UNL     1       6.378   3.493  12.535  0.00  0.00    +0.000 A 
ATOM      6  C   UNL     1       7.484   4.270  12.189  0.00  0.00    +0.000 A 
ATOM      7  C   UNL     1       7.866   5.327  13.018  0.00  0.00    +0.000 A 
ATOM      8  C   UNL     1       7.167   5.593  14.207  0.00  0.00    +0.000 A 
ATOM      9  C   UNL     1       6.073   4.814  14.589  0.00  0.00    +0.000 A 
ATOM     10  C   UNL     1       5.659   3.803  13.704  0.00  0.00    +0.000 A 
BRANCH   5  12
ATOM     11  C   UNL     1       5.696   1.347  11.161  0.00  0.00    +0.000 C 
ATOM     12  C   UNL     1       6.019   2.351  11.754  0.00  0.00    +0.000 C 
ENDBRANCH   5  12
ENDBRANCH   1   9
BRANCH   2  13
ATOM     13  C   UNL     1       7.277   5.203  17.383  0.00  0.00    +0.000 C 
ATOM     14  C   UNL     1       7.757   6.520  17.978  0.00  0.00    +0.000 C 
ATOM     15  O   UNL     1       8.031   4.247  17.271  0.00  0.00    +0.000 OA
ENDBRANCH   2  13
BRANCH   3  16
ATOM     16  N   UNL     1       3.565   5.394  18.056  0.00  0.00    +0.000 N 
ATOM     17  H   UNL     1       3.330   6.369  18.265  0.00  0.00    +0.000 HD
BRANCH  16  18
ATOM     18  C   UNL     1       2.635   4.464  18.603  0.00  0.00    +0.000 A 
ATOM     19  C   UNL     1       2.386   3.249  17.937  0.00  0.00    +0.000 A 
ATOM     20  C   UNL     1       1.459   2.315  18.423  0.00  0.00    +0.000 A 
ATOM     21  C   UNL     1       0.743   2.596  19.569  0.00  0.00    +0.000 A 
ATOM     22  C   UNL     1       0.928   3.810  20.220  0.00  0.00    +0.000 A 
ATOM     23  C   UNL     1       1.850   4.766  19.739  0.00  0.00    +0.000 A 
ATOM     24  C   UNL     1       1.940   6.076  20.469  0.00  0.00    +0.000 C 
ENDBRANCH  16  18
ENDBRANCH   3  16
TORSDOF 5
ENDMDL
MODEL 5
REMARK VINA RESULT:      -8.0      1.513      1.550
REMARK  Name = 
REMARK  7 active torsions:
REMARK  status: ('A' for Active; 'I' for Inactive)
REMARK    1  A    between atoms: C_2  and  C_3
REMARK    2  A    between atoms: C_7  and  N_8
REMARK    3  A    between atoms: C_9  and  C_19
REMARK    4  A    between atoms: N_10  and  N_11
REMARK    5  A    between atoms: N_11  and  C_12
REMARK    6  A    between atoms: C_17  and  C_18
REMARK    7  A    between atoms: C_19  and  C_20
REMARK                            x       y       z     vdW  Elec       q    Type
REMARK                         _______ _______ _______ _____ _____    ______ ____
ROOT
ATOM      1  N   UNL     1       5.234   4.774  15.508  0.00  0.00    +0.000 NA
ATOM      2  C   UNL     1       5.682   4.967  16.724  0.00  0.00    +0.000 C 
ATOM      3  N   UNL     1       4.830   4.916  17.826  0.00  0.00    +0.000 N 
ATOM      4  H   UNL     1       5.152   4.279  18.554  0.00  0.00    +0.000 HD
ENDROOT
BRANCH   1   9
ATOM      5  C   UNL     1       6.425   3.288  12.310  0.00  0.00    +0.000 A 
ATOM      6  C   UNL     1       7.476   4.137  11.958  0.00  0.00    +0.000 A 
ATOM      7  C   UNL     1       7.777   5.229  12.774  0.00  0.00    +0.000 A 
ATOM      8  C   UNL     1       7.054   5.461  13.956  0.00  0.00    +0.000 A 
ATOM      9  C   UNL     1       6.016   4.611  14.344  0.00  0.00    +0.000 A 
ATOM     10  C   UNL     1       5.680   3.562  13.471  0.00  0.00    +0.000 A 
BRANCH   5  12
ATOM     11  C   UNL     1       5.934   1.075  10.960  0.00  0.00    +0.000 C 
ATOM     12  C   UNL     1       6.153   2.113  11.543  0.00  0.00    +0.000 C 
ENDBRANCH   5  12
ENDBRANCH   1   9
BRANCH   2  13
ATOM     13  C   UNL     1       7.167   5.232  17.118  0.00  0.00    +0.000 C 
ATOM     14  C   UNL     1       7.534   6.655  17.515  0.00  0.00    +0.000 C 
ATOM     15  O   UNL     1       7.993   4.331  17.154  0.00  0.00    +0.000 OA
ENDBRANCH   2  13
BRANCH   3  16
ATOM     16  N   UNL     1       3.455   5.050  17.792  0.00  0.00    +0.000 N 
ATOM     17  H   UNL     1       3.125   5.988  17.545  0.00  0.00    +0.000 HD
BRANCH  16  18
ATOM     18  C   UNL     1       2.656   4.420  18.789  0.00  0.00    +0.000 A 
ATOM     19  C   UNL     1       2.351   5.107  19.980  0.00  0.00    +0.000 A 
ATOM     20  C   UNL     1       1.591   4.518  21.001  0.00  0.00    +0.000 A 
ATOM     21  C   UNL     1       1.149   3.218  20.860  0.00  0.00    +0.000 A 
ATOM     22  C   UNL     1       1.479   2.495  19.719  0.00  0.00    +0.000 A 
ATOM     23  C   UNL     1       2.251   3.070  18.686  0.00  0.00    +0.000 A 
ATOM     24  C   UNL     1       2.612   2.197  17.518  0.00  0.00    +0.000 C 
ENDBRANCH  16  18
ENDBRANCH   3  16
TORSDOF 5
ENDMDL
MODEL 6
REMARK VINA RESULT:      -8.0      0.596      1.552
REMARK  Name = 
REMARK  7 active torsions:
REMARK  status: ('A' for Active; 'I' for Inactive)
REMARK    1  A    between atoms: C_2  and  C_3
REMARK    2  A    between atoms: C_7  and  N_8
REMARK    3  A    between atoms: C_9  and  C_19
REMARK    4  A    between atoms: N_10  and  N_11
REMARK    5  A    between atoms: N_11  and  C_12
REMARK    6  A    between atoms: C_17  and  C_18
REMARK    7  A    between atoms: C_19  and  C_20
REMARK                            x       y       z     vdW  Elec       q    Type
REMARK                         _______ _______ _______ _____ _____    ______ ____
ROOT
ATOM      1  N   UNL     1       6.033   4.025  16.334  0.00  0.00    +0.000 NA
ATOM      2  C   UNL     1       6.107   4.947  17.263  0.00  0.00    +0.000 C 
ATOM      3  N   UNL     1       5.970   4.629  18.612  0.00  0.00    +0.000 N 
ATOM      4  H   UNL     1       6.739   4.972  19.187  0.00  0.00    +0.000 HD
ENDROOT
BRANCH   1   9
ATOM      5  C   UNL     1       5.593   3.893  12.641  0.00  0.00    +0.000 A 
ATOM      6  C   UNL     1       6.788   4.444  12.177  0.00  0.00    +0.000 A 
ATOM      7  C   UNL     1       7.740   4.890  13.096  0.00  0.00    +0.000 A 
ATOM      8  C   UNL     1       7.518   4.760  14.478  0.00  0.00    +0.000 A 
ATOM      9  C   UNL     1       6.341   4.187  14.967  0.00  0.00    +0.000 A 
ATOM     10  C   UNL     1       5.365   3.814  14.026  0.00  0.00    +0.000 A 
BRANCH   5  12
ATOM     11  C   UNL     1       3.789   2.950  10.962  0.00  0.00    +0.000 C 
ATOM     12  C   UNL     1       4.641   3.347  11.724  0.00  0.00    +0.000 C 
ENDBRANCH   5  12
ENDBRANCH   1   9
BRANCH   2  13
ATOM     13  C   UNL     1       6.382   6.463  17.023  0.00  0.00    +0.000 C 
ATOM     14  C   UNL     1       7.610   7.058  17.698  0.00  0.00    +0.000 C 
ATOM     15  O   UNL     1       5.675   7.137  16.287  0.00  0.00    +0.000 OA
ENDBRANCH   2  13
BRANCH   3  16
ATOM     16  N   UNL     1       5.386   3.482  19.118  0.00  0.00    +0.000 N 
ATOM     17  H   UNL     1       5.943   2.631  18.993  0.00  0.00    +0.000 HD
BRANCH  16  18
ATOM     18  C   UNL     1       3.988   3.266  18.955  0.00  0.00    +0.000 A 
ATOM     19  C   UNL     1       3.530   2.101  18.309  0.00  0.00    +0.000 A 
ATOM     20  C   UNL     1       2.164   1.859  18.101  0.00  0.00    +0.000 A 
ATOM     21  C   UNL     1       1.235   2.794  18.508  0.00  0.00    +0.000 A 
ATOM     22  C   UNL     1       1.659   3.978  19.100  0.00  0.00    +0.000 A 
ATOM     23  C   UNL     1       3.030   4.243  19.309  0.00  0.00    +0.000 A 
ATOM     24  C   UNL     1       3.401   5.574  19.898  0.00  0.00    +0.000 C 
ENDBRANCH  16  18
ENDBRANCH   3  16
TORSDOF 5
ENDMDL
MODEL 7
REMARK VINA RESULT:      -7.9      3.536      5.307
REMARK  Name = 
REMARK  7 active torsions:
REMARK  status: ('A' for Active; 'I' for Inactive)
REMARK    1  A    between atoms: C_2  and  C_3
REMARK    2  A    between atoms: C_7  and  N_8
REMARK    3  A    between atoms: C_9  and  C_19
REMARK    4  A    between atoms: N_10  and  N_11
REMARK    5  A    between atoms: N_11  and  C_12
REMARK    6  A    between atoms: C_17  and  C_18
REMARK    7  A    between atoms: C_19  and  C_20
REMARK                            x       y       z     vdW  Elec       q    Type
REMARK                         _______ _______ _______ _____ _____    ______ ____
ROOT
ATOM      1  N   UNL     1       4.254   5.975  19.181  0.00  0.00    +0.000 NA
ATOM      2  C   UNL     1       3.230   5.285  19.618  0.00  0.00    +0.000 C 
ATOM      3  N   UNL     1       2.138   5.909  20.217  0.00  0.00    +0.000 N 
ATOM      4  H   UNL     1       1.246   5.653  19.795  0.00  0.00    +0.000 HD
ENDROOT
BRANCH   1   9
ATOM      5  C   UNL     1       6.058   4.741  16.168  0.00  0.00    +0.000 A 
ATOM      6  C   UNL     1       7.343   4.509  16.663  0.00  0.00    +0.000 A 
ATOM      7  C   UNL     1       7.623   4.789  18.001  0.00  0.00    +0.000 A 
ATOM      8  C   UNL     1       6.619   5.272  18.858  0.00  0.00    +0.000 A 
ATOM      9  C   UNL     1       5.319   5.487  18.394  0.00  0.00    +0.000 A 
ATOM     10  C   UNL     1       5.077   5.269  17.027  0.00  0.00    +0.000 A 
BRANCH   5  12
ATOM     11  C   UNL     1       5.465   4.001  13.706  0.00  0.00    +0.000 C 
ATOM     12  C   UNL     1       5.719   4.379  14.827  0.00  0.00    +0.000 C 
ENDBRANCH   5  12
ENDBRANCH   1   9
BRANCH   2  13
ATOM     13  C   UNL     1       3.058   3.739  19.507  0.00  0.00    +0.000 C 
ATOM     14  C   UNL     1       2.120   3.222  18.426  0.00  0.00    +0.000 C 
ATOM     15  O   UNL     1       3.684   2.970  20.223  0.00  0.00    +0.000 OA
ENDBRANCH   2  13
BRANCH   3  16
ATOM     16  N   UNL     1       2.133   7.178  20.767  0.00  0.00    +0.000 N 
ATOM     17  H   UNL     1       1.958   7.203  21.776  0.00  0.00    +0.000 HD
BRANCH  16  18
ATOM     18  C   UNL     1       1.515   8.253  20.065  0.00  0.00    +0.000 A 
ATOM     19  C   UNL     1       1.864   8.506  18.725  0.00  0.00    +0.000 A 
ATOM     20  C   UNL     1       1.303   9.570  18.003  0.00  0.00    +0.000 A 
ATOM     21  C   UNL     1       0.407  10.418  18.621  0.00  0.00    +0.000 A 
ATOM     22  C   UNL     1       0.084  10.226  19.959  0.00  0.00    +0.000 A 
ATOM     23  C   UNL     1       0.645   9.166  20.704  0.00  0.00    +0.000 A 
ATOM     24  C   UNL     1       0.289   9.071  22.160  0.00  0.00    +0.000 C 
ENDBRANCH  16  18
ENDBRANCH   3  16
TORSDOF 5
ENDMDL
MODEL 8
REMARK VINA RESULT:      -7.8      1.513      1.659
REMARK  Name = 
REMARK  7 active torsions:
REMARK  status: ('A' for Active; 'I' for Inactive)
REMARK    1  A    between atoms: C_2  and  C_3
REMARK    2  A    between atoms: C_7  and  N_8
REMARK    3  A    between atoms: C_9  and  C_19
REMARK    4  A    between atoms: N_10  and  N_11
REMARK    5  A    between atoms: N_11  and  C_12
REMARK    6  A    between atoms: C_17  and  C_18
REMARK    7  A    between atoms: C_19  and  C_20
REMARK                            x       y       z     vdW  Elec       q    Type
REMARK                         _______ _______ _______ _____ _____    ______ ____
ROOT
ATOM      1  N   UNL     1       5.131   5.149  16.732  0.00  0.00    +0.000 NA
ATOM      2  C   UNL     1       5.709   5.300  17.898  0.00  0.00    +0.000 C 
ATOM      3  N   UNL     1       4.964   5.356  19.074  0.00  0.00    +0.000 N 
ATOM      4  H   UNL     1       5.279   4.694  19.782  0.00  0.00    +0.000 HD
ENDROOT
BRANCH   1   9
ATOM      5  C   UNL     1       5.550   4.076  13.192  0.00  0.00    +0.000 A 
ATOM      6  C   UNL     1       6.908   4.312  12.967  0.00  0.00    +0.000 A 
ATOM      7  C   UNL     1       7.688   4.856  13.989  0.00  0.00    +0.000 A 
ATOM      8  C   UNL     1       7.127   5.139  15.246  0.00  0.00    +0.000 A 
ATOM      9  C   UNL     1       5.778   4.888  15.505  0.00  0.00    +0.000 A 
ATOM     10  C   UNL     1       4.993   4.410  14.440  0.00  0.00    +0.000 A 
BRANCH   5  12
ATOM     11  C   UNL     1       4.108   2.941  11.297  0.00  0.00    +0.000 C 
ATOM     12  C   UNL     1       4.749   3.438  12.196  0.00  0.00    +0.000 C 
ENDBRANCH   5  12
ENDBRANCH   1   9
BRANCH   2  13
ATOM     13  C   UNL     1       7.245   5.399  18.149  0.00  0.00    +0.000 C 
ATOM     14  C   UNL     1       7.830   6.795  18.319  0.00  0.00    +0.000 C 
ATOM     15  O   UNL     1       7.945   4.402  18.253  0.00  0.00    +0.000 OA
ENDBRANCH   2  13
BRANCH   3  16
ATOM     16  N   UNL     1       3.615   5.645  19.164  0.00  0.00    +0.000 N 
ATOM     17  H   UNL     1       3.405   6.608  19.445  0.00  0.00    +0.000 HD
BRANCH  16  18
ATOM     18  C   UNL     1       2.720   4.690  19.727  0.00  0.00    +0.000 A 
ATOM     19  C   UNL     1       2.831   4.343  21.086  0.00  0.00    +0.000 A 
ATOM     20  C   UNL     1       1.991   3.387  21.677  0.00  0.00    +0.000 A 
ATOM     21  C   UNL     1       1.045   2.740  20.908  0.00  0.00    +0.000 A 
ATOM     22  C   UNL     1       0.947   3.023  19.550  0.00  0.00    +0.000 A 
ATOM     23  C   UNL     1       1.791   3.975  18.937  0.00  0.00    +0.000 A 
ATOM     24  C   UNL     1       1.658   4.172  17.454  0.00  0.00    +0.000 C 
ENDBRANCH  16  18
ENDBRANCH   3  16
TORSDOF 5
ENDMDL
MODEL 9
REMARK VINA RESULT:      -7.7      5.655      8.044
REMARK  Name = 
REMARK  7 active torsions:
REMARK  status: ('A' for Active; 'I' for Inactive)
REMARK    1  A    between atoms: C_2  and  C_3
REMARK    2  A    between atoms: C_7  and  N_8
REMARK    3  A    between atoms: C_9  and  C_19
REMARK    4  A    between atoms: N_10  and  N_11
REMARK    5  A    between atoms: N_11  and  C_12
REMARK    6  A    between atoms: C_17  and  C_18
REMARK    7  A    between atoms: C_19  and  C_20
REMARK                            x       y       z     vdW  Elec       q    Type
REMARK                         _______ _______ _______ _____ _____    ______ ____
ROOT
ATOM      1  N   UNL     1       1.296   8.998  19.489  0.00  0.00    +0.000 NA
ATOM      2  C   UNL     1       1.190   8.338  20.616  0.00  0.00    +0.000 C 
ATOM      3  N   UNL     1       2.021   7.256  20.902  0.00  0.00    +0.000 N 
ATOM      4  H   UNL     1       2.495   7.340  21.800  0.00  0.00    +0.000 HD
ENDROOT
BRANCH   1   9
ATOM      5  C   UNL     1      -1.291  11.296  18.117  0.00  0.00    +0.000 A 
ATOM      6  C   UNL     1      -0.781  12.552  18.446  0.00  0.00    +0.000 A 
ATOM      7  C   UNL     1       0.420  12.641  19.153  0.00  0.00    +0.000 A 
ATOM      8  C   UNL     1       1.130  11.481  19.508  0.00  0.00    +0.000 A 
ATOM      9  C   UNL     1       0.654  10.213  19.167  0.00  0.00    +0.000 A 
ATOM     10  C   UNL     1      -0.593  10.143  18.521  0.00  0.00    +0.000 A 
BRANCH   5  12
ATOM     11  C   UNL     1      -3.503  11.132  16.688  0.00  0.00    +0.000 C 
ATOM     12  C   UNL     1      -2.470  11.177  17.317  0.00  0.00    +0.000 C 
ENDBRANCH   5  12
ENDBRANCH   1   9
BRANCH   2  13
ATOM     13  C   UNL     1       0.197   8.662  21.773  0.00  0.00    +0.000 C 
ATOM     14  C   UNL     1       0.692   9.596  22.869  0.00  0.00    +0.000 C 
ATOM     15  O   UNL     1      -0.945   8.227  21.781  0.00  0.00    +0.000 OA
ENDBRANCH   2  13
BRANCH   3  16
ATOM     16  N   UNL     1       2.737   6.519  19.977  0.00  0.00    +0.000 N 
ATOM     17  H   UNL     1       3.165   7.075  19.230  0.00  0.00    +0.000 HD
BRANCH  16  18
ATOM     18  C   UNL     1       2.232   5.266  19.524  0.00  0.00    +0.000 A 
ATOM     19  C   UNL     1       1.346   4.533  20.336  0.00  0.00    +0.000 A 
ATOM     20  C   UNL     1       0.846   3.283  19.944  0.00  0.00    +0.000 A 
ATOM     21  C   UNL     1       1.248   2.731  18.745  0.00  0.00    +0.000 A 
ATOM     22  C   UNL     1       2.164   3.406  17.946  0.00  0.00    +0.000 A 
ATOM     23  C   UNL     1       2.685   4.662  18.329  0.00  0.00    +0.000 A 
ATOM     24  C   UNL     1       3.715   5.290  17.435  0.00  0.00    +0.000 C 
ENDBRANCH  16  18
ENDBRANCH   3  16
TORSDOF 5
ENDMDL
