MODEL 1
REMARK VINA RESULT:      -8.5      0.000      0.000
REMARK  Name = 
REMARK  7 active torsions:
REMARK  status: ('A' for Active; 'I' for Inactive)
REMARK    1  A    between atoms: C_1  and  S_2
REMARK    2  A    between atoms: S_2  and  N_5
REMARK    3  A    between atoms: N_5  and  C_6
REMARK    4  A    between atoms: N_5  and  C_24
REMARK    5  A    between atoms: C_6  and  C_7
REMARK    6  A    between atoms: C_10  and  C_11
REMARK    7  A    between atoms: N_13  and  N_14
REMARK                            x       y       z     vdW  Elec       q    Type
REMARK                         _______ _______ _______ _____ _____    ______ ____
ROOT
ATOM      1  C   UNL     1       2.585   7.202  19.309  0.00  0.00    +0.000 A 
ATOM      2  C   UNL     1       1.895   7.744  20.395  0.00  0.00    +0.000 A 
ATOM      3  C   UNL     1       0.960   8.767  20.211  0.00  0.00    +0.000 A 
ATOM      4  C   UNL     1       0.765   9.341  18.952  0.00  0.00    +0.000 A 
ATOM      5  C   UNL     1       1.608   8.940  17.905  0.00  0.00    +0.000 A 
ATOM      6  C   UNL     1       2.510   7.881  18.084  0.00  0.00    +0.000 A 
ENDROOT
BRANCH   4   7
ATOM      7  C   UNL     1      -0.394  10.285  18.784  0.00  0.00    +0.000 C 
ATOM      8  O   UNL     1      -0.990  10.331  17.710  0.00  0.00    +0.000 OA
ATOM      9  N   UNL     1      -0.677  11.090  19.878  0.00  0.00    +0.000 N 
ATOM     10  H   UNL     1      -0.259  10.876  20.765  0.00  0.00    +0.000 HD
BRANCH   9  11
ATOM     11  N   UNL     1      -1.658  12.032  19.833  0.00  0.00    +0.000 NA
ATOM     12  C   UNL     1      -2.018  12.616  20.939  0.00  0.00    +0.000 C 
ATOM     13  C   UNL     1      -1.394  12.397  22.308  0.00  0.00    +0.000 C 
ATOM     14  C   UNL     1      -2.396  11.774  23.277  0.00  0.00    +0.000 C 
ATOM     15  C   UNL     1      -3.386  12.813  23.798  0.00  0.00    +0.000 C 
ATOM     16  C   UNL     1      -4.630  13.009  22.929  0.00  0.00    +0.000 C 
ATOM     17  C   UNL     1      -4.450  12.924  21.411  0.00  0.00    +0.000 C 
ATOM     18  C   UNL     1      -3.186  13.589  20.872  0.00  0.00    +0.000 C 
ENDBRANCH   9  11
ENDBRANCH   4   7
BRANCH   1  19
ATOM     19  C   UNL     1       3.417   5.948  19.458  0.00  0.00    +0.000 C 
BRANCH  19  20
ATOM     20  N   UNL     1       3.394   4.893  18.405  0.00  0.00    +0.000 N 
BRANCH  20  21
ATOM     21  C   UNL     1       4.637   4.725  17.686  0.00  0.00    +0.000 A 
ATOM     22  C   UNL     1       5.826   4.754  18.407  0.00  0.00    +0.000 A 
ATOM     23  C   UNL     1       7.054   4.634  17.750  0.00  0.00    +0.000 A 
ATOM     24  C   UNL     1       7.092   4.466  16.364  0.00  0.00    +0.000 A 
ATOM     25  C   UNL     1       5.896   4.426  15.637  0.00  0.00    +0.000 A 
ATOM     26  C   UNL     1       4.673   4.561  16.292  0.00  0.00    +0.000 A 
ENDBRANCH  20  21
BRANCH  20  28
ATOM     27  C   UNL     1       1.314   3.662  19.763  0.00  0.00    +0.000 C 
ATOM     28  S   UNL     1       2.335   3.575  18.293  0.00  0.00    +0.000 S 
ATOM     29  O   UNL     1       3.084   2.345  18.310  0.00  0.00    +0.000 OA
ATOM     30  O   UNL     1       1.417   3.831  17.191  0.00  0.00    +0.000 OA
ENDBRANCH  20  28
ENDBRANCH  19  20
ENDBRANCH   1  19
TORSDOF 6
ENDMDL
MODEL 2
REMARK VINA RESULT:      -8.3      0.826      1.220
REMARK  Name = 
REMARK  7 active torsions:
REMARK  status: ('A' for Active; 'I' for Inactive)
REMARK    1  A    between atoms: C_1  and  S_2
REMARK    2  A    between atoms: S_2  and  N_5
REMARK    3  A    between atoms: N_5  and  C_6
REMARK    4  A    between atoms: N_5  and  C_24
REMARK    5  A    between atoms: C_6  and  C_7
REMARK    6  A    between atoms: C_10  and  C_11
REMARK    7  A    between atoms: N_13  and  N_14
REMARK                            x       y       z     vdW  Elec       q    Type
REMARK                         _______ _______ _______ _____ _____    ______ ____
ROOT
ATOM      1  C   UNL     1       2.596   6.557  19.561  0.00  0.00    +0.000 A 
ATOM      2  C   UNL     1       1.993   7.237  20.621  0.00  0.00    +0.000 A 
ATOM      3  C   UNL     1       1.358   8.465  20.414  0.00  0.00    +0.000 A 
ATOM      4  C   UNL     1       1.395   9.090  19.164  0.00  0.00    +0.000 A 
ATOM      5  C   UNL     1       2.179   8.506  18.157  0.00  0.00    +0.000 A 
ATOM      6  C   UNL     1       2.774   7.252  18.356  0.00  0.00    +0.000 A 
ENDROOT
BRANCH   4   7
ATOM      7  C   UNL     1       0.523  10.297  18.958  0.00  0.00    +0.000 C 
ATOM      8  O   UNL     1       0.964  11.268  18.347  0.00  0.00    +0.000 OA
ATOM      9  N   UNL     1      -0.737  10.233  19.534  0.00  0.00    +0.000 N 
ATOM     10  H   UNL     1      -1.080   9.351  19.867  0.00  0.00    +0.000 HD
BRANCH   9  11
ATOM     11  N   UNL     1      -1.600  11.285  19.477  0.00  0.00    +0.000 NA
ATOM     12  C   UNL     1      -1.722  12.054  20.520  0.00  0.00    +0.000 C 
ATOM     13  C   UNL     1      -0.931  11.937  21.813  0.00  0.00    +0.000 C 
ATOM     14  C   UNL     1      -1.842  11.589  22.987  0.00  0.00    +0.000 C 
ATOM     15  C   UNL     1      -2.618  12.812  23.470  0.00  0.00    +0.000 C 
ATOM     16  C   UNL     1      -3.947  13.055  22.753  0.00  0.00    +0.000 C 
ATOM     17  C   UNL     1      -4.006  12.745  21.254  0.00  0.00    +0.000 C 
ATOM     18  C   UNL     1      -2.769  13.156  20.460  0.00  0.00    +0.000 C 
ENDBRANCH   9  11
ENDBRANCH   4   7
BRANCH   1  19
ATOM     19  C   UNL     1       3.077   5.132  19.720  0.00  0.00    +0.000 C 
BRANCH  19  20
ATOM     20  N   UNL     1       3.373   4.293  18.523  0.00  0.00    +0.000 N 
BRANCH  20  21
ATOM     21  C   UNL     1       4.685   4.492  17.951  0.00  0.00    +0.000 A 
ATOM     22  C   UNL     1       4.810   4.482  16.566  0.00  0.00    +0.000 A 
ATOM     23  C   UNL     1       6.064   4.633  15.968  0.00  0.00    +0.000 A 
ATOM     24  C   UNL     1       7.200   4.814  16.761  0.00  0.00    +0.000 A 
ATOM     25  C   UNL     1       7.075   4.836  18.155  0.00  0.00    +0.000 A 
ATOM     26  C   UNL     1       5.826   4.670  18.750  0.00  0.00    +0.000 A 
ENDBRANCH  20  21
BRANCH  20  28
ATOM     27  C   UNL     1       1.284   2.620  19.242  0.00  0.00    +0.000 C 
ATOM     28  S   UNL     1       2.625   2.840  18.075  0.00  0.00    +0.000 S 
ATOM     29  O   UNL     1       3.555   1.750  18.214  0.00  0.00    +0.000 OA
ATOM     30  O   UNL     1       1.967   3.052  16.793  0.00  0.00    +0.000 OA
ENDBRANCH  20  28
ENDBRANCH  19  20
ENDBRANCH   1  19
TORSDOF 6
ENDMDL
MODEL 3
REMARK VINA RESULT:      -8.3      0.772      1.198
REMARK  Name = 
REMARK  7 active torsions:
REMARK  status: ('A' for Active; 'I' for Inactive)
REMARK    1  A    between atoms: C_1  and  S_2
REMARK    2  A    between atoms: S_2  and  N_5
REMARK    3  A    between atoms: N_5  and  C_6
REMARK    4  A    between atoms: N_5  and  C_24
REMARK    5  A    between atoms: C_6  and  C_7
REMARK    6  A    between atoms: C_10  and  C_11
REMARK    7  A    between atoms: N_13  and  N_14
REMARK                            x       y       z     vdW  Elec       q    Type
REMARK                         _______ _______ _______ _____ _____    ______ ____
ROOT
ATOM      1  C   UNL     1       2.575   6.924  19.380  0.00  0.00    +0.000 A 
ATOM      2  C   UNL     1       2.431   7.595  18.163  0.00  0.00    +0.000 A 
ATOM      3  C   UNL     1       1.787   8.834  18.101  0.00  0.00    +0.000 A 
ATOM      4  C   UNL     1       1.186   9.388  19.236  0.00  0.00    +0.000 A 
ATOM      5  C   UNL     1       1.150   8.615  20.407  0.00  0.00    +0.000 A 
ATOM      6  C   UNL     1       1.838   7.395  20.476  0.00  0.00    +0.000 A 
ENDROOT
BRANCH   4   7
ATOM      7  C   UNL     1       0.698  10.807  19.148  0.00  0.00    +0.000 C 
ATOM      8  O   UNL     1       1.392  11.655  18.593  0.00  0.00    +0.000 OA
ATOM      9  N   UNL     1      -0.518  11.063  19.764  0.00  0.00    +0.000 N 
ATOM     10  H   UNL     1      -1.097  10.293  20.045  0.00  0.00    +0.000 HD
BRANCH   9  11
ATOM     11  N   UNL     1      -1.041  12.318  19.814  0.00  0.00    +0.000 NA
ATOM     12  C   UNL     1      -1.308  12.842  20.976  0.00  0.00    +0.000 C 
ATOM     13  C   UNL     1      -1.028  12.204  22.327  0.00  0.00    +0.000 C 
ATOM     14  C   UNL     1      -2.325  11.916  23.079  0.00  0.00    +0.000 C 
ATOM     15  C   UNL     1      -2.902  13.186  23.700  0.00  0.00    +0.000 C 
ATOM     16  C   UNL     1      -3.829  13.986  22.783  0.00  0.00    +0.000 C 
ATOM     17  C   UNL     1      -3.473  14.042  21.295  0.00  0.00    +0.000 C 
ATOM     18  C   UNL     1      -1.985  14.204  20.993  0.00  0.00    +0.000 C 
ENDBRANCH   9  11
ENDBRANCH   4   7
BRANCH   1  19
ATOM     19  C   UNL     1       3.465   5.707  19.501  0.00  0.00    +0.000 C 
BRANCH  19  20
ATOM     20  N   UNL     1       3.493   4.678  18.422  0.00  0.00    +0.000 N 
BRANCH  20  21
ATOM     21  C   UNL     1       4.734   4.605  17.684  0.00  0.00    +0.000 A 
ATOM     22  C   UNL     1       5.929   4.701  18.390  0.00  0.00    +0.000 A 
ATOM     23  C   UNL     1       7.153   4.673  17.716  0.00  0.00    +0.000 A 
ATOM     24  C   UNL     1       7.182   4.530  16.326  0.00  0.00    +0.000 A 
ATOM     25  C   UNL     1       5.981   4.423  15.615  0.00  0.00    +0.000 A 
ATOM     26  C   UNL     1       4.762   4.466  16.288  0.00  0.00    +0.000 A 
ENDBRANCH  20  21
BRANCH  20  28
ATOM     27  C   UNL     1       1.536   3.271  19.790  0.00  0.00    +0.000 C 
ATOM     28  S   UNL     1       2.515   3.301  18.290  0.00  0.00    +0.000 S 
ATOM     29  O   UNL     1       3.340   2.121  18.241  0.00  0.00    +0.000 OA
ATOM     30  O   UNL     1       1.551   3.536  17.224  0.00  0.00    +0.000 OA
ENDBRANCH  20  28
ENDBRANCH  19  20
ENDBRANCH   1  19
TORSDOF 6
ENDMDL
MODEL 4
REMARK VINA RESULT:      -8.3      1.580      3.168
REMARK  Name = 
REMARK  7 active torsions:
REMARK  status: ('A' for Active; 'I' for Inactive)
REMARK    1  A    between atoms: C_1  and  S_2
REMARK    2  A    between atoms: S_2  and  N_5
REMARK    3  A    between atoms: N_5  and  C_6
REMARK    4  A    between atoms: N_5  and  C_24
REMARK    5  A    between atoms: C_6  and  C_7
REMARK    6  A    between atoms: C_10  and  C_11
REMARK    7  A    between atoms: N_13  and  N_14
REMARK                            x       y       z     vdW  Elec       q    Type
REMARK                         _______ _______ _______ _____ _____    ______ ____
ROOT
ATOM      1  C   UNL     1       2.794   7.568  18.287  0.00  0.00    +0.000 A 
ATOM      2  C   UNL     1       2.173   7.580  19.538  0.00  0.00    +0.000 A 
ATOM      3  C   UNL     1       1.252   8.578  19.870  0.00  0.00    +0.000 A 
ATOM      4  C   UNL     1       1.004   9.644  18.999  0.00  0.00    +0.000 A 
ATOM      5  C   UNL     1       1.784   9.742  17.837  0.00  0.00    +0.000 A 
ATOM      6  C   UNL     1       2.671   8.713  17.487  0.00  0.00    +0.000 A 
ENDROOT
BRANCH   4   7
ATOM      7  C   UNL     1      -0.141  10.562  19.324  0.00  0.00    +0.000 C 
ATOM      8  O   UNL     1      -1.291  10.129  19.305  0.00  0.00    +0.000 OA
ATOM      9  N   UNL     1       0.201  11.881  19.580  0.00  0.00    +0.000 N 
ATOM     10  H   UNL     1       1.163  12.116  19.741  0.00  0.00    +0.000 HD
BRANCH   9  11
ATOM     11  N   UNL     1      -0.746  12.828  19.823  0.00  0.00    +0.000 NA
ATOM     12  C   UNL     1      -1.164  13.000  21.043  0.00  0.00    +0.000 C 
ATOM     13  C   UNL     1      -0.643  12.279  22.275  0.00  0.00    +0.000 C 
ATOM     14  C   UNL     1      -1.727  11.406  22.903  0.00  0.00    +0.000 C 
ATOM     15  C   UNL     1      -2.719  12.244  23.706  0.00  0.00    +0.000 C 
ATOM     16  C   UNL     1      -3.894  12.799  22.899  0.00  0.00    +0.000 C 
ATOM     17  C   UNL     1      -3.613  13.247  21.462  0.00  0.00    +0.000 C 
ATOM     18  C   UNL     1      -2.296  13.993  21.265  0.00  0.00    +0.000 C 
ENDBRANCH   9  11
ENDBRANCH   4   7
BRANCH   1  19
ATOM     19  C   UNL     1       3.606   6.377  17.829  0.00  0.00    +0.000 C 
BRANCH  19  20
ATOM     20  N   UNL     1       3.971   5.295  18.787  0.00  0.00    +0.000 N 
BRANCH  20  21
ATOM     21  C   UNL     1       2.866   4.471  19.222  0.00  0.00    +0.000 A 
ATOM     22  C   UNL     1       2.136   3.783  18.258  0.00  0.00    +0.000 A 
ATOM     23  C   UNL     1       1.036   3.004  18.627  0.00  0.00    +0.000 A 
ATOM     24  C   UNL     1       0.674   2.897  19.972  0.00  0.00    +0.000 A 
ATOM     25  C   UNL     1       1.414   3.580  20.945  0.00  0.00    +0.000 A 
ATOM     26  C   UNL     1       2.501   4.369  20.574  0.00  0.00    +0.000 A 
ENDBRANCH  20  21
BRANCH  20  28
ATOM     27  C   UNL     1       6.237   4.522  17.391  0.00  0.00    +0.000 C 
ATOM     28  S   UNL     1       5.499   4.601  19.022  0.00  0.00    +0.000 S 
ATOM     29  O   UNL     1       5.353   3.265  19.539  0.00  0.00    +0.000 OA
ATOM     30  O   UNL     1       6.318   5.558  19.752  0.00  0.00    +0.000 OA
ENDBRANCH  20  28
ENDBRANCH  19  20
ENDBRANCH   1  19
TORSDOF 6
ENDMDL
MODEL 5
REMARK VINA RESULT:      -8.3      2.636      3.826
REMARK  Name = 
REMARK  7 active torsions:
REMARK  status: ('A' for Active; 'I' for Inactive)
REMARK    1  A    between atoms: C_1  and  S_2
REMARK    2  A    between atoms: S_2  and  N_5
REMARK    3  A    between atoms: N_5  and  C_6
REMARK    4  A    between atoms: N_5  and  C_24
REMARK    5  A    between atoms: C_6  and  C_7
REMARK    6  A    between atoms: C_10  and  C_11
REMARK    7  A    between atoms: N_13  and  N_14
REMARK                            x       y       z     vdW  Elec       q    Type
REMARK                         _______ _______ _______ _____ _____    ______ ____
ROOT
ATOM      1  C   UNL     1       3.295   7.155  18.127  0.00  0.00    +0.000 A 
ATOM      2  C   UNL     1       2.692   8.239  17.485  0.00  0.00    +0.000 A 
ATOM      3  C   UNL     1       1.818   9.084  18.176  0.00  0.00    +0.000 A 
ATOM      4  C   UNL     1       1.449   8.810  19.496  0.00  0.00    +0.000 A 
ATOM      5  C   UNL     1       1.890   7.607  20.069  0.00  0.00    +0.000 A 
ATOM      6  C   UNL     1       2.803   6.788  19.388  0.00  0.00    +0.000 A 
ENDROOT
BRANCH   4   7
ATOM      7  C   UNL     1       0.678   9.863  20.242  0.00  0.00    +0.000 C 
ATOM      8  O   UNL     1       1.039  10.197  21.368  0.00  0.00    +0.000 OA
ATOM      9  N   UNL     1      -0.446  10.356  19.595  0.00  0.00    +0.000 N 
ATOM     10  H   UNL     1      -0.577  10.158  18.620  0.00  0.00    +0.000 HD
BRANCH   9  11
ATOM     11  N   UNL     1      -1.268  11.264  20.188  0.00  0.00    +0.000 NA
ATOM     12  C   UNL     1      -1.345  12.462  19.686  0.00  0.00    +0.000 C 
ATOM     13  C   UNL     1      -0.643  12.951  18.430  0.00  0.00    +0.000 C 
ATOM     14  C   UNL     1       0.372  14.044  18.755  0.00  0.00    +0.000 C 
ATOM     15  C   UNL     1      -0.315  15.386  18.998  0.00  0.00    +0.000 C 
ATOM     16  C   UNL     1      -0.761  15.629  20.440  0.00  0.00    +0.000 C 
ATOM     17  C   UNL     1      -1.292  14.427  21.226  0.00  0.00    +0.000 C 
ATOM     18  C   UNL     1      -2.192  13.483  20.432  0.00  0.00    +0.000 C 
ENDBRANCH   9  11
ENDBRANCH   4   7
BRANCH   1  19
ATOM     19  C   UNL     1       4.411   6.378  17.466  0.00  0.00    +0.000 C 
BRANCH  19  20
ATOM     20  N   UNL     1       5.207   5.385  18.243  0.00  0.00    +0.000 N 
BRANCH  20  21
ATOM     21  C   UNL     1       4.588   4.087  18.383  0.00  0.00    +0.000 A 
ATOM     22  C   UNL     1       3.944   3.540  17.278  0.00  0.00    +0.000 A 
ATOM     23  C   UNL     1       3.298   2.304  17.376  0.00  0.00    +0.000 A 
ATOM     24  C   UNL     1       3.313   1.602  18.584  0.00  0.00    +0.000 A 
ATOM     25  C   UNL     1       3.970   2.145  19.694  0.00  0.00    +0.000 A 
ATOM     26  C   UNL     1       4.599   3.385  19.599  0.00  0.00    +0.000 A 
ENDBRANCH  20  21
BRANCH  20  28
ATOM     27  C   UNL     1       7.462   6.941  17.821  0.00  0.00    +0.000 C 
ATOM     28  S   UNL     1       6.878   5.400  18.524  0.00  0.00    +0.000 S 
ATOM     29  O   UNL     1       7.498   4.301  17.832  0.00  0.00    +0.000 OA
ATOM     30  O   UNL     1       7.090   5.545  19.958  0.00  0.00    +0.000 OA
ENDBRANCH  20  28
ENDBRANCH  19  20
ENDBRANCH   1  19
TORSDOF 6
ENDMDL
MODEL 6
REMARK VINA RESULT:      -8.3      1.797      3.453
REMARK  Name = 
REMARK  7 active torsions:
REMARK  status: ('A' for Active; 'I' for Inactive)
REMARK    1  A    between atoms: C_1  and  S_2
REMARK    2  A    between atoms: S_2  and  N_5
REMARK    3  A    between atoms: N_5  and  C_6
REMARK    4  A    between atoms: N_5  and  C_24
REMARK    5  A    between atoms: C_6  and  C_7
REMARK    6  A    between atoms: C_10  and  C_11
REMARK    7  A    between atoms: N_13  and  N_14
REMARK                            x       y       z     vdW  Elec       q    Type
REMARK                         _______ _______ _______ _____ _____    ______ ____
ROOT
ATOM      1  C   UNL     1       2.538   7.588  18.489  0.00  0.00    +0.000 A 
ATOM      2  C   UNL     1       1.969   8.514  17.611  0.00  0.00    +0.000 A 
ATOM      3  C   UNL     1       1.231   9.598  18.094  0.00  0.00    +0.000 A 
ATOM      4  C   UNL     1       0.960   9.730  19.459  0.00  0.00    +0.000 A 
ATOM      5  C   UNL     1       1.352   8.689  20.314  0.00  0.00    +0.000 A 
ATOM      6  C   UNL     1       2.133   7.629  19.832  0.00  0.00    +0.000 A 
ENDROOT
BRANCH   4   7
ATOM      7  C   UNL     1       0.344  11.018  19.930  0.00  0.00    +0.000 C 
ATOM      8  O   UNL     1      -0.689  11.426  19.404  0.00  0.00    +0.000 OA
ATOM      9  N   UNL     1       1.042  11.691  20.922  0.00  0.00    +0.000 N 
ATOM     10  H   UNL     1       1.778  11.215  21.412  0.00  0.00    +0.000 HD
BRANCH   9  11
ATOM     11  N   UNL     1       0.628  12.900  21.390  0.00  0.00    +0.000 NA
ATOM     12  C   UNL     1      -0.301  12.936  22.300  0.00  0.00    +0.000 C 
ATOM     13  C   UNL     1      -0.947  11.731  22.965  0.00  0.00    +0.000 C 
ATOM     14  C   UNL     1      -2.433  11.645  22.626  0.00  0.00    +0.000 C 
ATOM     15  C   UNL     1      -3.249  12.643  23.443  0.00  0.00    +0.000 C 
ATOM     16  C   UNL     1      -3.377  14.033  22.819  0.00  0.00    +0.000 C 
ATOM     17  C   UNL     1      -2.162  14.584  22.067  0.00  0.00    +0.000 C 
ATOM     18  C   UNL     1      -0.814  14.304  22.726  0.00  0.00    +0.000 C 
ENDBRANCH   9  11
ENDBRANCH   4   7
BRANCH   1  19
ATOM     19  C   UNL     1       3.526   6.553  18.001  0.00  0.00    +0.000 C 
BRANCH  19  20
ATOM     20  N   UNL     1       3.902   5.397  18.865  0.00  0.00    +0.000 N 
BRANCH  20  21
ATOM     21  C   UNL     1       2.800   4.547  19.255  0.00  0.00    +0.000 A 
ATOM     22  C   UNL     1       2.102   3.873  18.259  0.00  0.00    +0.000 A 
ATOM     23  C   UNL     1       1.006   3.068  18.584  0.00  0.00    +0.000 A 
ATOM     24  C   UNL     1       0.617   2.923  19.918  0.00  0.00    +0.000 A 
ATOM     25  C   UNL     1       1.326   3.592  20.924  0.00  0.00    +0.000 A 
ATOM     26  C   UNL     1       2.408   4.405  20.595  0.00  0.00    +0.000 A 
ENDBRANCH  20  21
BRANCH  20  28
ATOM     27  C   UNL     1       6.083   4.605  17.349  0.00  0.00    +0.000 C 
ATOM     28  S   UNL     1       5.430   4.680  19.015  0.00  0.00    +0.000 S 
ATOM     29  O   UNL     1       5.292   3.342  19.528  0.00  0.00    +0.000 OA
ATOM     30  O   UNL     1       6.299   5.620  19.710  0.00  0.00    +0.000 OA
ENDBRANCH  20  28
ENDBRANCH  19  20
ENDBRANCH   1  19
TORSDOF 6
ENDMDL
MODEL 7
REMARK VINA RESULT:      -8.2      2.482      4.155
REMARK  Name = 
REMARK  7 active torsions:
REMARK  status: ('A' for Active; 'I' for Inactive)
REMARK    1  A    between atoms: C_1  and  S_2
REMARK    2  A    between atoms: S_2  and  N_5
REMARK    3  A    between atoms: N_5  and  C_6
REMARK    4  A    between atoms: N_5  and  C_24
REMARK    5  A    between atoms: C_6  and  C_7
REMARK    6  A    between atoms: C_10  and  C_11
REMARK    7  A    between atoms: N_13  and  N_14
REMARK                            x       y       z     vdW  Elec       q    Type
REMARK                         _______ _______ _______ _____ _____    ______ ____
ROOT
ATOM      1  C   UNL     1       2.441   7.586  18.711  0.00  0.00    +0.000 A 
ATOM      2  C   UNL     1       1.864   8.601  17.944  0.00  0.00    +0.000 A 
ATOM      3  C   UNL     1       1.175   9.654  18.553  0.00  0.00    +0.000 A 
ATOM      4  C   UNL     1       0.962   9.668  19.935  0.00  0.00    +0.000 A 
ATOM      5  C   UNL     1       1.359   8.544  20.675  0.00  0.00    +0.000 A 
ATOM      6  C   UNL     1       2.090   7.514  20.067  0.00  0.00    +0.000 A 
ENDROOT
BRANCH   4   7
ATOM      7  C   UNL     1       0.402  10.922  20.545  0.00  0.00    +0.000 C 
ATOM      8  O   UNL     1       0.866  11.344  21.602  0.00  0.00    +0.000 OA
ATOM      9  N   UNL     1      -0.663  11.497  19.867  0.00  0.00    +0.000 N 
ATOM     10  H   UNL     1      -0.871  11.193  18.933  0.00  0.00    +0.000 HD
BRANCH   9  11
ATOM     11  N   UNL     1      -1.303  12.597  20.348  0.00  0.00    +0.000 NA
ATOM     12  C   UNL     1      -1.061  13.754  19.801  0.00  0.00    +0.000 C 
ATOM     13  C   UNL     1      -0.161  14.003  18.603  0.00  0.00    +0.000 C 
ATOM     14  C   UNL     1       1.045  14.857  18.987  0.00  0.00    +0.000 C 
ATOM     15  C   UNL     1       0.665  16.330  19.119  0.00  0.00    +0.000 C 
ATOM     16  C   UNL     1       0.164  16.744  20.503  0.00  0.00    +0.000 C 
ATOM     17  C   UNL     1      -0.694  15.736  21.274  0.00  0.00    +0.000 C 
ATOM     18  C   UNL     1      -1.713  14.977  20.429  0.00  0.00    +0.000 C 
ENDBRANCH   9  11
ENDBRANCH   4   7
BRANCH   1  19
ATOM     19  C   UNL     1       3.380   6.576  18.091  0.00  0.00    +0.000 C 
BRANCH  19  20
ATOM     20  N   UNL     1       3.815   5.374  18.859  0.00  0.00    +0.000 N 
BRANCH  20  21
ATOM     21  C   UNL     1       2.755   4.452  19.197  0.00  0.00    +0.000 A 
ATOM     22  C   UNL     1       2.103   3.788  18.163  0.00  0.00    +0.000 A 
ATOM     23  C   UNL     1       1.047   2.915  18.439  0.00  0.00    +0.000 A 
ATOM     24  C   UNL     1       0.651   2.692  19.760  0.00  0.00    +0.000 A 
ATOM     25  C   UNL     1       1.313   3.351  20.803  0.00  0.00    +0.000 A 
ATOM     26  C   UNL     1       2.356   4.232  20.525  0.00  0.00    +0.000 A 
ENDBRANCH  20  21
BRANCH  20  28
ATOM     27  C   UNL     1       5.952   4.670  17.239  0.00  0.00    +0.000 C 
ATOM     28  S   UNL     1       5.373   4.711  18.934  0.00  0.00    +0.000 S 
ATOM     29  O   UNL     1       5.305   3.365  19.442  0.00  0.00    +0.000 OA
ATOM     30  O   UNL     1       6.239   5.676  19.597  0.00  0.00    +0.000 OA
ENDBRANCH  20  28
ENDBRANCH  19  20
ENDBRANCH   1  19
TORSDOF 6
ENDMDL
MODEL 8
REMARK VINA RESULT:      -8.2      2.885      3.996
REMARK  Name = 
REMARK  7 active torsions:
REMARK  status: ('A' for Active; 'I' for Inactive)
REMARK    1  A    between atoms: C_1  and  S_2
REMARK    2  A    between atoms: S_2  and  N_5
REMARK    3  A    between atoms: N_5  and  C_6
REMARK    4  A    between atoms: N_5  and  C_24
REMARK    5  A    between atoms: C_6  and  C_7
REMARK    6  A    between atoms: C_10  and  C_11
REMARK    7  A    between atoms: N_13  and  N_14
REMARK                            x       y       z     vdW  Elec       q    Type
REMARK                         _______ _______ _______ _____ _____    ______ ____
ROOT
ATOM      1  C   UNL     1       2.390   7.166  19.397  0.00  0.00    +0.000 A 
ATOM      2  C   UNL     1       2.247   7.848  18.186  0.00  0.00    +0.000 A 
ATOM      3  C   UNL     1       1.574   9.072  18.129  0.00  0.00    +0.000 A 
ATOM      4  C   UNL     1       0.945   9.598  19.262  0.00  0.00    +0.000 A 
ATOM      5  C   UNL     1       0.911   8.811  20.423  0.00  0.00    +0.000 A 
ATOM      6  C   UNL     1       1.626   7.607  20.488  0.00  0.00    +0.000 A 
ENDROOT
BRANCH   4   7
ATOM      7  C   UNL     1       0.424  11.006  19.184  0.00  0.00    +0.000 C 
ATOM      8  O   UNL     1      -0.571  11.249  18.504  0.00  0.00    +0.000 OA
ATOM      9  N   UNL     1       1.161  11.959  19.871  0.00  0.00    +0.000 N 
ATOM     10  H   UNL     1       1.854  11.659  20.533  0.00  0.00    +0.000 HD
BRANCH   9  11
ATOM     11  N   UNL     1       0.835  13.279  19.828  0.00  0.00    +0.000 NA
ATOM     12  C   UNL     1       1.456  14.052  18.985  0.00  0.00    +0.000 C 
ATOM     13  C   UNL     1       2.494  13.610  17.967  0.00  0.00    +0.000 C 
ATOM     14  C   UNL     1       3.858  14.225  18.268  0.00  0.00    +0.000 C 
ATOM     15  C   UNL     1       3.920  15.685  17.827  0.00  0.00    +0.000 C 
ATOM     16  C   UNL     1       3.442  16.693  18.872  0.00  0.00    +0.000 C 
ATOM     17  C   UNL     1       2.259  16.287  19.756  0.00  0.00    +0.000 C 
ATOM     18  C   UNL     1       1.141  15.540  19.033  0.00  0.00    +0.000 C 
ENDBRANCH   9  11
ENDBRANCH   4   7
BRANCH   1  19
ATOM     19  C   UNL     1       3.307   5.970  19.516  0.00  0.00    +0.000 C 
BRANCH  19  20
ATOM     20  N   UNL     1       3.394   4.968  18.415  0.00  0.00    +0.000 N 
BRANCH  20  21
ATOM     21  C   UNL     1       4.676   4.906  17.750  0.00  0.00    +0.000 A 
ATOM     22  C   UNL     1       4.711   5.065  16.368  0.00  0.00    +0.000 A 
ATOM     23  C   UNL     1       5.922   4.976  15.677  0.00  0.00    +0.000 A 
ATOM     24  C   UNL     1       7.110   4.744  16.375  0.00  0.00    +0.000 A 
ATOM     25  C   UNL     1       7.078   4.594  17.767  0.00  0.00    +0.000 A 
ATOM     26  C   UNL     1       5.867   4.668  18.452  0.00  0.00    +0.000 A 
ENDBRANCH  20  21
BRANCH  20  28
ATOM     27  C   UNL     1       1.509   3.412  19.721  0.00  0.00    +0.000 C 
ATOM     28  S   UNL     1       2.419   3.601  18.189  0.00  0.00    +0.000 S 
ATOM     29  O   UNL     1       3.246   2.441  17.985  0.00  0.00    +0.000 OA
ATOM     30  O   UNL     1       1.406   3.932  17.196  0.00  0.00    +0.000 OA
ENDBRANCH  20  28
ENDBRANCH  19  20
ENDBRANCH   1  19
TORSDOF 6
ENDMDL
MODEL 9
REMARK VINA RESULT:      -8.2      2.988      4.555
REMARK  Name = 
REMARK  7 active torsions:
REMARK  status: ('A' for Active; 'I' for Inactive)
REMARK    1  A    between atoms: C_1  and  S_2
REMARK    2  A    between atoms: S_2  and  N_5
REMARK    3  A    between atoms: N_5  and  C_6
REMARK    4  A    between atoms: N_5  and  C_24
REMARK    5  A    between atoms: C_6  and  C_7
REMARK    6  A    between atoms: C_10  and  C_11
REMARK    7  A    between atoms: N_13  and  N_14
REMARK                            x       y       z     vdW  Elec       q    Type
REMARK                         _______ _______ _______ _____ _____    ______ ____
ROOT
ATOM      1  C   UNL     1       2.509   7.546  18.590  0.00  0.00    +0.000 A 
ATOM      2  C   UNL     1       1.950   8.523  17.764  0.00  0.00    +0.000 A 
ATOM      3  C   UNL     1       1.215   9.582  18.304  0.00  0.00    +0.000 A 
ATOM      4  C   UNL     1       0.938   9.637  19.673  0.00  0.00    +0.000 A 
ATOM      5  C   UNL     1       1.320   8.547  20.469  0.00  0.00    +0.000 A 
ATOM      6  C   UNL     1       2.097   7.511  19.930  0.00  0.00    +0.000 A 
ENDROOT
BRANCH   4   7
ATOM      7  C   UNL     1       0.327  10.900  20.214  0.00  0.00    +0.000 C 
ATOM      8  O   UNL     1      -0.895  10.990  20.314  0.00  0.00    +0.000 OA
ATOM      9  N   UNL     1       1.220  11.915  20.523  0.00  0.00    +0.000 N 
ATOM     10  H   UNL     1       2.200  11.707  20.574  0.00  0.00    +0.000 HD
BRANCH   9  11
ATOM     11  N   UNL     1       0.792  13.132  20.959  0.00  0.00    +0.000 NA
ATOM     12  C   UNL     1       0.812  14.137  20.133  0.00  0.00    +0.000 C 
ATOM     13  C   UNL     1       1.215  14.081  18.669  0.00  0.00    +0.000 C 
ATOM     14  C   UNL     1       2.473  14.906  18.410  0.00  0.00    +0.000 C 
ATOM     15  C   UNL     1       2.157  16.399  18.357  0.00  0.00    +0.000 C 
ATOM     16  C   UNL     1       2.191  17.113  19.709  0.00  0.00    +0.000 C 
ATOM     17  C   UNL     1       1.678  16.340  20.927  0.00  0.00    +0.000 C 
ATOM     18  C   UNL     1       0.425  15.503  20.680  0.00  0.00    +0.000 C 
ENDBRANCH   9  11
ENDBRANCH   4   7
BRANCH   1  19
ATOM     19  C   UNL     1       3.494   6.534  18.048  0.00  0.00    +0.000 C 
BRANCH  19  20
ATOM     20  N   UNL     1       3.867   5.334  18.850  0.00  0.00    +0.000 N 
BRANCH  20  21
ATOM     21  C   UNL     1       2.766   4.455  19.175  0.00  0.00    +0.000 A 
ATOM     22  C   UNL     1       2.424   4.294  20.514  0.00  0.00    +0.000 A 
ATOM     23  C   UNL     1       1.391   3.426  20.880  0.00  0.00    +0.000 A 
ATOM     24  C   UNL     1       0.684   2.728  19.898  0.00  0.00    +0.000 A 
ATOM     25  C   UNL     1       1.019   2.897  18.550  0.00  0.00    +0.000 A 
ATOM     26  C   UNL     1       2.059   3.751  18.188  0.00  0.00    +0.000 A 
ENDBRANCH  20  21
BRANCH  20  28
ATOM     27  C   UNL     1       6.041   4.569  17.310  0.00  0.00    +0.000 C 
ATOM     28  S   UNL     1       5.398   4.620  18.982  0.00  0.00    +0.000 S 
ATOM     29  O   UNL     1       5.267   3.274  19.477  0.00  0.00    +0.000 OA
ATOM     30  O   UNL     1       6.268   5.552  19.684  0.00  0.00    +0.000 OA
ENDBRANCH  20  28
ENDBRANCH  19  20
ENDBRANCH   1  19
TORSDOF 6
ENDMDL
