MODEL 1
REMARK VINA RESULT:      -7.7      0.000      0.000
REMARK  Name = 
REMARK  7 active torsions:
REMARK  status: ('A' for Active; 'I' for Inactive)
REMARK    1  A    between atoms: C_1  and  N_2
REMARK    2  A    between atoms: C_5  and  N_6
REMARK    3  A    between atoms: C_7  and  C_9
REMARK    4  A    between atoms: C_11  and  C_12
REMARK    5  A    between atoms: C_21  and  N_22
REMARK    6  A    between atoms: C_23  and  N_24
REMARK    7  A    between atoms: C_27  and  O_28
REMARK                            x       y       z     vdW  Elec       q    Type
REMARK                         _______ _______ _______ _____ _____    ______ ____
ROOT
ATOM      1  N   UNL     1       3.229   8.051  18.239  0.00  0.00    +0.000 N 
ATOM      2  C   UNL     1       1.885   8.372  18.109  0.00  0.00    +0.000 C 
ATOM      3  O   UNL     1       1.099   7.795  17.358  0.00  0.00    +0.000 OA
ATOM      4  H   UNL     1       3.782   8.626  18.860  0.00  0.00    +0.000 HD
ENDROOT
BRANCH   1   9
ATOM      5  C   UNL     1       4.898   3.650  16.669  0.00  0.00    +0.000 C 
ATOM      6  N   UNL     1       4.519   5.036  16.812  0.00  0.00    +0.000 N 
ATOM      7  N   UNL     1       5.180   5.918  16.040  0.00  0.00    +0.000 NA
ATOM      8  C   UNL     1       4.804   7.097  16.516  0.00  0.00    +0.000 A 
ATOM      9  C   UNL     1       3.844   7.001  17.556  0.00  0.00    +0.000 A 
ATOM     10  C   UNL     1       3.641   5.626  17.726  0.00  0.00    +0.000 A 
BRANCH  10  11
ATOM     11  N   UNL     1       2.885   4.874  18.613  0.00  0.00    +0.000 N 
ATOM     12  C   UNL     1       3.003   5.136  20.050  0.00  0.00    +0.000 C 
ATOM     13  C   UNL     1       2.894   3.872  20.894  0.00  0.00    +0.000 C 
ATOM     14  C   UNL     1       1.508   3.239  20.888  0.00  0.00    +0.000 C 
ATOM     15  C   UNL     1       1.241   2.300  19.716  0.00  0.00    +0.000 C 
ATOM     16  C   UNL     1       1.390   2.869  18.310  0.00  0.00    +0.000 C 
ATOM     17  F   UNL     1       2.440   2.229  17.718  0.00  0.00    +0.000 F 
ATOM     18  C   UNL     1       1.554   4.392  18.169  0.00  0.00    +0.000 C 
BRANCH  14  19
ATOM     19  O   UNL     1       1.359   2.468  22.088  0.00  0.00    +0.000 OA
ATOM     20  H   UNL     1       1.595   1.545  21.882  0.00  0.00    +0.000 HD
ENDBRANCH  14  19
ENDBRANCH  10  11
ENDBRANCH   1   9
BRANCH   2  21
ATOM     21  C   UNL     1       1.447   9.497  18.954  0.00  0.00    +0.000 A 
ATOM     22  N   UNL     1       1.418  10.819  18.482  0.00  0.00    +0.000 NA
ATOM     23  C   UNL     1       1.056  11.639  19.457  0.00  0.00    +0.000 A 
ATOM     24  S   UNL     1       0.603  10.861  20.924  0.00  0.00    +0.000 S 
ATOM     25  C   UNL     1       1.071   9.350  20.286  0.00  0.00    +0.000 A 
BRANCH  23  26
ATOM     26  C   UNL     1       1.016  13.102  19.365  0.00  0.00    +0.000 A 
ATOM     27  C   UNL     1       1.986  13.885  19.998  0.00  0.00    +0.000 A 
ATOM     28  F   UNL     1       3.009  13.310  20.648  0.00  0.00    +0.000 F 
ATOM     29  C   UNL     1       1.935  15.281  19.968  0.00  0.00    +0.000 A 
ATOM     30  C   UNL     1       0.902  15.931  19.297  0.00  0.00    +0.000 A 
ATOM     31  C   UNL     1      -0.069  15.177  18.647  0.00  0.00    +0.000 A 
ATOM     32  C   UNL     1      -0.008  13.782  18.687  0.00  0.00    +0.000 A 
ATOM     33  F   UNL     1      -0.992  13.111  18.068  0.00  0.00    +0.000 F 
ENDBRANCH  23  26
BRANCH  25  34
ATOM     34  N   UNL     1       1.038   8.241  21.059  0.00  0.00    +0.000 N 
ATOM     35  H   UNL     1       0.198   8.011  21.583  0.00  0.00    +0.000 HD
ATOM     36  H   UNL     1       1.906   7.909  21.486  0.00  0.00    +0.000 HD
ENDBRANCH  25  34
ENDBRANCH   2  21
TORSDOF 6
ENDMDL
MODEL 2
REMARK VINA RESULT:      -7.7      0.054      1.462
REMARK  Name = 
REMARK  7 active torsions:
REMARK  status: ('A' for Active; 'I' for Inactive)
REMARK    1  A    between atoms: C_1  and  N_2
REMARK    2  A    between atoms: C_5  and  N_6
REMARK    3  A    between atoms: C_7  and  C_9
REMARK    4  A    between atoms: C_11  and  C_12
REMARK    5  A    between atoms: C_21  and  N_22
REMARK    6  A    between atoms: C_23  and  N_24
REMARK    7  A    between atoms: C_27  and  O_28
REMARK                            x       y       z     vdW  Elec       q    Type
REMARK                         _______ _______ _______ _____ _____    ______ ____
ROOT
ATOM      1  N   UNL     1       3.221   8.054  18.242  0.00  0.00    +0.000 N 
ATOM      2  C   UNL     1       1.877   8.375  18.115  0.00  0.00    +0.000 C 
ATOM      3  O   UNL     1       1.090   7.802  17.362  0.00  0.00    +0.000 OA
ATOM      4  H   UNL     1       3.774   8.626  18.865  0.00  0.00    +0.000 HD
ENDROOT
BRANCH   1   9
ATOM      5  C   UNL     1       4.891   3.662  16.648  0.00  0.00    +0.000 C 
ATOM      6  N   UNL     1       4.512   5.047  16.799  0.00  0.00    +0.000 N 
ATOM      7  N   UNL     1       5.170   5.933  16.030  0.00  0.00    +0.000 NA
ATOM      8  C   UNL     1       4.794   7.110  16.512  0.00  0.00    +0.000 A 
ATOM      9  C   UNL     1       3.836   7.008  17.553  0.00  0.00    +0.000 A 
ATOM     10  C   UNL     1       3.634   5.632  17.717  0.00  0.00    +0.000 A 
BRANCH  10  11
ATOM     11  N   UNL     1       2.880   4.875  18.601  0.00  0.00    +0.000 N 
ATOM     12  C   UNL     1       2.987   5.142  20.038  0.00  0.00    +0.000 C 
ATOM     13  C   UNL     1       2.885   3.879  20.885  0.00  0.00    +0.000 C 
ATOM     14  C   UNL     1       1.505   3.233  20.872  0.00  0.00    +0.000 C 
ATOM     15  C   UNL     1       1.254   2.289  19.702  0.00  0.00    +0.000 C 
ATOM     16  C   UNL     1       1.406   2.855  18.295  0.00  0.00    +0.000 C 
ATOM     17  F   UNL     1       2.466   2.223  17.712  0.00  0.00    +0.000 F 
ATOM     18  C   UNL     1       1.557   4.379  18.151  0.00  0.00    +0.000 C 
BRANCH  14  19
ATOM     19  O   UNL     1       1.357   2.465  22.074  0.00  0.00    +0.000 OA
ATOM     20  H   UNL     1       2.012   1.744  22.051  0.00  0.00    +0.000 HD
ENDBRANCH  14  19
ENDBRANCH  10  11
ENDBRANCH   1   9
BRANCH   2  21
ATOM     21  C   UNL     1       1.439   9.495  18.966  0.00  0.00    +0.000 A 
ATOM     22  N   UNL     1       1.417  10.821  18.503  0.00  0.00    +0.000 NA
ATOM     23  C   UNL     1       1.054  11.635  19.482  0.00  0.00    +0.000 A 
ATOM     24  S   UNL     1       0.592  10.848  20.942  0.00  0.00    +0.000 S 
ATOM     25  C   UNL     1       1.057   9.340  20.295  0.00  0.00    +0.000 A 
BRANCH  23  26
ATOM     26  C   UNL     1       1.019  13.099  19.401  0.00  0.00    +0.000 A 
ATOM     27  C   UNL     1      -0.005  13.751  18.708  0.00  0.00    +0.000 A 
ATOM     28  F   UNL     1      -1.010  13.053  18.158  0.00  0.00    +0.000 F 
ATOM     29  C   UNL     1      -0.027  15.142  18.572  0.00  0.00    +0.000 A 
ATOM     30  C   UNL     1       0.984  15.919  19.134  0.00  0.00    +0.000 A 
ATOM     31  C   UNL     1       2.008  15.296  19.840  0.00  0.00    +0.000 A 
ATOM     32  C   UNL     1       2.020  13.906  19.966  0.00  0.00    +0.000 A 
ATOM     33  F   UNL     1       3.051  13.363  20.631  0.00  0.00    +0.000 F 
ENDBRANCH  23  26
BRANCH  25  34
ATOM     34  N   UNL     1       1.017   8.226  21.061  0.00  0.00    +0.000 N 
ATOM     35  H   UNL     1       0.241   8.075  21.698  0.00  0.00    +0.000 HD
ATOM     36  H   UNL     1       1.897   7.798  21.357  0.00  0.00    +0.000 HD
ENDBRANCH  25  34
ENDBRANCH   2  21
TORSDOF 6
ENDMDL
MODEL 3
REMARK VINA RESULT:      -7.6      2.055      2.932
REMARK  Name = 
REMARK  7 active torsions:
REMARK  status: ('A' for Active; 'I' for Inactive)
REMARK    1  A    between atoms: C_1  and  N_2
REMARK    2  A    between atoms: C_5  and  N_6
REMARK    3  A    between atoms: C_7  and  C_9
REMARK    4  A    between atoms: C_11  and  C_12
REMARK    5  A    between atoms: C_21  and  N_22
REMARK    6  A    between atoms: C_23  and  N_24
REMARK    7  A    between atoms: C_27  and  O_28
REMARK                            x       y       z     vdW  Elec       q    Type
REMARK                         _______ _______ _______ _____ _____    ______ ____
ROOT
ATOM      1  N   UNL     1       3.283   8.248  18.053  0.00  0.00    +0.000 N 
ATOM      2  C   UNL     1       1.952   8.594  17.872  0.00  0.00    +0.000 C 
ATOM      3  O   UNL     1       1.167   7.995  17.137  0.00  0.00    +0.000 OA
ATOM      4  H   UNL     1       3.837   8.844  18.652  0.00  0.00    +0.000 HD
ENDROOT
BRANCH   1   9
ATOM      5  C   UNL     1       4.873   3.721  16.788  0.00  0.00    +0.000 C 
ATOM      6  N   UNL     1       4.525   5.121  16.839  0.00  0.00    +0.000 N 
ATOM      7  N   UNL     1       5.221   5.939  16.026  0.00  0.00    +0.000 NA
ATOM      8  C   UNL     1       4.865   7.153  16.422  0.00  0.00    +0.000 A 
ATOM      9  C   UNL     1       3.885   7.143  17.448  0.00  0.00    +0.000 A 
ATOM     10  C   UNL     1       3.645   5.787  17.698  0.00  0.00    +0.000 A 
BRANCH  10  11
ATOM     11  N   UNL     1       2.855   5.108  18.614  0.00  0.00    +0.000 N 
ATOM     12  C   UNL     1       3.041   5.368  20.044  0.00  0.00    +0.000 C 
ATOM     13  C   UNL     1       2.850   4.123  20.902  0.00  0.00    +0.000 C 
ATOM     14  C   UNL     1       1.415   3.613  20.944  0.00  0.00    +0.000 C 
ATOM     15  C   UNL     1       1.031   2.693  19.790  0.00  0.00    +0.000 C 
ATOM     16  C   UNL     1       1.184   3.238  18.375  0.00  0.00    +0.000 C 
ATOM     17  F   UNL     1       2.156   2.506  17.757  0.00  0.00    +0.000 F 
ATOM     18  C   UNL     1       1.475   4.741  18.215  0.00  0.00    +0.000 C 
BRANCH  14  19
ATOM     19  O   UNL     1       1.238   2.866  22.155  0.00  0.00    +0.000 OA
ATOM     20  H   UNL     1       0.287   2.854  22.364  0.00  0.00    +0.000 HD
ENDBRANCH  14  19
ENDBRANCH  10  11
ENDBRANCH   1   9
BRANCH   2  21
ATOM     21  C   UNL     1       1.525   9.778  18.639  0.00  0.00    +0.000 A 
ATOM     22  N   UNL     1       0.581   9.698  19.675  0.00  0.00    +0.000 NA
ATOM     23  C   UNL     1       0.323  10.907  20.147  0.00  0.00    +0.000 A 
ATOM     24  S   UNL     1       1.292  12.164  19.480  0.00  0.00    +0.000 S 
ATOM     25  C   UNL     1       1.984  11.065  18.374  0.00  0.00    +0.000 A 
BRANCH  23  26
ATOM     26  C   UNL     1      -0.687  11.226  21.162  0.00  0.00    +0.000 A 
ATOM     27  C   UNL     1      -1.740  12.098  20.871  0.00  0.00    +0.000 A 
ATOM     28  F   UNL     1      -1.884  12.609  19.639  0.00  0.00    +0.000 F 
ATOM     29  C   UNL     1      -2.682  12.457  21.839  0.00  0.00    +0.000 A 
ATOM     30  C   UNL     1      -2.590  11.946  23.132  0.00  0.00    +0.000 A 
ATOM     31  C   UNL     1      -1.559  11.066  23.445  0.00  0.00    +0.000 A 
ATOM     32  C   UNL     1      -0.623  10.718  22.469  0.00  0.00    +0.000 A 
ATOM     33  F   UNL     1       0.366   9.890  22.841  0.00  0.00    +0.000 F 
ENDBRANCH  23  26
BRANCH  25  34
ATOM     34  N   UNL     1       2.843  11.500  17.424  0.00  0.00    +0.000 N 
ATOM     35  H   UNL     1       3.486  10.849  16.984  0.00  0.00    +0.000 HD
ATOM     36  H   UNL     1       3.181  12.464  17.467  0.00  0.00    +0.000 HD
ENDBRANCH  25  34
ENDBRANCH   2  21
TORSDOF 6
ENDMDL
MODEL 4
REMARK VINA RESULT:      -7.6      3.347      9.011
REMARK  Name = 
REMARK  7 active torsions:
REMARK  status: ('A' for Active; 'I' for Inactive)
REMARK    1  A    between atoms: C_1  and  N_2
REMARK    2  A    between atoms: C_5  and  N_6
REMARK    3  A    between atoms: C_7  and  C_9
REMARK    4  A    between atoms: C_11  and  C_12
REMARK    5  A    between atoms: C_21  and  N_22
REMARK    6  A    between atoms: C_23  and  N_24
REMARK    7  A    between atoms: C_27  and  O_28
REMARK                            x       y       z     vdW  Elec       q    Type
REMARK                         _______ _______ _______ _____ _____    ______ ____
ROOT
ATOM      1  N   UNL     1       1.575  11.425  19.456  0.00  0.00    +0.000 N 
ATOM      2  C   UNL     1       0.881  10.374  18.875  0.00  0.00    +0.000 C 
ATOM      3  O   UNL     1      -0.121  10.502  18.171  0.00  0.00    +0.000 OA
ATOM      4  H   UNL     1       2.359  11.188  20.048  0.00  0.00    +0.000 HD
ENDROOT
BRANCH   1   9
ATOM      5  C   UNL     1      -0.606  15.883  19.434  0.00  0.00    +0.000 C 
ATOM      6  N   UNL     1       0.307  14.767  19.337  0.00  0.00    +0.000 N 
ATOM      7  N   UNL     1       1.357  14.925  18.510  0.00  0.00    +0.000 NA
ATOM      8  C   UNL     1       1.890  13.713  18.444  0.00  0.00    +0.000 A 
ATOM      9  C   UNL     1       1.239  12.768  19.277  0.00  0.00    +0.000 A 
ATOM     10  C   UNL     1       0.204  13.486  19.888  0.00  0.00    +0.000 A 
BRANCH  10  11
ATOM     11  N   UNL     1      -0.823  13.136  20.753  0.00  0.00    +0.000 N 
ATOM     12  C   UNL     1      -2.051  12.556  20.202  0.00  0.00    +0.000 C 
ATOM     13  C   UNL     1      -3.302  12.993  20.955  0.00  0.00    +0.000 C 
ATOM     14  C   UNL     1      -3.399  12.438  22.371  0.00  0.00    +0.000 C 
ATOM     15  C   UNL     1      -2.661  13.254  23.426  0.00  0.00    +0.000 C 
ATOM     16  C   UNL     1      -1.167  13.480  23.224  0.00  0.00    +0.000 C 
ATOM     17  F   UNL     1      -0.979  14.817  23.022  0.00  0.00    +0.000 F 
ATOM     18  C   UNL     1      -0.466  12.675  22.117  0.00  0.00    +0.000 C 
BRANCH  14  19
ATOM     19  O   UNL     1      -4.782  12.412  22.750  0.00  0.00    +0.000 OA
ATOM     20  H   UNL     1      -4.845  12.713  23.674  0.00  0.00    +0.000 HD
ENDBRANCH  14  19
ENDBRANCH  10  11
ENDBRANCH   1   9
BRANCH   2  21
ATOM     21  C   UNL     1       1.436   9.042  19.175  0.00  0.00    +0.000 A 
ATOM     22  N   UNL     1       2.145   8.296  18.220  0.00  0.00    +0.000 NA
ATOM     23  C   UNL     1       2.470   7.114  18.721  0.00  0.00    +0.000 A 
ATOM     24  S   UNL     1       2.071   6.899  20.382  0.00  0.00    +0.000 S 
ATOM     25  C   UNL     1       1.269   8.404  20.400  0.00  0.00    +0.000 A 
BRANCH  23  26
ATOM     26  C   UNL     1       3.123   6.028  17.981  0.00  0.00    +0.000 A 
ATOM     27  C   UNL     1       2.508   4.780  17.854  0.00  0.00    +0.000 A 
ATOM     28  F   UNL     1       1.279   4.570  18.352  0.00  0.00    +0.000 F 
ATOM     29  C   UNL     1       3.136   3.716  17.201  0.00  0.00    +0.000 A 
ATOM     30  C   UNL     1       4.406   3.881  16.654  0.00  0.00    +0.000 A 
ATOM     31  C   UNL     1       5.036   5.116  16.754  0.00  0.00    +0.000 A 
ATOM     32  C   UNL     1       4.398   6.170  17.412  0.00  0.00    +0.000 A 
ATOM     33  F   UNL     1       5.071   7.328  17.504  0.00  0.00    +0.000 F 
ENDBRANCH  23  26
BRANCH  25  34
ATOM     34  N   UNL     1       0.602   8.810  21.504  0.00  0.00    +0.000 N 
ATOM     35  H   UNL     1       0.523   8.192  22.307  0.00  0.00    +0.000 HD
ATOM     36  H   UNL     1      -0.175   9.466  21.399  0.00  0.00    +0.000 HD
ENDBRANCH  25  34
ENDBRANCH   2  21
TORSDOF 6
ENDMDL
MODEL 5
REMARK VINA RESULT:      -7.5      3.330      8.933
REMARK  Name = 
REMARK  7 active torsions:
REMARK  status: ('A' for Active; 'I' for Inactive)
REMARK    1  A    between atoms: C_1  and  N_2
REMARK    2  A    between atoms: C_5  and  N_6
REMARK    3  A    between atoms: C_7  and  C_9
REMARK    4  A    between atoms: C_11  and  C_12
REMARK    5  A    between atoms: C_21  and  N_22
REMARK    6  A    between atoms: C_23  and  N_24
REMARK    7  A    between atoms: C_27  and  O_28
REMARK                            x       y       z     vdW  Elec       q    Type
REMARK                         _______ _______ _______ _____ _____    ______ ____
ROOT
ATOM      1  N   UNL     1       1.571  11.413  19.436  0.00  0.00    +0.000 N 
ATOM      2  C   UNL     1       0.875  10.356  18.868  0.00  0.00    +0.000 C 
ATOM      3  O   UNL     1      -0.130  10.476  18.166  0.00  0.00    +0.000 OA
ATOM      4  H   UNL     1       2.357  11.182  20.027  0.00  0.00    +0.000 HD
ENDROOT
BRANCH   1   9
ATOM      5  C   UNL     1      -0.620  15.865  19.351  0.00  0.00    +0.000 C 
ATOM      6  N   UNL     1       0.296  14.751  19.276  0.00  0.00    +0.000 N 
ATOM      7  N   UNL     1       1.359  14.907  18.466  0.00  0.00    +0.000 NA
ATOM      8  C   UNL     1       1.897  13.696  18.415  0.00  0.00    +0.000 A 
ATOM      9  C   UNL     1       1.234  12.754  19.243  0.00  0.00    +0.000 A 
ATOM     10  C   UNL     1       0.187  13.473  19.834  0.00  0.00    +0.000 A 
BRANCH  10  11
ATOM     11  N   UNL     1      -0.852  13.125  20.683  0.00  0.00    +0.000 N 
ATOM     12  C   UNL     1      -2.086  12.578  20.112  0.00  0.00    +0.000 C 
ATOM     13  C   UNL     1      -3.335  13.023  20.862  0.00  0.00    +0.000 C 
ATOM     14  C   UNL     1      -3.454  12.443  22.267  0.00  0.00    +0.000 C 
ATOM     15  C   UNL     1      -2.710  13.226  23.344  0.00  0.00    +0.000 C 
ATOM     16  C   UNL     1      -1.211  13.429  23.158  0.00  0.00    +0.000 C 
ATOM     17  F   UNL     1      -0.998  14.766  22.981  0.00  0.00    +0.000 F 
ATOM     18  C   UNL     1      -0.515  12.633  22.041  0.00  0.00    +0.000 C 
BRANCH  14  19
ATOM     19  O   UNL     1      -4.840  12.434  22.634  0.00  0.00    +0.000 OA
ATOM     20  H   UNL     1      -4.959  11.772  23.339  0.00  0.00    +0.000 HD
ENDBRANCH  14  19
ENDBRANCH  10  11
ENDBRANCH   1   9
BRANCH   2  21
ATOM     21  C   UNL     1       1.431   9.028  19.181  0.00  0.00    +0.000 A 
ATOM     22  N   UNL     1       2.123   8.264  18.227  0.00  0.00    +0.000 NA
ATOM     23  C   UNL     1       2.452   7.089  18.742  0.00  0.00    +0.000 A 
ATOM     24  S   UNL     1       2.079   6.902  20.412  0.00  0.00    +0.000 S 
ATOM     25  C   UNL     1       1.281   8.409  20.419  0.00  0.00    +0.000 A 
BRANCH  23  26
ATOM     26  C   UNL     1       3.091   5.990  18.010  0.00  0.00    +0.000 A 
ATOM     27  C   UNL     1       4.325   6.173  17.381  0.00  0.00    +0.000 A 
ATOM     28  F   UNL     1       4.980   7.339  17.489  0.00  0.00    +0.000 F 
ATOM     29  C   UNL     1       4.925   5.155  16.634  0.00  0.00    +0.000 A 
ATOM     30  C   UNL     1       4.296   3.920  16.499  0.00  0.00    +0.000 A 
ATOM     31  C   UNL     1       3.073   3.706  17.125  0.00  0.00    +0.000 A 
ATOM     32  C   UNL     1       2.483   4.732  17.867  0.00  0.00    +0.000 A 
ATOM     33  F   UNL     1       1.289   4.475  18.420  0.00  0.00    +0.000 F 
ENDBRANCH  23  26
BRANCH  25  34
ATOM     34  N   UNL     1       0.631   8.834  21.526  0.00  0.00    +0.000 N 
ATOM     35  H   UNL     1       0.556   8.226  22.336  0.00  0.00    +0.000 HD
ATOM     36  H   UNL     1      -0.139   9.499  21.424  0.00  0.00    +0.000 HD
ENDBRANCH  25  34
ENDBRANCH   2  21
TORSDOF 6
ENDMDL
MODEL 6
REMARK VINA RESULT:      -7.5      2.039      2.653
REMARK  Name = 
REMARK  7 active torsions:
REMARK  status: ('A' for Active; 'I' for Inactive)
REMARK    1  A    between atoms: C_1  and  N_2
REMARK    2  A    between atoms: C_5  and  N_6
REMARK    3  A    between atoms: C_7  and  C_9
REMARK    4  A    between atoms: C_11  and  C_12
REMARK    5  A    between atoms: C_21  and  N_22
REMARK    6  A    between atoms: C_23  and  N_24
REMARK    7  A    between atoms: C_27  and  O_28
REMARK                            x       y       z     vdW  Elec       q    Type
REMARK                         _______ _______ _______ _____ _____    ______ ____
ROOT
ATOM      1  N   UNL     1       3.313   8.258  18.022  0.00  0.00    +0.000 N 
ATOM      2  C   UNL     1       1.978   8.604  17.868  0.00  0.00    +0.000 C 
ATOM      3  O   UNL     1       1.176   7.995  17.160  0.00  0.00    +0.000 OA
ATOM      4  H   UNL     1       3.882   8.861  18.600  0.00  0.00    +0.000 HD
ENDROOT
BRANCH   1   9
ATOM      5  C   UNL     1       4.846   3.710  16.761  0.00  0.00    +0.000 C 
ATOM      6  N   UNL     1       4.514   5.114  16.810  0.00  0.00    +0.000 N 
ATOM      7  N   UNL     1       5.215   5.921  15.991  0.00  0.00    +0.000 NA
ATOM      8  C   UNL     1       4.874   7.141  16.386  0.00  0.00    +0.000 A 
ATOM      9  C   UNL     1       3.900   7.145  17.416  0.00  0.00    +0.000 A 
ATOM     10  C   UNL     1       3.646   5.792  17.671  0.00  0.00    +0.000 A 
BRANCH  10  11
ATOM     11  N   UNL     1       2.854   5.125  18.594  0.00  0.00    +0.000 N 
ATOM     12  C   UNL     1       3.048   5.389  20.022  0.00  0.00    +0.000 C 
ATOM     13  C   UNL     1       2.849   4.150  20.886  0.00  0.00    +0.000 C 
ATOM     14  C   UNL     1       1.409   3.653  20.936  0.00  0.00    +0.000 C 
ATOM     15  C   UNL     1       1.012   2.733  19.788  0.00  0.00    +0.000 C 
ATOM     16  C   UNL     1       1.164   3.270  18.370  0.00  0.00    +0.000 C 
ATOM     17  F   UNL     1       2.126   2.525  17.751  0.00  0.00    +0.000 F 
ATOM     18  C   UNL     1       1.468   4.769  18.202  0.00  0.00    +0.000 C 
BRANCH  14  19
ATOM     19  O   UNL     1       1.230   2.913  22.151  0.00  0.00    +0.000 OA
ATOM     20  H   UNL     1       0.482   3.307  22.635  0.00  0.00    +0.000 HD
ENDBRANCH  14  19
ENDBRANCH  10  11
ENDBRANCH   1   9
BRANCH   2  21
ATOM     21  C   UNL     1       1.571   9.798  18.629  0.00  0.00    +0.000 A 
ATOM     22  N   UNL     1       0.647   9.732  19.685  0.00  0.00    +0.000 NA
ATOM     23  C   UNL     1       0.403  10.948  20.148  0.00  0.00    +0.000 A 
ATOM     24  S   UNL     1       1.363  12.194  19.447  0.00  0.00    +0.000 S 
ATOM     25  C   UNL     1       2.030  11.080  18.341  0.00  0.00    +0.000 A 
BRANCH  23  26
ATOM     26  C   UNL     1      -0.586  11.283  21.179  0.00  0.00    +0.000 A 
ATOM     27  C   UNL     1      -0.520  10.700  22.447  0.00  0.00    +0.000 A 
ATOM     28  F   UNL     1       0.487   9.873  22.767  0.00  0.00    +0.000 F 
ATOM     29  C   UNL     1      -1.482  10.964  23.426  0.00  0.00    +0.000 A 
ATOM     30  C   UNL     1      -2.542  11.825  23.153  0.00  0.00    +0.000 A 
ATOM     31  C   UNL     1      -2.625  12.429  21.903  0.00  0.00    +0.000 A 
ATOM     32  C   UNL     1      -1.658  12.155  20.933  0.00  0.00    +0.000 A 
ATOM     33  F   UNL     1      -1.811  12.743  19.737  0.00  0.00    +0.000 F 
ENDBRANCH  23  26
BRANCH  25  34
ATOM     34  N   UNL     1       2.871  11.501  17.369  0.00  0.00    +0.000 N 
ATOM     35  H   UNL     1       2.768  12.431  16.976  0.00  0.00    +0.000 HD
ATOM     36  H   UNL     1       3.268  10.812  16.726  0.00  0.00    +0.000 HD
ENDBRANCH  25  34
ENDBRANCH   2  21
TORSDOF 6
ENDMDL
MODEL 7
REMARK VINA RESULT:      -7.3      3.184      9.713
REMARK  Name = 
REMARK  7 active torsions:
REMARK  status: ('A' for Active; 'I' for Inactive)
REMARK    1  A    between atoms: C_1  and  N_2
REMARK    2  A    between atoms: C_5  and  N_6
REMARK    3  A    between atoms: C_7  and  C_9
REMARK    4  A    between atoms: C_11  and  C_12
REMARK    5  A    between atoms: C_21  and  N_22
REMARK    6  A    between atoms: C_23  and  N_24
REMARK    7  A    between atoms: C_27  and  O_28
REMARK                            x       y       z     vdW  Elec       q    Type
REMARK                         _______ _______ _______ _____ _____    ______ ____
ROOT
ATOM      1  N   UNL     1       0.121  10.144  20.991  0.00  0.00    +0.000 N 
ATOM      2  C   UNL     1       1.195   9.361  21.391  0.00  0.00    +0.000 C 
ATOM      3  O   UNL     1       1.787   9.482  22.463  0.00  0.00    +0.000 OA
ATOM      4  H   UNL     1      -0.255   9.973  20.069  0.00  0.00    +0.000 HD
ENDROOT
BRANCH   1   9
ATOM      5  C   UNL     1      -1.152  14.417  23.170  0.00  0.00    +0.000 C 
ATOM      6  N   UNL     1      -1.067  13.056  22.695  0.00  0.00    +0.000 N 
ATOM      7  N   UNL     1      -1.689  12.124  23.440  0.00  0.00    +0.000 NA
ATOM      8  C   UNL     1      -1.280  10.976  22.916  0.00  0.00    +0.000 A 
ATOM      9  C   UNL     1      -0.444  11.146  21.783  0.00  0.00    +0.000 A 
ATOM     10  C   UNL     1      -0.332  12.533  21.627  0.00  0.00    +0.000 A 
BRANCH  10  11
ATOM     11  N   UNL     1       0.385  13.342  20.758  0.00  0.00    +0.000 N 
ATOM     12  C   UNL     1       1.849  13.340  20.827  0.00  0.00    +0.000 C 
ATOM     13  C   UNL     1       2.457  14.710  20.556  0.00  0.00    +0.000 C 
ATOM     14  C   UNL     1       2.294  15.188  19.118  0.00  0.00    +0.000 C 
ATOM     15  C   UNL     1       0.970  15.884  18.824  0.00  0.00    +0.000 C 
ATOM     16  C   UNL     1      -0.311  15.105  19.098  0.00  0.00    +0.000 C 
ATOM     17  F   UNL     1      -0.968  15.740  20.112  0.00  0.00    +0.000 F 
ATOM     18  C   UNL     1      -0.181  13.604  19.413  0.00  0.00    +0.000 C 
BRANCH  14  19
ATOM     19  O   UNL     1       3.337  16.131  18.835  0.00  0.00    +0.000 OA
ATOM     20  H   UNL     1       2.927  16.921  18.438  0.00  0.00    +0.000 HD
ENDBRANCH  14  19
ENDBRANCH  10  11
ENDBRANCH   1   9
BRANCH   2  21
ATOM     21  C   UNL     1       1.600   8.342  20.407  0.00  0.00    +0.000 A 
ATOM     22  N   UNL     1       1.823   7.003  20.766  0.00  0.00    +0.000 NA
ATOM     23  C   UNL     1       2.245   6.317  19.715  0.00  0.00    +0.000 A 
ATOM     24  S   UNL     1       2.259   7.199  18.236  0.00  0.00    +0.000 S 
ATOM     25  C   UNL     1       1.836   8.628  19.066  0.00  0.00    +0.000 A 
BRANCH  23  26
ATOM     26  C   UNL     1       2.677   4.916  19.732  0.00  0.00    +0.000 A 
ATOM     27  C   UNL     1       4.017   4.579  19.522  0.00  0.00    +0.000 A 
ATOM     28  F   UNL     1       4.945   5.535  19.365  0.00  0.00    +0.000 F 
ATOM     29  C   UNL     1       4.440   3.247  19.481  0.00  0.00    +0.000 A 
ATOM     30  C   UNL     1       3.522   2.214  19.652  0.00  0.00    +0.000 A 
ATOM     31  C   UNL     1       2.185   2.521  19.875  0.00  0.00    +0.000 A 
ATOM     32  C   UNL     1       1.775   3.855  19.912  0.00  0.00    +0.000 A 
ATOM     33  F   UNL     1       0.466   4.086  20.099  0.00  0.00    +0.000 F 
ENDBRANCH  23  26
BRANCH  25  34
ATOM     34  N   UNL     1       1.771   9.807  18.407  0.00  0.00    +0.000 N 
ATOM     35  H   UNL     1       1.025  10.464  18.613  0.00  0.00    +0.000 HD
ATOM     36  H   UNL     1       2.128   9.860  17.450  0.00  0.00    +0.000 HD
ENDBRANCH  25  34
ENDBRANCH   2  21
TORSDOF 6
ENDMDL
MODEL 8
REMARK VINA RESULT:      -7.2      2.644      3.404
REMARK  Name = 
REMARK  7 active torsions:
REMARK  status: ('A' for Active; 'I' for Inactive)
REMARK    1  A    between atoms: C_1  and  N_2
REMARK    2  A    between atoms: C_5  and  N_6
REMARK    3  A    between atoms: C_7  and  C_9
REMARK    4  A    between atoms: C_11  and  C_12
REMARK    5  A    between atoms: C_21  and  N_22
REMARK    6  A    between atoms: C_23  and  N_24
REMARK    7  A    between atoms: C_27  and  O_28
REMARK                            x       y       z     vdW  Elec       q    Type
REMARK                         _______ _______ _______ _____ _____    ______ ____
ROOT
ATOM      1  N   UNL     1       1.873   8.097  18.461  0.00  0.00    +0.000 N 
ATOM      2  C   UNL     1       1.731   9.445  18.161  0.00  0.00    +0.000 C 
ATOM      3  O   UNL     1       2.540  10.104  17.507  0.00  0.00    +0.000 OA
ATOM      4  H   UNL     1       1.160   7.677  19.041  0.00  0.00    +0.000 HD
ENDROOT
BRANCH   1   9
ATOM      5  C   UNL     1       5.223   4.520  17.680  0.00  0.00    +0.000 C 
ATOM      6  N   UNL     1       4.381   5.692  17.614  0.00  0.00    +0.000 N 
ATOM      7  N   UNL     1       4.865   6.736  16.915  0.00  0.00    +0.000 NA
ATOM      8  C   UNL     1       4.020   7.719  17.193  0.00  0.00    +0.000 A 
ATOM      9  C   UNL     1       2.940   7.314  18.019  0.00  0.00    +0.000 A 
ATOM     10  C   UNL     1       3.174   5.956  18.270  0.00  0.00    +0.000 A 
BRANCH  10  11
ATOM     11  N   UNL     1       2.534   5.003  19.048  0.00  0.00    +0.000 N 
ATOM     12  C   UNL     1       2.336   5.266  20.476  0.00  0.00    +0.000 C 
ATOM     13  C   UNL     1       2.461   4.012  21.332  0.00  0.00    +0.000 C 
ATOM     14  C   UNL     1       1.337   3.004  21.124  0.00  0.00    +0.000 C 
ATOM     15  C   UNL     1       1.548   2.046  19.957  0.00  0.00    +0.000 C 
ATOM     16  C   UNL     1       1.754   2.655  18.575  0.00  0.00    +0.000 C 
ATOM     17  F   UNL     1       3.026   2.357  18.181  0.00  0.00    +0.000 F 
ATOM     18  C   UNL     1       1.491   4.162  18.412  0.00  0.00    +0.000 C 
BRANCH  14  19
ATOM     19  O   UNL     1       1.224   2.205  22.310  0.00  0.00    +0.000 OA
ATOM     20  H   UNL     1       0.723   2.717  22.970  0.00  0.00    +0.000 HD
ENDBRANCH  14  19
ENDBRANCH  10  11
ENDBRANCH   1   9
BRANCH   2  21
ATOM     21  C   UNL     1       0.508  10.060  18.705  0.00  0.00    +0.000 A 
ATOM     22  N   UNL     1      -0.676  10.158  17.958  0.00  0.00    +0.000 NA
ATOM     23  C   UNL     1      -1.595  10.814  18.650  0.00  0.00    +0.000 A 
ATOM     24  S   UNL     1      -1.137  11.214  20.260  0.00  0.00    +0.000 S 
ATOM     25  C   UNL     1       0.439  10.628  19.974  0.00  0.00    +0.000 A 
BRANCH  23  26
ATOM     26  C   UNL     1      -2.920  11.198  18.152  0.00  0.00    +0.000 A 
ATOM     27  C   UNL     1      -3.293  10.928  16.832  0.00  0.00    +0.000 A 
ATOM     28  F   UNL     1      -2.470  10.255  16.014  0.00  0.00    +0.000 F 
ATOM     29  C   UNL     1      -4.530  11.333  16.323  0.00  0.00    +0.000 A 
ATOM     30  C   UNL     1      -5.430  12.024  17.132  0.00  0.00    +0.000 A 
ATOM     31  C   UNL     1      -5.089  12.294  18.453  0.00  0.00    +0.000 A 
ATOM     32  C   UNL     1      -3.849  11.886  18.949  0.00  0.00    +0.000 A 
ATOM     33  F   UNL     1      -3.567  12.204  20.221  0.00  0.00    +0.000 F 
ENDBRANCH  23  26
BRANCH  25  34
ATOM     34  N   UNL     1       1.398  10.754  20.920  0.00  0.00    +0.000 N 
ATOM     35  H   UNL     1       1.283  10.305  21.824  0.00  0.00    +0.000 HD
ATOM     36  H   UNL     1       1.964  11.606  20.941  0.00  0.00    +0.000 HD
ENDBRANCH  25  34
ENDBRANCH   2  21
TORSDOF 6
ENDMDL
MODEL 9
REMARK VINA RESULT:      -7.2      3.177      9.802
REMARK  Name = 
REMARK  7 active torsions:
REMARK  status: ('A' for Active; 'I' for Inactive)
REMARK    1  A    between atoms: C_1  and  N_2
REMARK    2  A    between atoms: C_5  and  N_6
REMARK    3  A    between atoms: C_7  and  C_9
REMARK    4  A    between atoms: C_11  and  C_12
REMARK    5  A    between atoms: C_21  and  N_22
REMARK    6  A    between atoms: C_23  and  N_24
REMARK    7  A    between atoms: C_27  and  O_28
REMARK                            x       y       z     vdW  Elec       q    Type
REMARK                         _______ _______ _______ _____ _____    ______ ____
ROOT
ATOM      1  N   UNL     1       0.255  10.267  20.877  0.00  0.00    +0.000 N 
ATOM      2  C   UNL     1       1.190   9.356  21.346  0.00  0.00    +0.000 C 
ATOM      3  O   UNL     1       1.648   9.350  22.490  0.00  0.00    +0.000 OA
ATOM      4  H   UNL     1      -0.012  10.193  19.905  0.00  0.00    +0.000 HD
ENDROOT
BRANCH   1   9
ATOM      5  C   UNL     1      -1.019  14.538  23.058  0.00  0.00    +0.000 C 
ATOM      6  N   UNL     1      -0.937  13.179  22.578  0.00  0.00    +0.000 N 
ATOM      7  N   UNL     1      -1.572  12.247  23.313  0.00  0.00    +0.000 NA
ATOM      8  C   UNL     1      -1.163  11.100  22.789  0.00  0.00    +0.000 A 
ATOM      9  C   UNL     1      -0.314  11.269  21.666  0.00  0.00    +0.000 A 
ATOM     10  C   UNL     1      -0.192  12.656  21.517  0.00  0.00    +0.000 A 
BRANCH  10  11
ATOM     11  N   UNL     1       0.539  13.465  20.660  0.00  0.00    +0.000 N 
ATOM     12  C   UNL     1       2.002  13.441  20.733  0.00  0.00    +0.000 C 
ATOM     13  C   UNL     1       2.631  14.805  20.479  0.00  0.00    +0.000 C 
ATOM     14  C   UNL     1       2.479  15.301  19.046  0.00  0.00    +0.000 C 
ATOM     15  C   UNL     1       1.166  16.020  18.757  0.00  0.00    +0.000 C 
ATOM     16  C   UNL     1      -0.127  15.256  19.018  0.00  0.00    +0.000 C 
ATOM     17  F   UNL     1      -0.778  15.889  20.037  0.00  0.00    +0.000 F 
ATOM     18  C   UNL     1      -0.020  13.750  19.316  0.00  0.00    +0.000 C 
BRANCH  14  19
ATOM     19  O   UNL     1       3.536  16.232  18.777  0.00  0.00    +0.000 OA
ATOM     20  H   UNL     1       3.219  17.123  19.013  0.00  0.00    +0.000 HD
ENDBRANCH  14  19
ENDBRANCH  10  11
ENDBRANCH   1   9
BRANCH   2  21
ATOM     21  C   UNL     1       1.625   8.365  20.346  0.00  0.00    +0.000 A 
ATOM     22  N   UNL     1       1.873   7.024  20.681  0.00  0.00    +0.000 NA
ATOM     23  C   UNL     1       2.318   6.369  19.620  0.00  0.00    +0.000 A 
ATOM     24  S   UNL     1       2.325   7.279  18.159  0.00  0.00    +0.000 S 
ATOM     25  C   UNL     1       1.865   8.682  19.012  0.00  0.00    +0.000 A 
BRANCH  23  26
ATOM     26  C   UNL     1       2.780   4.976  19.613  0.00  0.00    +0.000 A 
ATOM     27  C   UNL     1       1.887   3.927  19.852  0.00  0.00    +0.000 A 
ATOM     28  F   UNL     1       0.580   4.170  20.027  0.00  0.00    +0.000 F 
ATOM     29  C   UNL     1       2.316   2.598  19.903  0.00  0.00    +0.000 A 
ATOM     30  C   UNL     1       3.661   2.287  19.715  0.00  0.00    +0.000 A 
ATOM     31  C   UNL     1       4.568   3.310  19.463  0.00  0.00    +0.000 A 
ATOM     32  C   UNL     1       4.127   4.634  19.417  0.00  0.00    +0.000 A 
ATOM     33  F   UNL     1       5.055   5.579  19.201  0.00  0.00    +0.000 F 
ENDBRANCH  23  26
BRANCH  25  34
ATOM     34  N   UNL     1       1.780   9.873  18.376  0.00  0.00    +0.000 N 
ATOM     35  H   UNL     1       1.129  10.579  18.705  0.00  0.00    +0.000 HD
ATOM     36  H   UNL     1       1.977   9.913  17.373  0.00  0.00    +0.000 HD
ENDBRANCH  25  34
ENDBRANCH   2  21
TORSDOF 6
ENDMDL
