MODEL 1
REMARK VINA RESULT:      -7.9      0.000      0.000
REMARK  Name = 
REMARK  8 active torsions:
REMARK  status: ('A' for Active; 'I' for Inactive)
REMARK    1  A    between atoms: C_1  and  C_2
REMARK    2  A    between atoms: C_4  and  C_5
REMARK    3  A    between atoms: C_7  and  S_8
REMARK    4  A    between atoms: S_8  and  C_11
REMARK    5  A    between atoms: C_12  and  C_13
REMARK    6  A    between atoms: N_15  and  C_16
REMARK    7  A    between atoms: C_16  and  C_17
REMARK    8  A    between atoms: C_16  and  C_18
REMARK                            x       y       z     vdW  Elec       q    Type
REMARK                         _______ _______ _______ _____ _____    ______ ____
ROOT
ATOM      1  C   UNL     1      -0.598  11.448  20.687  0.00  0.00    +0.000 A 
ATOM      2  C   UNL     1      -0.960  11.411  22.037  0.00  0.00    +0.000 A 
ATOM      3  N   UNL     1      -0.403  10.229  22.521  0.00  0.00    +0.000 N 
ATOM      4  C   UNL     1       0.349   9.573  21.577  0.00  0.00    +0.000 A 
ATOM      5  C   UNL     1       1.057   8.360  21.646  0.00  0.00    +0.000 A 
ATOM      6  C   UNL     1       1.716   7.914  20.491  0.00  0.00    +0.000 A 
ATOM      7  C   UNL     1       1.662   8.649  19.315  0.00  0.00    +0.000 A 
ATOM      8 BR   UNL     1       2.567   8.041  17.771  0.00  0.00    +0.000 Br
ATOM      9  C   UNL     1       0.931   9.837  19.256  0.00  0.00    +0.000 A 
ATOM     10  C   UNL     1       0.267  10.326  20.410  0.00  0.00    +0.000 A 
ATOM     11  H   UNL     1      -0.577   9.881  23.455  0.00  0.00    +0.000 HD
ENDROOT
BRANCH   2  12
ATOM     12  C   UNL     1      -1.805  12.185  22.936  0.00  0.00    +0.000 C 
ATOM     13  O   UNL     1      -1.316  13.027  23.689  0.00  0.00    +0.000 OA
ATOM     14  N   UNL     1      -3.170  12.058  22.817  0.00  0.00    +0.000 N 
ATOM     15  H   UNL     1      -3.549  11.557  22.028  0.00  0.00    +0.000 HD
BRANCH  14  16
ATOM     16  C   UNL     1      -4.127  12.925  23.537  0.00  0.00    +0.000 C 
ATOM     17  C   UNL     1      -4.509  12.412  24.925  0.00  0.00    +0.000 C 
BRANCH  16  18
ATOM     18  C   UNL     1      -5.397  13.178  22.684  0.00  0.00    +0.000 C 
ATOM     19  N   UNL     1      -6.472  12.394  23.023  0.00  0.00    +0.000 N 
ATOM     20  O   UNL     1      -5.462  13.896  21.697  0.00  0.00    +0.000 OA
ATOM     21  H   UNL     1      -6.320  11.509  23.489  0.00  0.00    +0.000 HD
ATOM     22  H   UNL     1      -7.230  12.423  22.350  0.00  0.00    +0.000 HD
ENDBRANCH  16  18
ENDBRANCH  14  16
ENDBRANCH   2  12
BRANCH   1  23
ATOM     23  S   UNL     1      -1.186  12.374  19.356  0.00  0.00    +0.000 S 
ATOM     24  O   UNL     1      -0.030  12.460  18.484  0.00  0.00    +0.000 OA
ATOM     25  O   UNL     1      -1.771  13.559  19.952  0.00  0.00    +0.000 OA
BRANCH  23  32
ATOM     26  C   UNL     1      -6.262  12.017  18.335  0.00  0.00    +0.000 C 
ATOM     27  C   UNL     1      -4.859  11.640  17.965  0.00  0.00    +0.000 A 
ATOM     28  C   UNL     1      -4.556  11.095  16.704  0.00  0.00    +0.000 A 
ATOM     29  C   UNL     1      -3.236  10.787  16.341  0.00  0.00    +0.000 A 
ATOM     30  C   UNL     1      -2.870  10.351  14.958  0.00  0.00    +0.000 C 
ATOM     31  C   UNL     1      -2.211  11.011  17.263  0.00  0.00    +0.000 A 
ATOM     32  C   UNL     1      -2.498  11.611  18.484  0.00  0.00    +0.000 A 
ATOM     33  C   UNL     1      -3.816  11.917  18.849  0.00  0.00    +0.000 A 
ENDBRANCH  23  32
ENDBRANCH   1  23
TORSDOF 5
ENDMDL
MODEL 2
REMARK VINA RESULT:      -7.9      1.211      1.275
REMARK  Name = 
REMARK  8 active torsions:
REMARK  status: ('A' for Active; 'I' for Inactive)
REMARK    1  A    between atoms: C_1  and  C_2
REMARK    2  A    between atoms: C_4  and  C_5
REMARK    3  A    between atoms: C_7  and  S_8
REMARK    4  A    between atoms: S_8  and  C_11
REMARK    5  A    between atoms: C_12  and  C_13
REMARK    6  A    between atoms: N_15  and  C_16
REMARK    7  A    between atoms: C_16  and  C_17
REMARK    8  A    between atoms: C_16  and  C_18
REMARK                            x       y       z     vdW  Elec       q    Type
REMARK                         _______ _______ _______ _____ _____    ______ ____
ROOT
ATOM      1  C   UNL     1      -1.404  11.931  21.163  0.00  0.00    +0.000 A 
ATOM      2  C   UNL     1      -1.740  11.858  22.518  0.00  0.00    +0.000 A 
ATOM      3  N   UNL     1      -1.092  10.716  22.984  0.00  0.00    +0.000 N 
ATOM      4  C   UNL     1      -0.312  10.121  22.022  0.00  0.00    +0.000 A 
ATOM      5  C   UNL     1       0.483   8.962  22.070  0.00  0.00    +0.000 A 
ATOM      6  C   UNL     1       1.152   8.572  20.900  0.00  0.00    +0.000 A 
ATOM      7  C   UNL     1       1.026   9.309  19.732  0.00  0.00    +0.000 A 
ATOM      8 BR   UNL     1       1.945   8.778  18.169  0.00  0.00    +0.000 Br
ATOM      9  C   UNL     1       0.211  10.442  19.694  0.00  0.00    +0.000 A 
ATOM     10  C   UNL     1      -0.466  10.874  20.863  0.00  0.00    +0.000 A 
ATOM     11  H   UNL     1      -1.225  10.349  23.918  0.00  0.00    +0.000 HD
ENDROOT
BRANCH   2  12
ATOM     12  C   UNL     1      -2.622  12.563  23.438  0.00  0.00    +0.000 C 
ATOM     13  O   UNL     1      -2.179  13.421  24.201  0.00  0.00    +0.000 OA
ATOM     14  N   UNL     1      -3.978  12.356  23.328  0.00  0.00    +0.000 N 
ATOM     15  H   UNL     1      -4.333  11.845  22.532  0.00  0.00    +0.000 HD
BRANCH  14  16
ATOM     16  C   UNL     1      -4.979  13.150  24.070  0.00  0.00    +0.000 C 
ATOM     17  C   UNL     1      -6.398  12.588  23.997  0.00  0.00    +0.000 C 
BRANCH  16  18
ATOM     18  C   UNL     1      -4.961  14.632  23.614  0.00  0.00    +0.000 C 
ATOM     19  N   UNL     1      -4.547  15.517  24.579  0.00  0.00    +0.000 N 
ATOM     20  O   UNL     1      -5.394  15.058  22.554  0.00  0.00    +0.000 OA
ATOM     21  H   UNL     1      -4.632  15.268  25.557  0.00  0.00    +0.000 HD
ATOM     22  H   UNL     1      -4.716  16.489  24.346  0.00  0.00    +0.000 HD
ENDBRANCH  16  18
ENDBRANCH  14  16
ENDBRANCH   2  12
BRANCH   1  23
ATOM     23  S   UNL     1      -2.079  12.821  19.850  0.00  0.00    +0.000 S 
ATOM     24  O   UNL     1      -0.907  13.233  19.100  0.00  0.00    +0.000 OA
ATOM     25  O   UNL     1      -2.959  13.794  20.468  0.00  0.00    +0.000 OA
BRANCH  23  32
ATOM     26  C   UNL     1      -6.836  11.681  18.115  0.00  0.00    +0.000 C 
ATOM     27  C   UNL     1      -5.352  11.535  17.954  0.00  0.00    +0.000 A 
ATOM     28  C   UNL     1      -4.790  11.062  16.754  0.00  0.00    +0.000 A 
ATOM     29  C   UNL     1      -3.400  10.971  16.587  0.00  0.00    +0.000 A 
ATOM     30  C   UNL     1      -2.775  10.618  15.275  0.00  0.00    +0.000 C 
ATOM     31  C   UNL     1      -2.565  11.342  17.645  0.00  0.00    +0.000 A 
ATOM     32  C   UNL     1      -3.116  11.872  18.806  0.00  0.00    +0.000 A 
ATOM     33  C   UNL     1      -4.504  11.961  18.975  0.00  0.00    +0.000 A 
ENDBRANCH  23  32
ENDBRANCH   1  23
TORSDOF 5
ENDMDL
MODEL 3
REMARK VINA RESULT:      -7.7      1.041      1.269
REMARK  Name = 
REMARK  8 active torsions:
REMARK  status: ('A' for Active; 'I' for Inactive)
REMARK    1  A    between atoms: C_1  and  C_2
REMARK    2  A    between atoms: C_4  and  C_5
REMARK    3  A    between atoms: C_7  and  S_8
REMARK    4  A    between atoms: S_8  and  C_11
REMARK    5  A    between atoms: C_12  and  C_13
REMARK    6  A    between atoms: N_15  and  C_16
REMARK    7  A    between atoms: C_16  and  C_17
REMARK    8  A    between atoms: C_16  and  C_18
REMARK                            x       y       z     vdW  Elec       q    Type
REMARK                         _______ _______ _______ _____ _____    ______ ____
ROOT
ATOM      1  C   UNL     1      -0.522  11.388  20.508  0.00  0.00    +0.000 A 
ATOM      2  C   UNL     1      -0.925  11.423  21.846  0.00  0.00    +0.000 A 
ATOM      3  N   UNL     1      -0.405  10.257  22.405  0.00  0.00    +0.000 N 
ATOM      4  C   UNL     1       0.362   9.543  21.518  0.00  0.00    +0.000 A 
ATOM      5  C   UNL     1       1.046   8.323  21.668  0.00  0.00    +0.000 A 
ATOM      6  C   UNL     1       1.731   7.809  20.558  0.00  0.00    +0.000 A 
ATOM      7  C   UNL     1       1.726   8.485  19.346  0.00  0.00    +0.000 A 
ATOM      8 BR   UNL     1       2.666   7.786  17.863  0.00  0.00    +0.000 Br
ATOM      9  C   UNL     1       1.020   9.681  19.206  0.00  0.00    +0.000 A 
ATOM     10  C   UNL     1       0.331  10.238  20.314  0.00  0.00    +0.000 A 
ATOM     11  H   UNL     1      -0.614   9.959  23.349  0.00  0.00    +0.000 HD
ENDROOT
BRANCH   2  12
ATOM     12  C   UNL     1      -1.782  12.255  22.680  0.00  0.00    +0.000 C 
ATOM     13  O   UNL     1      -1.323  12.856  23.651  0.00  0.00    +0.000 OA
ATOM     14  N   UNL     1      -3.077  12.472  22.269  0.00  0.00    +0.000 N 
ATOM     15  H   UNL     1      -3.355  12.178  21.344  0.00  0.00    +0.000 HD
BRANCH  14  16
ATOM     16  C   UNL     1      -3.980  13.443  22.924  0.00  0.00    +0.000 C 
ATOM     17  C   UNL     1      -3.499  14.891  22.844  0.00  0.00    +0.000 C 
BRANCH  16  18
ATOM     18  C   UNL     1      -4.250  13.043  24.398  0.00  0.00    +0.000 C 
ATOM     19  N   UNL     1      -3.739  13.917  25.325  0.00  0.00    +0.000 N 
ATOM     20  O   UNL     1      -4.746  11.991  24.772  0.00  0.00    +0.000 OA
ATOM     21  H   UNL     1      -2.958  14.512  25.077  0.00  0.00    +0.000 HD
ATOM     22  H   UNL     1      -3.748  13.561  26.274  0.00  0.00    +0.000 HD
ENDBRANCH  16  18
ENDBRANCH  14  16
ENDBRANCH   2  12
BRANCH   1  23
ATOM     23  S   UNL     1      -1.051  12.256  19.116  0.00  0.00    +0.000 S 
ATOM     24  O   UNL     1       0.114  12.228  18.253  0.00  0.00    +0.000 OA
ATOM     25  O   UNL     1      -1.579  13.506  19.631  0.00  0.00    +0.000 OA
BRANCH  23  32
ATOM     26  C   UNL     1      -6.152  11.990  18.194  0.00  0.00    +0.000 C 
ATOM     27  C   UNL     1      -4.764  11.579  17.804  0.00  0.00    +0.000 A 
ATOM     28  C   UNL     1      -4.496  11.009  16.546  0.00  0.00    +0.000 A 
ATOM     29  C   UNL     1      -3.190  10.668  16.164  0.00  0.00    +0.000 A 
ATOM     30  C   UNL     1      -2.859  10.204  14.781  0.00  0.00    +0.000 C 
ATOM     31  C   UNL     1      -2.143  10.884  17.064  0.00  0.00    +0.000 A 
ATOM     32  C   UNL     1      -2.395  11.508  18.280  0.00  0.00    +0.000 A 
ATOM     33  C   UNL     1      -3.699  11.847  18.665  0.00  0.00    +0.000 A 
ENDBRANCH  23  32
ENDBRANCH   1  23
TORSDOF 5
ENDMDL
MODEL 4
REMARK VINA RESULT:      -7.6      4.831      8.209
REMARK  Name = 
REMARK  8 active torsions:
REMARK  status: ('A' for Active; 'I' for Inactive)
REMARK    1  A    between atoms: C_1  and  C_2
REMARK    2  A    between atoms: C_4  and  C_5
REMARK    3  A    between atoms: C_7  and  S_8
REMARK    4  A    between atoms: S_8  and  C_11
REMARK    5  A    between atoms: C_12  and  C_13
REMARK    6  A    between atoms: N_15  and  C_16
REMARK    7  A    between atoms: C_16  and  C_17
REMARK    8  A    between atoms: C_16  and  C_18
REMARK                            x       y       z     vdW  Elec       q    Type
REMARK                         _______ _______ _______ _____ _____    ______ ____
ROOT
ATOM      1  C   UNL     1       2.611   6.553  19.458  0.00  0.00    +0.000 A 
ATOM      2  C   UNL     1       1.903   7.157  20.503  0.00  0.00    +0.000 A 
ATOM      3  N   UNL     1       1.477   6.097  21.302  0.00  0.00    +0.000 N 
ATOM      4  C   UNL     1       1.944   4.882  20.862  0.00  0.00    +0.000 A 
ATOM      5  C   UNL     1       1.740   3.584  21.363  0.00  0.00    +0.000 A 
ATOM      6  C   UNL     1       2.326   2.512  20.673  0.00  0.00    +0.000 A 
ATOM      7  C   UNL     1       3.078   2.731  19.528  0.00  0.00    +0.000 A 
ATOM      8 BR   UNL     1       3.871   1.277  18.618  0.00  0.00    +0.000 Br
ATOM      9  C   UNL     1       3.247   4.024  19.029  0.00  0.00    +0.000 A 
ATOM     10  C   UNL     1       2.684   5.132  19.711  0.00  0.00    +0.000 A 
ATOM     11  H   UNL     1       0.855   6.219  22.091  0.00  0.00    +0.000 HD
ENDROOT
BRANCH   2  12
ATOM     12  C   UNL     1       1.450   8.496  20.848  0.00  0.00    +0.000 C 
ATOM     13  O   UNL     1       1.560   8.921  21.999  0.00  0.00    +0.000 OA
ATOM     14  N   UNL     1       1.036   9.327  19.832  0.00  0.00    +0.000 N 
ATOM     15  H   UNL     1       1.193   9.046  18.875  0.00  0.00    +0.000 HD
BRANCH  14  16
ATOM     16  C   UNL     1       0.736  10.760  20.032  0.00  0.00    +0.000 C 
ATOM     17  C   UNL     1      -0.757  11.082  20.087  0.00  0.00    +0.000 C 
BRANCH  16  18
ATOM     18  C   UNL     1       1.437  11.630  18.956  0.00  0.00    +0.000 C 
ATOM     19  N   UNL     1       1.747  10.959  17.799  0.00  0.00    +0.000 N 
ATOM     20  O   UNL     1       1.830  12.776  19.111  0.00  0.00    +0.000 OA
ATOM     21  H   UNL     1       1.861   9.953  17.818  0.00  0.00    +0.000 HD
ATOM     22  H   UNL     1       2.368  11.469  17.182  0.00  0.00    +0.000 HD
ENDBRANCH  16  18
ENDBRANCH  14  16
ENDBRANCH   2  12
BRANCH   1  23
ATOM     23  S   UNL     1       3.123   7.135  17.919  0.00  0.00    +0.000 S 
ATOM     24  O   UNL     1       3.176   8.571  18.116  0.00  0.00    +0.000 OA
ATOM     25  O   UNL     1       2.206   6.538  16.967  0.00  0.00    +0.000 OA
BRANCH  23  32
ATOM     26  C   UNL     1       7.948   5.721  19.206  0.00  0.00    +0.000 C 
ATOM     27  C   UNL     1       6.873   5.779  18.162  0.00  0.00    +0.000 A 
ATOM     28  C   UNL     1       6.944   4.996  16.995  0.00  0.00    +0.000 A 
ATOM     29  C   UNL     1       5.915   5.016  16.042  0.00  0.00    +0.000 A 
ATOM     30  C   UNL     1       5.893   4.084  14.872  0.00  0.00    +0.000 C 
ATOM     31  C   UNL     1       4.811   5.846  16.254  0.00  0.00    +0.000 A 
ATOM     32  C   UNL     1       4.708   6.570  17.436  0.00  0.00    +0.000 A 
ATOM     33  C   UNL     1       5.735   6.553  18.388  0.00  0.00    +0.000 A 
ENDBRANCH  23  32
ENDBRANCH   1  23
TORSDOF 5
ENDMDL
MODEL 5
REMARK VINA RESULT:      -7.5      1.592      2.166
REMARK  Name = 
REMARK  8 active torsions:
REMARK  status: ('A' for Active; 'I' for Inactive)
REMARK    1  A    between atoms: C_1  and  C_2
REMARK    2  A    between atoms: C_4  and  C_5
REMARK    3  A    between atoms: C_7  and  S_8
REMARK    4  A    between atoms: S_8  and  C_11
REMARK    5  A    between atoms: C_12  and  C_13
REMARK    6  A    between atoms: N_15  and  C_16
REMARK    7  A    between atoms: C_16  and  C_17
REMARK    8  A    between atoms: C_16  and  C_18
REMARK                            x       y       z     vdW  Elec       q    Type
REMARK                         _______ _______ _______ _____ _____    ______ ____
ROOT
ATOM      1  C   UNL     1      -0.903  11.629  20.832  0.00  0.00    +0.000 A 
ATOM      2  C   UNL     1      -1.254  11.566  22.184  0.00  0.00    +0.000 A 
ATOM      3  N   UNL     1      -0.655  10.398  22.652  0.00  0.00    +0.000 N 
ATOM      4  C   UNL     1       0.112   9.777  21.696  0.00  0.00    +0.000 A 
ATOM      5  C   UNL     1       0.861   8.588  21.748  0.00  0.00    +0.000 A 
ATOM      6  C   UNL     1       1.526   8.176  20.584  0.00  0.00    +0.000 A 
ATOM      7  C   UNL     1       1.439   8.921  19.416  0.00  0.00    +0.000 A 
ATOM      8 BR   UNL     1       2.353   8.359  17.861  0.00  0.00    +0.000 Br
ATOM      9  C   UNL     1       0.669  10.084  19.375  0.00  0.00    +0.000 A 
ATOM     10  C   UNL     1      -0.002  10.539  20.538  0.00  0.00    +0.000 A 
ATOM     11  H   UNL     1      -0.811  10.035  23.584  0.00  0.00    +0.000 HD
ENDROOT
BRANCH   2  12
ATOM     12  C   UNL     1      -2.117  12.302  23.097  0.00  0.00    +0.000 C 
ATOM     13  O   UNL     1      -3.000  11.725  23.732  0.00  0.00    +0.000 OA
ATOM     14  N   UNL     1      -1.827  13.624  23.345  0.00  0.00    +0.000 N 
ATOM     15  H   UNL     1      -0.954  14.005  23.011  0.00  0.00    +0.000 HD
BRANCH  14  16
ATOM     16  C   UNL     1      -2.509  14.419  24.388  0.00  0.00    +0.000 C 
ATOM     17  C   UNL     1      -3.836  15.029  23.938  0.00  0.00    +0.000 C 
BRANCH  16  18
ATOM     18  C   UNL     1      -1.571  15.519  24.950  0.00  0.00    +0.000 C 
ATOM     19  N   UNL     1      -1.564  16.683  24.223  0.00  0.00    +0.000 N 
ATOM     20  O   UNL     1      -0.779  15.379  25.870  0.00  0.00    +0.000 OA
ATOM     21  H   UNL     1      -1.828  16.666  23.246  0.00  0.00    +0.000 HD
ATOM     22  H   UNL     1      -0.818  17.322  24.476  0.00  0.00    +0.000 HD
ENDBRANCH  16  18
ENDBRANCH  14  16
ENDBRANCH   2  12
BRANCH   1  23
ATOM     23  S   UNL     1      -1.530  12.548  19.516  0.00  0.00    +0.000 S 
ATOM     24  O   UNL     1      -0.360  12.768  18.686  0.00  0.00    +0.000 OA
ATOM     25  O   UNL     1      -2.236  13.656  20.132  0.00  0.00    +0.000 OA
BRANCH  23  32
ATOM     26  C   UNL     1      -6.508  11.893  18.203  0.00  0.00    +0.000 C 
ATOM     27  C   UNL     1      -5.066  11.596  17.919  0.00  0.00    +0.000 A 
ATOM     28  C   UNL     1      -4.660  11.064  16.682  0.00  0.00    +0.000 A 
ATOM     29  C   UNL     1      -3.305  10.831  16.399  0.00  0.00    +0.000 A 
ATOM     30  C   UNL     1      -2.834  10.411  15.044  0.00  0.00    +0.000 C 
ATOM     31  C   UNL     1      -2.350  11.119  17.378  0.00  0.00    +0.000 A 
ATOM     32  C   UNL     1      -2.743  11.707  18.575  0.00  0.00    +0.000 A 
ATOM     33  C   UNL     1      -4.095  11.938  18.860  0.00  0.00    +0.000 A 
ENDBRANCH  23  32
ENDBRANCH   1  23
TORSDOF 5
ENDMDL
MODEL 6
REMARK VINA RESULT:      -7.5      0.456      1.669
REMARK  Name = 
REMARK  8 active torsions:
REMARK  status: ('A' for Active; 'I' for Inactive)
REMARK    1  A    between atoms: C_1  and  C_2
REMARK    2  A    between atoms: C_4  and  C_5
REMARK    3  A    between atoms: C_7  and  S_8
REMARK    4  A    between atoms: S_8  and  C_11
REMARK    5  A    between atoms: C_12  and  C_13
REMARK    6  A    between atoms: N_15  and  C_16
REMARK    7  A    between atoms: C_16  and  C_17
REMARK    8  A    between atoms: C_16  and  C_18
REMARK                            x       y       z     vdW  Elec       q    Type
REMARK                         _______ _______ _______ _____ _____    ______ ____
ROOT
ATOM      1  C   UNL     1      -0.507  11.648  20.727  0.00  0.00    +0.000 A 
ATOM      2  C   UNL     1      -0.981  11.573  22.041  0.00  0.00    +0.000 A 
ATOM      3  N   UNL     1      -0.561  10.325  22.499  0.00  0.00    +0.000 N 
ATOM      4  C   UNL     1       0.211   9.657  21.580  0.00  0.00    +0.000 A 
ATOM      5  C   UNL     1       0.813   8.388  21.635  0.00  0.00    +0.000 A 
ATOM      6  C   UNL     1       1.527   7.947  20.512  0.00  0.00    +0.000 A 
ATOM      7  C   UNL     1       1.629   8.742  19.379  0.00  0.00    +0.000 A 
ATOM      8 BR   UNL     1       2.607   8.138  17.879  0.00  0.00    +0.000 Br
ATOM      9  C   UNL     1       1.003   9.988  19.331  0.00  0.00    +0.000 A 
ATOM     10  C   UNL     1       0.287  10.472  20.455  0.00  0.00    +0.000 A 
ATOM     11  H   UNL     1      -0.839   9.946  23.395  0.00  0.00    +0.000 HD
ENDROOT
BRANCH   2  12
ATOM     12  C   UNL     1      -1.833  12.368  22.914  0.00  0.00    +0.000 C 
ATOM     13  O   UNL     1      -1.386  13.352  23.503  0.00  0.00    +0.000 OA
ATOM     14  N   UNL     1      -3.179  12.084  22.946  0.00  0.00    +0.000 N 
ATOM     15  H   UNL     1      -3.561  11.442  22.267  0.00  0.00    +0.000 HD
BRANCH  14  16
ATOM     16  C   UNL     1      -4.167  12.935  23.641  0.00  0.00    +0.000 C 
ATOM     17  C   UNL     1      -4.634  12.376  24.985  0.00  0.00    +0.000 C 
BRANCH  16  18
ATOM     18  C   UNL     1      -5.385  13.232  22.727  0.00  0.00    +0.000 C 
ATOM     19  N   UNL     1      -6.435  12.363  22.883  0.00  0.00    +0.000 N 
ATOM     20  O   UNL     1      -5.418  14.063  21.832  0.00  0.00    +0.000 OA
ATOM     21  H   UNL     1      -6.268  11.434  23.250  0.00  0.00    +0.000 HD
ATOM     22  H   UNL     1      -7.143  12.439  22.160  0.00  0.00    +0.000 HD
ENDBRANCH  16  18
ENDBRANCH  14  16
ENDBRANCH   2  12
BRANCH   1  23
ATOM     23  S   UNL     1      -0.907  12.685  19.410  0.00  0.00    +0.000 S 
ATOM     24  O   UNL     1       0.275  12.616  18.571  0.00  0.00    +0.000 OA
ATOM     25  O   UNL     1      -1.324  13.931  20.026  0.00  0.00    +0.000 OA
BRANCH  23  32
ATOM     26  C   UNL     1      -2.893   9.722  15.640  0.00  0.00    +0.000 C 
ATOM     27  C   UNL     1      -3.136  10.616  16.819  0.00  0.00    +0.000 A 
ATOM     28  C   UNL     1      -4.388  10.657  17.460  0.00  0.00    +0.000 A 
ATOM     29  C   UNL     1      -4.600  11.459  18.592  0.00  0.00    +0.000 A 
ATOM     30  C   UNL     1      -5.870  11.405  19.381  0.00  0.00    +0.000 C 
ATOM     31  C   UNL     1      -3.548  12.243  19.074  0.00  0.00    +0.000 A 
ATOM     32  C   UNL     1      -2.293  12.154  18.482  0.00  0.00    +0.000 A 
ATOM     33  C   UNL     1      -2.080  11.356  17.351  0.00  0.00    +0.000 A 
ENDBRANCH  23  32
ENDBRANCH   1  23
TORSDOF 5
ENDMDL
MODEL 7
REMARK VINA RESULT:      -7.4      2.336      3.167
REMARK  Name = 
REMARK  8 active torsions:
REMARK  status: ('A' for Active; 'I' for Inactive)
REMARK    1  A    between atoms: C_1  and  C_2
REMARK    2  A    between atoms: C_4  and  C_5
REMARK    3  A    between atoms: C_7  and  S_8
REMARK    4  A    between atoms: S_8  and  C_11
REMARK    5  A    between atoms: C_12  and  C_13
REMARK    6  A    between atoms: N_15  and  C_16
REMARK    7  A    between atoms: C_16  and  C_17
REMARK    8  A    between atoms: C_16  and  C_18
REMARK                            x       y       z     vdW  Elec       q    Type
REMARK                         _______ _______ _______ _____ _____    ______ ____
ROOT
ATOM      1  C   UNL     1       1.122   9.204  19.944  0.00  0.00    +0.000 A 
ATOM      2  C   UNL     1       0.661   9.083  21.258  0.00  0.00    +0.000 A 
ATOM      3  N   UNL     1       1.067   7.812  21.661  0.00  0.00    +0.000 N 
ATOM      4  C   UNL     1       1.819   7.170  20.708  0.00  0.00    +0.000 A 
ATOM      5  C   UNL     1       2.403   5.891  20.706  0.00  0.00    +0.000 A 
ATOM      6  C   UNL     1       3.098   5.485  19.557  0.00  0.00    +0.000 A 
ATOM      7  C   UNL     1       3.199   6.323  18.456  0.00  0.00    +0.000 A 
ATOM      8 BR   UNL     1       4.151   5.766  16.922  0.00  0.00    +0.000 Br
ATOM      9  C   UNL     1       2.591   7.579  18.465  0.00  0.00    +0.000 A 
ATOM     10  C   UNL     1       1.894   8.028  19.616  0.00  0.00    +0.000 A 
ATOM     11  H   UNL     1       0.793   7.402  22.545  0.00  0.00    +0.000 HD
ENDROOT
BRANCH   2  12
ATOM     12  C   UNL     1      -0.169   9.855  22.172  0.00  0.00    +0.000 C 
ATOM     13  O   UNL     1      -0.551   9.371  23.237  0.00  0.00    +0.000 OA
ATOM     14  N   UNL     1      -0.390  11.183  21.887  0.00  0.00    +0.000 N 
ATOM     15  H   UNL     1       0.139  11.621  21.146  0.00  0.00    +0.000 HD
BRANCH  14  16
ATOM     16  C   UNL     1      -1.052  12.112  22.828  0.00  0.00    +0.000 C 
ATOM     17  C   UNL     1      -2.578  12.087  22.756  0.00  0.00    +0.000 C 
BRANCH  16  18
ATOM     18  C   UNL     1      -0.525  13.559  22.643  0.00  0.00    +0.000 C 
ATOM     19  N   UNL     1       0.182  13.761  21.483  0.00  0.00    +0.000 N 
ATOM     20  O   UNL     1      -0.580  14.450  23.477  0.00  0.00    +0.000 OA
ATOM     21  H   UNL     1       0.628  12.976  21.025  0.00  0.00    +0.000 HD
ATOM     22  H   UNL     1       0.682  14.642  21.455  0.00  0.00    +0.000 HD
ENDBRANCH  16  18
ENDBRANCH  14  16
ENDBRANCH   2  12
BRANCH   1  23
ATOM     23  S   UNL     1       0.722  10.298  18.673  0.00  0.00    +0.000 S 
ATOM     24  O   UNL     1       1.456   9.764  17.541  0.00  0.00    +0.000 OA
ATOM     25  O   UNL     1       1.012  11.615  19.207  0.00  0.00    +0.000 OA
BRANCH  23  32
ATOM     26  C   UNL     1      -3.980  12.385  19.358  0.00  0.00    +0.000 C 
ATOM     27  C   UNL     1      -3.091  11.485  18.553  0.00  0.00    +0.000 A 
ATOM     28  C   UNL     1      -3.457  11.059  17.263  0.00  0.00    +0.000 A 
ATOM     29  C   UNL     1      -2.603  10.256  16.492  0.00  0.00    +0.000 A 
ATOM     30  C   UNL     1      -2.899   9.917  15.066  0.00  0.00    +0.000 C 
ATOM     31  C   UNL     1      -1.375   9.862  17.030  0.00  0.00    +0.000 A 
ATOM     32  C   UNL     1      -0.983  10.336  18.277  0.00  0.00    +0.000 A 
ATOM     33  C   UNL     1      -1.835  11.136  19.050  0.00  0.00    +0.000 A 
ENDBRANCH  23  32
ENDBRANCH   1  23
TORSDOF 5
ENDMDL
MODEL 8
REMARK VINA RESULT:      -7.3      4.818      8.167
REMARK  Name = 
REMARK  8 active torsions:
REMARK  status: ('A' for Active; 'I' for Inactive)
REMARK    1  A    between atoms: C_1  and  C_2
REMARK    2  A    between atoms: C_4  and  C_5
REMARK    3  A    between atoms: C_7  and  S_8
REMARK    4  A    between atoms: S_8  and  C_11
REMARK    5  A    between atoms: C_12  and  C_13
REMARK    6  A    between atoms: N_15  and  C_16
REMARK    7  A    between atoms: C_16  and  C_17
REMARK    8  A    between atoms: C_16  and  C_18
REMARK                            x       y       z     vdW  Elec       q    Type
REMARK                         _______ _______ _______ _____ _____    ______ ____
ROOT
ATOM      1  C   UNL     1       2.535   6.504  19.498  0.00  0.00    +0.000 A 
ATOM      2  C   UNL     1       1.824   7.134  20.525  0.00  0.00    +0.000 A 
ATOM      3  N   UNL     1       1.411   6.096  21.358  0.00  0.00    +0.000 N 
ATOM      4  C   UNL     1       1.888   4.873  20.956  0.00  0.00    +0.000 A 
ATOM      5  C   UNL     1       1.699   3.589  21.498  0.00  0.00    +0.000 A 
ATOM      6  C   UNL     1       2.293   2.501  20.841  0.00  0.00    +0.000 A 
ATOM      7  C   UNL     1       3.040   2.692  19.687  0.00  0.00    +0.000 A 
ATOM      8 BR   UNL     1       3.846   1.217  18.822  0.00  0.00    +0.000 Br
ATOM      9  C   UNL     1       3.195   3.970  19.148  0.00  0.00    +0.000 A 
ATOM     10  C   UNL     1       2.623   5.093  19.796  0.00  0.00    +0.000 A 
ATOM     11  H   UNL     1       0.790   6.236  22.145  0.00  0.00    +0.000 HD
ENDROOT
BRANCH   2  12
ATOM     12  C   UNL     1       1.358   8.479  20.830  0.00  0.00    +0.000 C 
ATOM     13  O   UNL     1       1.543   8.973  21.942  0.00  0.00    +0.000 OA
ATOM     14  N   UNL     1       0.842   9.238  19.804  0.00  0.00    +0.000 N 
ATOM     15  H   UNL     1       0.934   8.906  18.855  0.00  0.00    +0.000 HD
BRANCH  14  16
ATOM     16  C   UNL     1       0.515  10.672  19.946  0.00  0.00    +0.000 C 
ATOM     17  C   UNL     1      -0.948  11.008  19.660  0.00  0.00    +0.000 C 
BRANCH  16  18
ATOM     18  C   UNL     1       1.451  11.545  19.070  0.00  0.00    +0.000 C 
ATOM     19  N   UNL     1       1.753  11.001  17.847  0.00  0.00    +0.000 N 
ATOM     20  O   UNL     1       2.016  12.568  19.430  0.00  0.00    +0.000 OA
ATOM     21  H   UNL     1       1.693   9.999  17.715  0.00  0.00    +0.000 HD
ATOM     22  H   UNL     1       2.507  11.473  17.361  0.00  0.00    +0.000 HD
ENDBRANCH  16  18
ENDBRANCH  14  16
ENDBRANCH   2  12
BRANCH   1  23
ATOM     23  S   UNL     1       3.037   7.043  17.940  0.00  0.00    +0.000 S 
ATOM     24  O   UNL     1       3.062   8.486  18.086  0.00  0.00    +0.000 OA
ATOM     25  O   UNL     1       2.133   6.394  17.009  0.00  0.00    +0.000 OA
BRANCH  23  32
ATOM     26  C   UNL     1       6.099   4.505  14.605  0.00  0.00    +0.000 C 
ATOM     27  C   UNL     1       5.986   5.428  15.781  0.00  0.00    +0.000 A 
ATOM     28  C   UNL     1       7.078   6.205  16.208  0.00  0.00    +0.000 A 
ATOM     29  C   UNL     1       6.958   7.104  17.279  0.00  0.00    +0.000 A 
ATOM     30  C   UNL     1       8.055   8.049  17.654  0.00  0.00    +0.000 C 
ATOM     31  C   UNL     1       5.731   7.209  17.940  0.00  0.00    +0.000 A 
ATOM     32  C   UNL     1       4.633   6.492  17.478  0.00  0.00    +0.000 A 
ATOM     33  C   UNL     1       4.752   5.593  16.411  0.00  0.00    +0.000 A 
ENDBRANCH  23  32
ENDBRANCH   1  23
TORSDOF 5
ENDMDL
MODEL 9
REMARK VINA RESULT:      -7.3      1.103      1.110
REMARK  Name = 
REMARK  8 active torsions:
REMARK  status: ('A' for Active; 'I' for Inactive)
REMARK    1  A    between atoms: C_1  and  C_2
REMARK    2  A    between atoms: C_4  and  C_5
REMARK    3  A    between atoms: C_7  and  S_8
REMARK    4  A    between atoms: S_8  and  C_11
REMARK    5  A    between atoms: C_12  and  C_13
REMARK    6  A    between atoms: N_15  and  C_16
REMARK    7  A    between atoms: C_16  and  C_17
REMARK    8  A    between atoms: C_16  and  C_18
REMARK                            x       y       z     vdW  Elec       q    Type
REMARK                         _______ _______ _______ _____ _____    ______ ____
ROOT
ATOM      1  C   UNL     1      -1.085  11.653  20.774  0.00  0.00    +0.000 A 
ATOM      2  C   UNL     1      -1.526  11.662  22.100  0.00  0.00    +0.000 A 
ATOM      3  N   UNL     1      -0.960  10.523  22.671  0.00  0.00    +0.000 N 
ATOM      4  C   UNL     1      -0.132   9.853  21.804  0.00  0.00    +0.000 A 
ATOM      5  C   UNL     1       0.611   8.671  21.971  0.00  0.00    +0.000 A 
ATOM      6  C   UNL     1       1.352   8.198  20.878  0.00  0.00    +0.000 A 
ATOM      7  C   UNL     1       1.344   8.877  19.668  0.00  0.00    +0.000 A 
ATOM      8 BR   UNL     1       2.360   8.233  18.210  0.00  0.00    +0.000 Br
ATOM      9  C   UNL     1       0.580  10.034  19.511  0.00  0.00    +0.000 A 
ATOM     10  C   UNL     1      -0.168  10.550  20.600  0.00  0.00    +0.000 A 
ATOM     11  H   UNL     1      -1.179  10.211  23.608  0.00  0.00    +0.000 HD
ENDROOT
BRANCH   2  12
ATOM     12  C   UNL     1      -2.448  12.445  22.912  0.00  0.00    +0.000 C 
ATOM     13  O   UNL     1      -3.158  11.902  23.758  0.00  0.00    +0.000 OA
ATOM     14  N   UNL     1      -2.397  13.816  22.815  0.00  0.00    +0.000 N 
ATOM     15  H   UNL     1      -1.637  14.245  22.307  0.00  0.00    +0.000 HD
BRANCH  14  16
ATOM     16  C   UNL     1      -3.143  14.718  23.719  0.00  0.00    +0.000 C 
ATOM     17  C   UNL     1      -2.824  14.517  25.200  0.00  0.00    +0.000 C 
BRANCH  16  18
ATOM     18  C   UNL     1      -4.671  14.608  23.475  0.00  0.00    +0.000 C 
ATOM     19  N   UNL     1      -5.345  13.878  24.422  0.00  0.00    +0.000 N 
ATOM     20  O   UNL     1      -5.263  14.996  22.479  0.00  0.00    +0.000 OA
ATOM     21  H   UNL     1      -4.849  13.184  24.967  0.00  0.00    +0.000 HD
ATOM     22  H   UNL     1      -6.298  13.648  24.162  0.00  0.00    +0.000 HD
ENDBRANCH  16  18
ENDBRANCH  14  16
ENDBRANCH   2  12
BRANCH   1  23
ATOM     23  S   UNL     1      -1.621  12.496  19.370  0.00  0.00    +0.000 S 
ATOM     24  O   UNL     1      -0.406  12.637  18.590  0.00  0.00    +0.000 OA
ATOM     25  O   UNL     1      -2.331  13.656  19.876  0.00  0.00    +0.000 OA
BRANCH  23  32
ATOM     26  C   UNL     1      -6.571  11.707  18.021  0.00  0.00    +0.000 C 
ATOM     27  C   UNL     1      -5.119  11.447  17.749  0.00  0.00    +0.000 A 
ATOM     28  C   UNL     1      -4.689  10.921  16.517  0.00  0.00    +0.000 A 
ATOM     29  C   UNL     1      -3.327  10.723  16.245  0.00  0.00    +0.000 A 
ATOM     30  C   UNL     1      -2.834  10.312  14.895  0.00  0.00    +0.000 C 
ATOM     31  C   UNL     1      -2.387  11.039  17.230  0.00  0.00    +0.000 A 
ATOM     32  C   UNL     1      -2.805  11.620  18.423  0.00  0.00    +0.000 A 
ATOM     33  C   UNL     1      -4.164  11.816  18.696  0.00  0.00    +0.000 A 
ENDBRANCH  23  32
ENDBRANCH   1  23
TORSDOF 5
ENDMDL
