MODEL 1
REMARK VINA RESULT:      -6.6      0.000      0.000
REMARK  Name = 
REMARK  2 active torsions:
REMARK  status: ('A' for Active; 'I' for Inactive)
REMARK    1  A    between atoms: C_1  and  N_2
REMARK    2  A    between atoms: C_5  and  C_6
REMARK                            x       y       z     vdW  Elec       q    Type
REMARK                         _______ _______ _______ _____ _____    ______ ____
ROOT
ATOM      1  C   UNL     1       3.627   5.167  20.064  0.00  0.00    +0.000 C 
ATOM      2  O   UNL     1       5.049   4.890  20.013  0.00  0.00    +0.000 OA
ATOM      3  C   UNL     1       5.623   5.016  18.782  0.00  0.00    +0.000 A 
ATOM      4  C   UNL     1       6.492   6.093  18.571  0.00  0.00    +0.000 A 
ATOM      5  C   UNL     1       6.936   6.370  17.279  0.00  0.00    +0.000 A 
ATOM      6 CL   UNL     1       7.868   7.785  16.980  0.00  0.00    +0.000 Cl
ATOM      7  C   UNL     1       6.578   5.544  16.216  0.00  0.00    +0.000 A 
ATOM      8  C   UNL     1       5.814   4.399  16.458  0.00  0.00    +0.000 A 
ATOM      9  C   UNL     1       5.346   4.121  17.748  0.00  0.00    +0.000 A 
ATOM     10  S   UNL     1       4.523   2.589  18.048  0.00  0.00    +0.000 S 
ATOM     11  C   UNL     1       2.919   3.089  18.628  0.00  0.00    +0.000 A 
ATOM     12  C   UNL     1       1.864   2.281  18.151  0.00  0.00    +0.000 A 
ATOM     13  C   UNL     1       0.547   2.467  18.568  0.00  0.00    +0.000 A 
ATOM     14  C   UNL     1       0.267   3.440  19.510  0.00  0.00    +0.000 A 
ATOM     15  C   UNL     1       1.298   4.245  19.992  0.00  0.00    +0.000 A 
ATOM     16  C   UNL     1       2.638   4.124  19.534  0.00  0.00    +0.000 A 
ENDROOT
BRANCH   1  21
ATOM     17  C   UNL     1       0.503   9.626  18.096  0.00  0.00    +0.000 C 
ATOM     18  N   UNL     1       1.172   8.416  18.568  0.00  0.00    +0.000 NA
ATOM     19  C   UNL     1       2.395   8.156  17.805  0.00  0.00    +0.000 C 
ATOM     20  C   UNL     1       2.948   6.780  18.169  0.00  0.00    +0.000 C 
ATOM     21  C   UNL     1       3.192   6.635  19.680  0.00  0.00    +0.000 C 
ATOM     22  C   UNL     1       2.049   7.219  20.534  0.00  0.00    +0.000 C 
ATOM     23  C   UNL     1       1.482   8.531  19.997  0.00  0.00    +0.000 C 
ENDBRANCH   1  21
TORSDOF 1
ENDMDL
MODEL 2
REMARK VINA RESULT:      -6.1      6.719      9.438
REMARK  Name = 
REMARK  2 active torsions:
REMARK  status: ('A' for Active; 'I' for Inactive)
REMARK    1  A    between atoms: C_1  and  N_2
REMARK    2  A    between atoms: C_5  and  C_6
REMARK                            x       y       z     vdW  Elec       q    Type
REMARK                         _______ _______ _______ _____ _____    ______ ____
ROOT
ATOM      1  C   UNL     1      -2.138  12.561  19.901  0.00  0.00    +0.000 C 
ATOM      2  O   UNL     1      -0.773  12.539  20.385  0.00  0.00    +0.000 OA
ATOM      3  C   UNL     1      -0.416  11.415  21.072  0.00  0.00    +0.000 A 
ATOM      4  C   UNL     1       0.479  10.529  20.463  0.00  0.00    +0.000 A 
ATOM      5  C   UNL     1       0.707   9.282  21.041  0.00  0.00    +0.000 A 
ATOM      6 CL   UNL     1       1.673   8.120  20.217  0.00  0.00    +0.000 Cl
ATOM      7  C   UNL     1       0.107   8.944  22.252  0.00  0.00    +0.000 A 
ATOM      8  C   UNL     1      -0.685   9.884  22.917  0.00  0.00    +0.000 A 
ATOM      9  C   UNL     1      -0.937  11.133  22.336  0.00  0.00    +0.000 A 
ATOM     10  S   UNL     1      -1.805  12.352  23.271  0.00  0.00    +0.000 S 
ATOM     11  C   UNL     1      -3.240  12.689  22.279  0.00  0.00    +0.000 A 
ATOM     12  C   UNL     1      -4.419  12.882  23.031  0.00  0.00    +0.000 A 
ATOM     13  C   UNL     1      -5.625  13.243  22.431  0.00  0.00    +0.000 A 
ATOM     14  C   UNL     1      -5.662  13.462  21.066  0.00  0.00    +0.000 A 
ATOM     15  C   UNL     1      -4.506  13.276  20.309  0.00  0.00    +0.000 A 
ATOM     16  C   UNL     1      -3.280  12.843  20.885  0.00  0.00    +0.000 A 
ENDROOT
BRANCH   1  21
ATOM     17  C   UNL     1      -3.257   9.860  14.904  0.00  0.00    +0.000 C 
ATOM     18  N   UNL     1      -2.932  10.659  16.084  0.00  0.00    +0.000 NA
ATOM     19  C   UNL     1      -4.094  10.796  16.965  0.00  0.00    +0.000 C 
ATOM     20  C   UNL     1      -3.789  11.809  18.067  0.00  0.00    +0.000 C 
ATOM     21  C   UNL     1      -2.526  11.439  18.861  0.00  0.00    +0.000 C 
ATOM     22  C   UNL     1      -1.368  10.956  17.964  0.00  0.00    +0.000 C 
ATOM     23  C   UNL     1      -1.811  10.055  16.813  0.00  0.00    +0.000 C 
ENDBRANCH   1  21
TORSDOF 1
ENDMDL
MODEL 3
REMARK VINA RESULT:      -6.1     10.064     13.420
REMARK  Name = 
REMARK  2 active torsions:
REMARK  status: ('A' for Active; 'I' for Inactive)
REMARK    1  A    between atoms: C_1  and  N_2
REMARK    2  A    between atoms: C_5  and  C_6
REMARK                            x       y       z     vdW  Elec       q    Type
REMARK                         _______ _______ _______ _____ _____    ______ ____
ROOT
ATOM      1  C   UNL     1      -4.886  12.889  23.420  0.00  0.00    +0.000 C 
ATOM      2  O   UNL     1      -6.151  12.262  23.092  0.00  0.00    +0.000 OA
ATOM      3  C   UNL     1      -6.705  12.653  21.908  0.00  0.00    +0.000 A 
ATOM      4  C   UNL     1      -6.725  11.730  20.856  0.00  0.00    +0.000 A 
ATOM      5  C   UNL     1      -7.094  12.154  19.581  0.00  0.00    +0.000 A 
ATOM      6 CL   UNL     1      -6.963  11.074  18.248  0.00  0.00    +0.000 Cl
ATOM      7  C   UNL     1      -7.510  13.467  19.366  0.00  0.00    +0.000 A 
ATOM      8  C   UNL     1      -7.609  14.347  20.447  0.00  0.00    +0.000 A 
ATOM      9  C   UNL     1      -7.221  13.937  21.729  0.00  0.00    +0.000 A 
ATOM     10  S   UNL     1      -7.508  15.017  23.095  0.00  0.00    +0.000 S 
ATOM     11  C   UNL     1      -5.881  15.294  23.751  0.00  0.00    +0.000 A 
ATOM     12  C   UNL     1      -5.661  16.618  24.187  0.00  0.00    +0.000 A 
ATOM     13  C   UNL     1      -4.475  17.001  24.811  0.00  0.00    +0.000 A 
ATOM     14  C   UNL     1      -3.500  16.050  25.052  0.00  0.00    +0.000 A 
ATOM     15  C   UNL     1      -3.702  14.738  24.629  0.00  0.00    +0.000 A 
ATOM     16  C   UNL     1      -4.873  14.334  23.930  0.00  0.00    +0.000 A 
ENDROOT
BRANCH   1  21
ATOM     17  C   UNL     1       0.224  13.288  20.729  0.00  0.00    +0.000 C 
ATOM     18  N   UNL     1      -1.015  13.290  21.503  0.00  0.00    +0.000 NA
ATOM     19  C   UNL     1      -2.166  13.614  20.657  0.00  0.00    +0.000 C 
ATOM     20  C   UNL     1      -3.403  13.823  21.527  0.00  0.00    +0.000 C 
ATOM     21  C   UNL     1      -3.693  12.609  22.424  0.00  0.00    +0.000 C 
ATOM     22  C   UNL     1      -2.425  12.024  23.076  0.00  0.00    +0.000 C 
ATOM     23  C   UNL     1      -1.212  11.988  22.150  0.00  0.00    +0.000 C 
ENDBRANCH   1  21
TORSDOF 1
ENDMDL
MODEL 4
REMARK VINA RESULT:      -6.1      7.706     10.254
REMARK  Name = 
REMARK  2 active torsions:
REMARK  status: ('A' for Active; 'I' for Inactive)
REMARK    1  A    between atoms: C_1  and  N_2
REMARK    2  A    between atoms: C_5  and  C_6
REMARK                            x       y       z     vdW  Elec       q    Type
REMARK                         _______ _______ _______ _____ _____    ______ ____
ROOT
ATOM      1  C   UNL     1       0.426  11.705  20.661  0.00  0.00    +0.000 C 
ATOM      2  O   UNL     1       0.180  11.842  22.083  0.00  0.00    +0.000 OA
ATOM      3  C   UNL     1      -0.758  12.772  22.425  0.00  0.00    +0.000 A 
ATOM      4  C   UNL     1      -1.984  12.316  22.923  0.00  0.00    +0.000 A 
ATOM      5  C   UNL     1      -3.032  13.218  23.090  0.00  0.00    +0.000 A 
ATOM      6 CL   UNL     1      -4.591  12.646  23.542  0.00  0.00    +0.000 Cl
ATOM      7  C   UNL     1      -2.845  14.575  22.834  0.00  0.00    +0.000 A 
ATOM      8  C   UNL     1      -1.581  15.039  22.459  0.00  0.00    +0.000 A 
ATOM      9  C   UNL     1      -0.526  14.139  22.268  0.00  0.00    +0.000 A 
ATOM     10  S   UNL     1       1.091  14.772  21.952  0.00  0.00    +0.000 S 
ATOM     11  C   UNL     1       1.503  14.080  20.368  0.00  0.00    +0.000 A 
ATOM     12  C   UNL     1       2.204  14.968  19.524  0.00  0.00    +0.000 A 
ATOM     13  C   UNL     1       2.687  14.573  18.278  0.00  0.00    +0.000 A 
ATOM     14  C   UNL     1       2.516  13.263  17.870  0.00  0.00    +0.000 A 
ATOM     15  C   UNL     1       1.826  12.373  18.693  0.00  0.00    +0.000 A 
ATOM     16  C   UNL     1       1.264  12.766  19.938  0.00  0.00    +0.000 A 
ENDROOT
BRANCH   1  21
ATOM     17  C   UNL     1      -3.109  10.902  16.148  0.00  0.00    +0.000 C 
ATOM     18  N   UNL     1      -2.122  11.168  17.192  0.00  0.00    +0.000 NA
ATOM     19  C   UNL     1      -2.698  11.977  18.269  0.00  0.00    +0.000 C 
ATOM     20  C   UNL     1      -1.595  12.421  19.227  0.00  0.00    +0.000 C 
ATOM     21  C   UNL     1      -0.799  11.231  19.786  0.00  0.00    +0.000 C 
ATOM     22  C   UNL     1      -0.463  10.173  18.716  0.00  0.00    +0.000 C 
ATOM     23  C   UNL     1      -1.598   9.908  17.729  0.00  0.00    +0.000 C 
ENDBRANCH   1  21
TORSDOF 1
ENDMDL
MODEL 5
REMARK VINA RESULT:      -6.0      9.873     12.167
REMARK  Name = 
REMARK  2 active torsions:
REMARK  status: ('A' for Active; 'I' for Inactive)
REMARK    1  A    between atoms: C_1  and  N_2
REMARK    2  A    between atoms: C_5  and  C_6
REMARK                            x       y       z     vdW  Elec       q    Type
REMARK                         _______ _______ _______ _____ _____    ______ ____
ROOT
ATOM      1  C   UNL     1       8.713  15.622  19.103  0.00  0.00    +0.000 C 
ATOM      2  O   UNL     1       8.569  14.851  17.884  0.00  0.00    +0.000 OA
ATOM      3  C   UNL     1       9.348  13.733  17.805  0.00  0.00    +0.000 A 
ATOM      4  C   UNL     1       8.718  12.487  17.891  0.00  0.00    +0.000 A 
ATOM      5  C   UNL     1       9.493  11.336  18.019  0.00  0.00    +0.000 A 
ATOM      6 CL   UNL     1       8.732   9.817  18.292  0.00  0.00    +0.000 Cl
ATOM      7  C   UNL     1      10.884  11.414  17.989  0.00  0.00    +0.000 A 
ATOM      8  C   UNL     1      11.502  12.649  17.775  0.00  0.00    +0.000 A 
ATOM      9  C   UNL     1      10.734  13.815  17.666  0.00  0.00    +0.000 A 
ATOM     10  S   UNL     1      11.532  15.329  17.237  0.00  0.00    +0.000 S 
ATOM     11  C   UNL     1      11.176  16.389  18.618  0.00  0.00    +0.000 A 
ATOM     12  C   UNL     1      12.253  17.222  18.989  0.00  0.00    +0.000 A 
ATOM     13  C   UNL     1      12.131  18.181  19.993  0.00  0.00    +0.000 A 
ATOM     14  C   UNL     1      10.908  18.356  20.615  0.00  0.00    +0.000 A 
ATOM     15  C   UNL     1       9.834  17.543  20.259  0.00  0.00    +0.000 A 
ATOM     16  C   UNL     1       9.948  16.511  19.287  0.00  0.00    +0.000 A 
ENDROOT
BRANCH   1  21
ATOM     17  C   UNL     1       8.222  14.357  24.731  0.00  0.00    +0.000 C 
ATOM     18  N   UNL     1       8.411  14.803  23.352  0.00  0.00    +0.000 NA
ATOM     19  C   UNL     1       9.189  13.829  22.584  0.00  0.00    +0.000 C 
ATOM     20  C   UNL     1       9.556  14.419  21.224  0.00  0.00    +0.000 C 
ATOM     21  C   UNL     1       8.317  14.886  20.442  0.00  0.00    +0.000 C 
ATOM     22  C   UNL     1       7.297  15.638  21.320  0.00  0.00    +0.000 C 
ATOM     23  C   UNL     1       7.112  15.034  22.710  0.00  0.00    +0.000 C 
ENDBRANCH   1  21
TORSDOF 1
ENDMDL
MODEL 6
REMARK VINA RESULT:      -6.0      9.329     11.603
REMARK  Name = 
REMARK  2 active torsions:
REMARK  status: ('A' for Active; 'I' for Inactive)
REMARK    1  A    between atoms: C_1  and  N_2
REMARK    2  A    between atoms: C_5  and  C_6
REMARK                            x       y       z     vdW  Elec       q    Type
REMARK                         _______ _______ _______ _____ _____    ______ ____
ROOT
ATOM      1  C   UNL     1       9.240  15.235  18.211  0.00  0.00    +0.000 C 
ATOM      2  O   UNL     1       9.894  14.181  17.461  0.00  0.00    +0.000 OA
ATOM      3  C   UNL     1      10.194  13.058  18.176  0.00  0.00    +0.000 A 
ATOM      4  C   UNL     1       9.463  11.895  17.908  0.00  0.00    +0.000 A 
ATOM      5  C   UNL     1       9.598  10.793  18.750  0.00  0.00    +0.000 A 
ATOM      6 CL   UNL     1       8.585   9.419  18.531  0.00  0.00    +0.000 Cl
ATOM      7  C   UNL     1      10.505  10.818  19.807  0.00  0.00    +0.000 A 
ATOM      8  C   UNL     1      11.323  11.937  19.989  0.00  0.00    +0.000 A 
ATOM      9  C   UNL     1      11.181  13.058  19.162  0.00  0.00    +0.000 A 
ATOM     10  S   UNL     1      12.333  14.386  19.316  0.00  0.00    +0.000 S 
ATOM     11  C   UNL     1      11.308  15.776  19.732  0.00  0.00    +0.000 A 
ATOM     12  C   UNL     1      11.884  16.643  20.685  0.00  0.00    +0.000 A 
ATOM     13  C   UNL     1      11.266  17.832  21.069  0.00  0.00    +0.000 A 
ATOM     14  C   UNL     1      10.075  18.198  20.469  0.00  0.00    +0.000 A 
ATOM     15  C   UNL     1       9.493  17.354  19.525  0.00  0.00    +0.000 A 
ATOM     16  C   UNL     1      10.067  16.104  19.165  0.00  0.00    +0.000 A 
ENDROOT
BRANCH   1  21
ATOM     17  C   UNL     1       4.235  15.681  21.086  0.00  0.00    +0.000 C 
ATOM     18  N   UNL     1       5.520  15.712  20.390  0.00  0.00    +0.000 NA
ATOM     19  C   UNL     1       6.446  14.724  20.948  0.00  0.00    +0.000 C 
ATOM     20  C   UNL     1       7.838  14.930  20.355  0.00  0.00    +0.000 C 
ATOM     21  C   UNL     1       7.827  14.880  18.818  0.00  0.00    +0.000 C 
ATOM     22  C   UNL     1       6.641  15.647  18.198  0.00  0.00    +0.000 C 
ATOM     23  C   UNL     1       5.327  15.473  18.956  0.00  0.00    +0.000 C 
ENDBRANCH   1  21
TORSDOF 1
ENDMDL
MODEL 7
REMARK VINA RESULT:      -5.9      7.428      9.716
REMARK  Name = 
REMARK  2 active torsions:
REMARK  status: ('A' for Active; 'I' for Inactive)
REMARK    1  A    between atoms: C_1  and  N_2
REMARK    2  A    between atoms: C_5  and  C_6
REMARK                            x       y       z     vdW  Elec       q    Type
REMARK                         _______ _______ _______ _____ _____    ______ ____
ROOT
ATOM      1  C   UNL     1       0.231  12.032  19.667  0.00  0.00    +0.000 C 
ATOM      2  O   UNL     1      -0.807  12.928  19.198  0.00  0.00    +0.000 OA
ATOM      3  C   UNL     1      -0.953  14.078  19.917  0.00  0.00    +0.000 A 
ATOM      4  C   UNL     1      -0.557  15.280  19.319  0.00  0.00    +0.000 A 
ATOM      5  C   UNL     1      -0.500  16.441  20.088  0.00  0.00    +0.000 A 
ATOM      6 CL   UNL     1       0.141  17.886  19.411  0.00  0.00    +0.000 Cl
ATOM      7  C   UNL     1      -0.901  16.424  21.422  0.00  0.00    +0.000 A 
ATOM      8  C   UNL     1      -1.415  15.248  21.975  0.00  0.00    +0.000 A 
ATOM      9  C   UNL     1      -1.458  14.071  21.218  0.00  0.00    +0.000 A 
ATOM     10  S   UNL     1      -2.257  12.649  21.890  0.00  0.00    +0.000 S 
ATOM     11  C   UNL     1      -0.968  11.427  21.922  0.00  0.00    +0.000 A 
ATOM     12  C   UNL     1      -0.993  10.603  23.068  0.00  0.00    +0.000 A 
ATOM     13  C   UNL     1      -0.114   9.533  23.225  0.00  0.00    +0.000 A 
ATOM     14  C   UNL     1       0.781   9.238  22.212  0.00  0.00    +0.000 A 
ATOM     15  C   UNL     1       0.817  10.041  21.073  0.00  0.00    +0.000 A 
ATOM     16  C   UNL     1      -0.021  11.179  20.916  0.00  0.00    +0.000 A 
ENDROOT
BRANCH   1  21
ATOM     17  C   UNL     1       4.696  15.696  19.279  0.00  0.00    +0.000 C 
ATOM     18  N   UNL     1       3.480  14.890  19.374  0.00  0.00    +0.000 NA
ATOM     19  C   UNL     1       3.405  13.919  18.280  0.00  0.00    +0.000 C 
ATOM     20  C   UNL     1       2.032  13.249  18.279  0.00  0.00    +0.000 C 
ATOM     21  C   UNL     1       1.705  12.596  19.631  0.00  0.00    +0.000 C 
ATOM     22  C   UNL     1       2.094  13.475  20.837  0.00  0.00    +0.000 C 
ATOM     23  C   UNL     1       3.426  14.202  20.668  0.00  0.00    +0.000 C 
ENDBRANCH   1  21
TORSDOF 1
ENDMDL
MODEL 8
REMARK VINA RESULT:      -5.9      9.584     11.294
REMARK  Name = 
REMARK  2 active torsions:
REMARK  status: ('A' for Active; 'I' for Inactive)
REMARK    1  A    between atoms: C_1  and  N_2
REMARK    2  A    between atoms: C_5  and  C_6
REMARK                            x       y       z     vdW  Elec       q    Type
REMARK                         _______ _______ _______ _____ _____    ______ ____
ROOT
ATOM      1  C   UNL     1      10.003  14.420  21.148  0.00  0.00    +0.000 C 
ATOM      2  O   UNL     1       9.388  15.712  20.916  0.00  0.00    +0.000 OA
ATOM      3  C   UNL     1       8.087  15.673  20.506  0.00  0.00    +0.000 A 
ATOM      4  C   UNL     1       7.103  16.099  21.405  0.00  0.00    +0.000 A 
ATOM      5  C   UNL     1       5.760  15.885  21.102  0.00  0.00    +0.000 A 
ATOM      6 CL   UNL     1       4.549  16.251  22.268  0.00  0.00    +0.000 Cl
ATOM      7  C   UNL     1       5.393  15.317  19.883  0.00  0.00    +0.000 A 
ATOM      8  C   UNL     1       6.377  15.011  18.939  0.00  0.00    +0.000 A 
ATOM      9  C   UNL     1       7.731  15.203  19.241  0.00  0.00    +0.000 A 
ATOM     10  S   UNL     1       8.933  14.960  17.974  0.00  0.00    +0.000 S 
ATOM     11  C   UNL     1       9.973  13.677  18.631  0.00  0.00    +0.000 A 
ATOM     12  C   UNL     1      10.397  12.738  17.667  0.00  0.00    +0.000 A 
ATOM     13  C   UNL     1      11.288  11.712  17.980  0.00  0.00    +0.000 A 
ATOM     14  C   UNL     1      11.808  11.635  19.259  0.00  0.00    +0.000 A 
ATOM     15  C   UNL     1      11.400  12.556  20.222  0.00  0.00    +0.000 A 
ATOM     16  C   UNL     1      10.441  13.571  19.950  0.00  0.00    +0.000 A 
ENDROOT
BRANCH   1  21
ATOM     17  C   UNL     1       6.203  12.337  24.987  0.00  0.00    +0.000 C 
ATOM     18  N   UNL     1       7.053  12.951  23.969  0.00  0.00    +0.000 NA
ATOM     19  C   UNL     1       8.242  13.560  24.571  0.00  0.00    +0.000 C 
ATOM     20  C   UNL     1       8.990  14.377  23.520  0.00  0.00    +0.000 C 
ATOM     21  C   UNL     1       9.357  13.537  22.286  0.00  0.00    +0.000 C 
ATOM     22  C   UNL     1       8.213  12.614  21.822  0.00  0.00    +0.000 C 
ATOM     23  C   UNL     1       7.446  11.955  22.967  0.00  0.00    +0.000 C 
ENDBRANCH   1  21
TORSDOF 1
ENDMDL
MODEL 9
REMARK VINA RESULT:      -5.8     10.282     12.014
REMARK  Name = 
REMARK  2 active torsions:
REMARK  status: ('A' for Active; 'I' for Inactive)
REMARK    1  A    between atoms: C_1  and  N_2
REMARK    2  A    between atoms: C_5  and  C_6
REMARK                            x       y       z     vdW  Elec       q    Type
REMARK                         _______ _______ _______ _____ _____    ______ ____
ROOT
ATOM      1  C   UNL     1      10.697  14.796  20.826  0.00  0.00    +0.000 C 
ATOM      2  O   UNL     1      10.589  16.212  20.533  0.00  0.00    +0.000 OA
ATOM      3  C   UNL     1       9.412  16.601  19.964  0.00  0.00    +0.000 A 
ATOM      4  C   UNL     1       8.528  17.362  20.737  0.00  0.00    +0.000 A 
ATOM      5  C   UNL     1       7.239  17.604  20.265  0.00  0.00    +0.000 A 
ATOM      6 CL   UNL     1       6.092  18.394  21.275  0.00  0.00    +0.000 Cl
ATOM      7  C   UNL     1       6.854  17.154  19.004  0.00  0.00    +0.000 A 
ATOM      8  C   UNL     1       7.783  16.505  18.187  0.00  0.00    +0.000 A 
ATOM      9  C   UNL     1       9.074  16.239  18.658  0.00  0.00    +0.000 A 
ATOM     10  S   UNL     1      10.268  15.564  17.548  0.00  0.00    +0.000 S 
ATOM     11  C   UNL     1      10.724  14.028  18.316  0.00  0.00    +0.000 A 
ATOM     12  C   UNL     1      10.919  12.971  17.402  0.00  0.00    +0.000 A 
ATOM     13  C   UNL     1      11.365  11.715  17.812  0.00  0.00    +0.000 A 
ATOM     14  C   UNL     1      11.668  11.508  19.145  0.00  0.00    +0.000 A 
ATOM     15  C   UNL     1      11.482  12.542  20.061  0.00  0.00    +0.000 A 
ATOM     16  C   UNL     1      10.964  13.811  19.682  0.00  0.00    +0.000 A 
ENDROOT
BRANCH   1  21
ATOM     17  C   UNL     1       6.047  14.305  24.238  0.00  0.00    +0.000 C 
ATOM     18  N   UNL     1       7.159  14.554  23.324  0.00  0.00    +0.000 NA
ATOM     19  C   UNL     1       8.428  14.645  24.048  0.00  0.00    +0.000 C 
ATOM     20  C   UNL     1       9.529  15.120  23.103  0.00  0.00    +0.000 C 
ATOM     21  C   UNL     1       9.657  14.219  21.864  0.00  0.00    +0.000 C 
ATOM     22  C   UNL     1       8.294  13.820  21.264  0.00  0.00    +0.000 C 
ATOM     23  C   UNL     1       7.229  13.496  22.310  0.00  0.00    +0.000 C 
ENDBRANCH   1  21
TORSDOF 1
ENDMDL
