MODEL 1
REMARK VINA RESULT:      -7.8      0.000      0.000
REMARK  Name = 
REMARK  3 active torsions:
REMARK  status: ('A' for Active; 'I' for Inactive)
REMARK    1  A    between atoms: C_1  and  C_2
REMARK    2  A    between atoms: N_4  and  C_5
REMARK    3  A    between atoms: C_10  and  C_11
REMARK                            x       y       z     vdW  Elec       q    Type
REMARK                         _______ _______ _______ _____ _____    ______ ____
ROOT
ATOM      1  C   UNL     1       0.137  10.109  20.364  0.00  0.00    +0.000 A 
ATOM      2  C   UNL     1       0.240  10.696  19.091  0.00  0.00    +0.000 A 
ATOM      3  C   UNL     1       1.044  10.150  18.081  0.00  0.00    +0.000 A 
ATOM      4  C   UNL     1       1.718   8.987  18.416  0.00  0.00    +0.000 A 
ATOM      5  O   UNL     1       2.510   8.229  17.609  0.00  0.00    +0.000 OA
ATOM      6  C   UNL     1       2.885   7.173  18.408  0.00  0.00    +0.000 A 
ATOM      7  N   UNL     1       2.441   7.247  19.648  0.00  0.00    +0.000 NA
ATOM      8  C   UNL     1       1.674   8.385  19.660  0.00  0.00    +0.000 A 
ATOM      9  C   UNL     1       0.893   8.962  20.673  0.00  0.00    +0.000 A 
ENDROOT
BRANCH   6  10
ATOM     10  C   UNL     1       3.689   6.143  17.751  0.00  0.00    +0.000 A 
ATOM     11  C   UNL     1       4.994   6.458  17.326  0.00  0.00    +0.000 A 
ATOM     12  C   UNL     1       5.784   5.502  16.695  0.00  0.00    +0.000 A 
ATOM     13  F   UNL     1       7.022   5.830  16.301  0.00  0.00    +0.000 F 
ATOM     14  C   UNL     1       5.297   4.223  16.475  0.00  0.00    +0.000 A 
ATOM     15  F   UNL     1       6.058   3.305  15.866  0.00  0.00    +0.000 F 
ATOM     16  C   UNL     1       4.013   3.884  16.878  0.00  0.00    +0.000 A 
ATOM     17  C   UNL     1       3.208   4.840  17.513  0.00  0.00    +0.000 A 
ATOM     18 CL   UNL     1       1.604   4.334  17.924  0.00  0.00    +0.000 Cl
ENDBRANCH   6  10
BRANCH   1  22
ATOM     19  C   UNL     1      -1.654  12.024  23.077  0.00  0.00    +0.000 C 
ATOM     20  C   UNL     1      -0.566  11.800  22.061  0.00  0.00    +0.000 C 
ATOM     21  O   UNL     1       0.327  12.627  21.910  0.00  0.00    +0.000 OA
ATOM     22  N   UNL     1      -0.716  10.608  21.374  0.00  0.00    +0.000 N 
ATOM     23  H   UNL     1      -1.582  10.104  21.520  0.00  0.00    +0.000 HD
ENDBRANCH   1  22
TORSDOF 2
ENDMDL
MODEL 2
REMARK VINA RESULT:      -7.7      2.521      2.970
REMARK  Name = 
REMARK  3 active torsions:
REMARK  status: ('A' for Active; 'I' for Inactive)
REMARK    1  A    between atoms: C_1  and  C_2
REMARK    2  A    between atoms: N_4  and  C_5
REMARK    3  A    between atoms: C_10  and  C_11
REMARK                            x       y       z     vdW  Elec       q    Type
REMARK                         _______ _______ _______ _____ _____    ______ ____
ROOT
ATOM      1  C   UNL     1       0.895  10.487  19.851  0.00  0.00    +0.000 A 
ATOM      2  C   UNL     1       1.337  10.568  18.520  0.00  0.00    +0.000 A 
ATOM      3  C   UNL     1       1.921   9.478  17.859  0.00  0.00    +0.000 A 
ATOM      4  C   UNL     1       2.018   8.312  18.602  0.00  0.00    +0.000 A 
ATOM      5  O   UNL     1       2.486   7.104  18.185  0.00  0.00    +0.000 OA
ATOM      6  C   UNL     1       2.320   6.288  19.280  0.00  0.00    +0.000 A 
ATOM      7  N   UNL     1       1.847   6.902  20.348  0.00  0.00    +0.000 NA
ATOM      8  C   UNL     1       1.626   8.187  19.921  0.00  0.00    +0.000 A 
ATOM      9  C   UNL     1       1.076   9.297  20.581  0.00  0.00    +0.000 A 
ENDROOT
BRANCH   6  10
ATOM     10  C   UNL     1       2.672   4.883  19.075  0.00  0.00    +0.000 A 
ATOM     11  C   UNL     1       1.644   3.935  18.908  0.00  0.00    +0.000 A 
ATOM     12  C   UNL     1       1.944   2.590  18.715  0.00  0.00    +0.000 A 
ATOM     13  F   UNL     1       0.945   1.711  18.558  0.00  0.00    +0.000 F 
ATOM     14  C   UNL     1       3.262   2.162  18.685  0.00  0.00    +0.000 A 
ATOM     15  F   UNL     1       3.548   0.867  18.501  0.00  0.00    +0.000 F 
ATOM     16  C   UNL     1       4.297   3.072  18.853  0.00  0.00    +0.000 A 
ATOM     17  C   UNL     1       4.006   4.428  19.049  0.00  0.00    +0.000 A 
ATOM     18 CL   UNL     1       5.365   5.471  19.304  0.00  0.00    +0.000 Cl
ENDBRANCH   6  10
BRANCH   1  22
ATOM     19  C   UNL     1      -0.129  13.603  21.716  0.00  0.00    +0.000 C 
ATOM     20  C   UNL     1       0.858  12.655  21.089  0.00  0.00    +0.000 C 
ATOM     21  O   UNL     1       2.060  12.894  21.123  0.00  0.00    +0.000 OA
ATOM     22  N   UNL     1       0.247  11.555  20.513  0.00  0.00    +0.000 N 
ATOM     23  H   UNL     1      -0.763  11.576  20.450  0.00  0.00    +0.000 HD
ENDBRANCH   1  22
TORSDOF 2
ENDMDL
MODEL 3
REMARK VINA RESULT:      -7.7      4.257      8.202
REMARK  Name = 
REMARK  3 active torsions:
REMARK  status: ('A' for Active; 'I' for Inactive)
REMARK    1  A    between atoms: C_1  and  C_2
REMARK    2  A    between atoms: N_4  and  C_5
REMARK    3  A    between atoms: C_10  and  C_11
REMARK                            x       y       z     vdW  Elec       q    Type
REMARK                         _______ _______ _______ _____ _____    ______ ____
ROOT
ATOM      1  C   UNL     1       4.066   5.018  17.310  0.00  0.00    +0.000 A 
ATOM      2  C   UNL     1       3.723   4.165  18.373  0.00  0.00    +0.000 A 
ATOM      3  C   UNL     1       3.011   4.617  19.493  0.00  0.00    +0.000 A 
ATOM      4  C   UNL     1       2.654   5.955  19.474  0.00  0.00    +0.000 A 
ATOM      5  O   UNL     1       1.915   6.626  20.399  0.00  0.00    +0.000 OA
ATOM      6  C   UNL     1       1.812   7.898  19.884  0.00  0.00    +0.000 A 
ATOM      7  N   UNL     1       2.470   8.080  18.754  0.00  0.00    +0.000 NA
ATOM      8  C   UNL     1       2.990   6.843  18.469  0.00  0.00    +0.000 A 
ATOM      9  C   UNL     1       3.734   6.385  17.371  0.00  0.00    +0.000 A 
ENDROOT
BRANCH   6  10
ATOM     10  C   UNL     1       0.981   8.822  20.653  0.00  0.00    +0.000 A 
ATOM     11  C   UNL     1       0.930   8.695  22.056  0.00  0.00    +0.000 A 
ATOM     12  C   UNL     1       0.147   9.557  22.817  0.00  0.00    +0.000 A 
ATOM     13  F   UNL     1       0.118   9.413  24.149  0.00  0.00    +0.000 F 
ATOM     14  C   UNL     1      -0.598  10.554  22.207  0.00  0.00    +0.000 A 
ATOM     15  F   UNL     1      -1.353  11.380  22.942  0.00  0.00    +0.000 F 
ATOM     16  C   UNL     1      -0.574  10.700  20.827  0.00  0.00    +0.000 A 
ATOM     17  C   UNL     1       0.211   9.837  20.050  0.00  0.00    +0.000 A 
ATOM     18 CL   UNL     1       0.128  10.067  18.335  0.00  0.00    +0.000 Cl
ENDBRANCH   6  10
BRANCH   1  22
ATOM     19  C   UNL     1       6.463   3.893  14.622  0.00  0.00    +0.000 C 
ATOM     20  C   UNL     1       6.092   4.377  15.999  0.00  0.00    +0.000 C 
ATOM     21  O   UNL     1       6.955   4.560  16.849  0.00  0.00    +0.000 OA
ATOM     22  N   UNL     1       4.729   4.569  16.146  0.00  0.00    +0.000 N 
ATOM     23  H   UNL     1       4.138   4.240  15.392  0.00  0.00    +0.000 HD
ENDBRANCH   1  22
TORSDOF 2
ENDMDL
MODEL 4
REMARK VINA RESULT:      -7.7      1.181      1.602
REMARK  Name = 
REMARK  3 active torsions:
REMARK  status: ('A' for Active; 'I' for Inactive)
REMARK    1  A    between atoms: C_1  and  C_2
REMARK    2  A    between atoms: N_4  and  C_5
REMARK    3  A    between atoms: C_10  and  C_11
REMARK                            x       y       z     vdW  Elec       q    Type
REMARK                         _______ _______ _______ _____ _____    ______ ____
ROOT
ATOM      1  C   UNL     1       0.422  10.234  20.343  0.00  0.00    +0.000 A 
ATOM      2  C   UNL     1       0.503   9.287  21.378  0.00  0.00    +0.000 A 
ATOM      3  C   UNL     1       1.181   8.069  21.224  0.00  0.00    +0.000 A 
ATOM      4  C   UNL     1       1.778   7.870  19.990  0.00  0.00    +0.000 A 
ATOM      5  O   UNL     1       2.540   6.811  19.602  0.00  0.00    +0.000 OA
ATOM      6  C   UNL     1       2.922   7.128  18.319  0.00  0.00    +0.000 A 
ATOM      7  N   UNL     1       2.415   8.259  17.866  0.00  0.00    +0.000 NA
ATOM      8  C   UNL     1       1.704   8.755  18.930  0.00  0.00    +0.000 A 
ATOM      9  C   UNL     1       0.992   9.954  19.087  0.00  0.00    +0.000 A 
ENDROOT
BRANCH   6  10
ATOM     10  C   UNL     1       3.835   6.180  17.682  0.00  0.00    +0.000 A 
ATOM     11  C   UNL     1       5.140   6.598  17.355  0.00  0.00    +0.000 A 
ATOM     12  C   UNL     1       6.033   5.722  16.746  0.00  0.00    +0.000 A 
ATOM     13  F   UNL     1       7.268   6.146  16.446  0.00  0.00    +0.000 F 
ATOM     14  C   UNL     1       5.651   4.422  16.450  0.00  0.00    +0.000 A 
ATOM     15  F   UNL     1       6.511   3.582  15.862  0.00  0.00    +0.000 F 
ATOM     16  C   UNL     1       4.370   3.984  16.755  0.00  0.00    +0.000 A 
ATOM     17  C   UNL     1       3.462   4.858  17.368  0.00  0.00    +0.000 A 
ATOM     18 CL   UNL     1       1.873   4.230  17.654  0.00  0.00    +0.000 Cl
ENDBRANCH   6  10
BRANCH   1  22
ATOM     19  C   UNL     1      -0.560  13.820  20.988  0.00  0.00    +0.000 C 
ATOM     20  C   UNL     1       0.399  12.660  20.934  0.00  0.00    +0.000 C 
ATOM     21  O   UNL     1       1.573  12.807  21.254  0.00  0.00    +0.000 OA
ATOM     22  N   UNL     1      -0.203  11.492  20.499  0.00  0.00    +0.000 N 
ATOM     23  H   UNL     1      -1.147  11.572  20.143  0.00  0.00    +0.000 HD
ENDBRANCH   1  22
TORSDOF 2
ENDMDL
MODEL 5
REMARK VINA RESULT:      -7.5      1.540      1.883
REMARK  Name = 
REMARK  3 active torsions:
REMARK  status: ('A' for Active; 'I' for Inactive)
REMARK    1  A    between atoms: C_1  and  C_2
REMARK    2  A    between atoms: N_4  and  C_5
REMARK    3  A    between atoms: C_10  and  C_11
REMARK                            x       y       z     vdW  Elec       q    Type
REMARK                         _______ _______ _______ _____ _____    ______ ____
ROOT
ATOM      1  C   UNL     1       0.362  10.146  20.277  0.00  0.00    +0.000 A 
ATOM      2  C   UNL     1       0.495   9.224  21.328  0.00  0.00    +0.000 A 
ATOM      3  C   UNL     1       1.234   8.040  21.193  0.00  0.00    +0.000 A 
ATOM      4  C   UNL     1       1.836   7.849  19.960  0.00  0.00    +0.000 A 
ATOM      5  O   UNL     1       2.650   6.823  19.587  0.00  0.00    +0.000 OA
ATOM      6  C   UNL     1       3.010   7.136  18.297  0.00  0.00    +0.000 A 
ATOM      7  N   UNL     1       2.443   8.231  17.826  0.00  0.00    +0.000 NA
ATOM      8  C   UNL     1       1.713   8.709  18.885  0.00  0.00    +0.000 A 
ATOM      9  C   UNL     1       0.941   9.872  19.023  0.00  0.00    +0.000 A 
ENDROOT
BRANCH   6  10
ATOM     10  C   UNL     1       3.968   6.224  17.673  0.00  0.00    +0.000 A 
ATOM     11  C   UNL     1       5.260   6.693  17.363  0.00  0.00    +0.000 A 
ATOM     12  C   UNL     1       6.195   5.853  16.767  0.00  0.00    +0.000 A 
ATOM     13  F   UNL     1       7.416   6.326  16.483  0.00  0.00    +0.000 F 
ATOM     14  C   UNL     1       5.868   4.539  16.467  0.00  0.00    +0.000 A 
ATOM     15  F   UNL     1       6.768   3.733  15.891  0.00  0.00    +0.000 F 
ATOM     16  C   UNL     1       4.601   4.050  16.755  0.00  0.00    +0.000 A 
ATOM     17  C   UNL     1       3.652   4.888  17.355  0.00  0.00    +0.000 A 
ATOM     18 CL   UNL     1       2.085   4.199  17.621  0.00  0.00    +0.000 Cl
ENDBRANCH   6  10
BRANCH   1  22
ATOM     19  C   UNL     1      -1.930  13.140  20.102  0.00  0.00    +0.000 C 
ATOM     20  C   UNL     1      -1.455  11.765  19.713  0.00  0.00    +0.000 C 
ATOM     21  O   UNL     1      -2.051  11.118  18.859  0.00  0.00    +0.000 OA
ATOM     22  N   UNL     1      -0.327  11.373  20.413  0.00  0.00    +0.000 N 
ATOM     23  H   UNL     1      -0.038  11.967  21.181  0.00  0.00    +0.000 HD
ENDBRANCH   1  22
TORSDOF 2
ENDMDL
MODEL 6
REMARK VINA RESULT:      -7.4      2.530      2.979
REMARK  Name = 
REMARK  3 active torsions:
REMARK  status: ('A' for Active; 'I' for Inactive)
REMARK    1  A    between atoms: C_1  and  C_2
REMARK    2  A    between atoms: N_4  and  C_5
REMARK    3  A    between atoms: C_10  and  C_11
REMARK                            x       y       z     vdW  Elec       q    Type
REMARK                         _______ _______ _______ _____ _____    ______ ____
ROOT
ATOM      1  C   UNL     1       0.859  10.493  20.148  0.00  0.00    +0.000 A 
ATOM      2  C   UNL     1       1.256  10.618  18.805  0.00  0.00    +0.000 A 
ATOM      3  C   UNL     1       1.818   9.551  18.091  0.00  0.00    +0.000 A 
ATOM      4  C   UNL     1       1.941   8.362  18.792  0.00  0.00    +0.000 A 
ATOM      5  O   UNL     1       2.395   7.168  18.321  0.00  0.00    +0.000 OA
ATOM      6  C   UNL     1       2.267   6.317  19.394  0.00  0.00    +0.000 A 
ATOM      7  N   UNL     1       1.830   6.896  20.497  0.00  0.00    +0.000 NA
ATOM      8  C   UNL     1       1.594   8.194  20.120  0.00  0.00    +0.000 A 
ATOM      9  C   UNL     1       1.065   9.281  20.832  0.00  0.00    +0.000 A 
ENDROOT
BRANCH   6  10
ATOM     10  C   UNL     1       2.613   4.920  19.133  0.00  0.00    +0.000 A 
ATOM     11  C   UNL     1       1.580   3.976  18.970  0.00  0.00    +0.000 A 
ATOM     12  C   UNL     1       1.874   2.639  18.724  0.00  0.00    +0.000 A 
ATOM     13  F   UNL     1       0.872   1.763  18.573  0.00  0.00    +0.000 F 
ATOM     14  C   UNL     1       3.191   2.214  18.636  0.00  0.00    +0.000 A 
ATOM     15  F   UNL     1       3.472   0.927  18.400  0.00  0.00    +0.000 F 
ATOM     16  C   UNL     1       4.230   3.120  18.798  0.00  0.00    +0.000 A 
ATOM     17  C   UNL     1       3.945   4.469  19.047  0.00  0.00    +0.000 A 
ATOM     18 CL   UNL     1       5.312   5.505  19.290  0.00  0.00    +0.000 Cl
ENDBRANCH   6  10
BRANCH   1  22
ATOM     19  C   UNL     1      -1.388  13.161  21.588  0.00  0.00    +0.000 C 
ATOM     20  C   UNL     1      -1.035  12.044  20.642  0.00  0.00    +0.000 C 
ATOM     21  O   UNL     1      -1.834  11.674  19.789  0.00  0.00    +0.000 OA
ATOM     22  N   UNL     1       0.234  11.539  20.865  0.00  0.00    +0.000 N 
ATOM     23  H   UNL     1       0.713  11.861  21.697  0.00  0.00    +0.000 HD
ENDBRANCH   1  22
TORSDOF 2
ENDMDL
MODEL 7
REMARK VINA RESULT:      -7.4      1.626      2.008
REMARK  Name = 
REMARK  3 active torsions:
REMARK  status: ('A' for Active; 'I' for Inactive)
REMARK    1  A    between atoms: C_1  and  C_2
REMARK    2  A    between atoms: N_4  and  C_5
REMARK    3  A    between atoms: C_10  and  C_11
REMARK                            x       y       z     vdW  Elec       q    Type
REMARK                         _______ _______ _______ _____ _____    ______ ____
ROOT
ATOM      1  C   UNL     1       0.852  10.449  19.942  0.00  0.00    +0.000 A 
ATOM      2  C   UNL     1       1.240  10.633  18.604  0.00  0.00    +0.000 A 
ATOM      3  C   UNL     1       1.832   9.610  17.850  0.00  0.00    +0.000 A 
ATOM      4  C   UNL     1       1.994   8.401  18.508  0.00  0.00    +0.000 A 
ATOM      5  O   UNL     1       2.483   7.240  17.993  0.00  0.00    +0.000 OA
ATOM      6  C   UNL     1       2.386   6.347  19.036  0.00  0.00    +0.000 A 
ATOM      7  N   UNL     1       1.935   6.873  20.159  0.00  0.00    +0.000 NA
ATOM      8  C   UNL     1       1.657   8.176  19.830  0.00  0.00    +0.000 A 
ATOM      9  C   UNL     1       1.098   9.219  20.582  0.00  0.00    +0.000 A 
ENDROOT
BRANCH   6  10
ATOM     10  C   UNL     1       2.774   4.972  18.724  0.00  0.00    +0.000 A 
ATOM     11  C   UNL     1       3.770   4.743  17.755  0.00  0.00    +0.000 A 
ATOM     12  C   UNL     1       4.160   3.447  17.432  0.00  0.00    +0.000 A 
ATOM     13  F   UNL     1       5.110   3.259  16.507  0.00  0.00    +0.000 F 
ATOM     14  C   UNL     1       3.573   2.360  18.060  0.00  0.00    +0.000 A 
ATOM     15  F   UNL     1       3.948   1.114  17.747  0.00  0.00    +0.000 F 
ATOM     16  C   UNL     1       2.584   2.554  19.015  0.00  0.00    +0.000 A 
ATOM     17  C   UNL     1       2.182   3.854  19.347  0.00  0.00    +0.000 A 
ATOM     18 CL   UNL     1       0.904   3.986  20.508  0.00  0.00    +0.000 Cl
ENDBRANCH   6  10
BRANCH   1  22
ATOM     19  C   UNL     1      -0.208  13.436  21.990  0.00  0.00    +0.000 C 
ATOM     20  C   UNL     1       0.778  12.583  21.235  0.00  0.00    +0.000 C 
ATOM     21  O   UNL     1       1.954  12.919  21.148  0.00  0.00    +0.000 OA
ATOM     22  N   UNL     1       0.198  11.448  20.698  0.00  0.00    +0.000 N 
ATOM     23  H   UNL     1      -0.812  11.387  20.743  0.00  0.00    +0.000 HD
ENDBRANCH   1  22
TORSDOF 2
ENDMDL
MODEL 8
REMARK VINA RESULT:      -7.3      2.474      2.954
REMARK  Name = 
REMARK  3 active torsions:
REMARK  status: ('A' for Active; 'I' for Inactive)
REMARK    1  A    between atoms: C_1  and  C_2
REMARK    2  A    between atoms: N_4  and  C_5
REMARK    3  A    between atoms: C_10  and  C_11
REMARK                            x       y       z     vdW  Elec       q    Type
REMARK                         _______ _______ _______ _____ _____    ______ ____
ROOT
ATOM      1  C   UNL     1       0.498  10.075  20.464  0.00  0.00    +0.000 A 
ATOM      2  C   UNL     1       1.027  10.316  19.184  0.00  0.00    +0.000 A 
ATOM      3  C   UNL     1       1.725   9.334  18.468  0.00  0.00    +0.000 A 
ATOM      4  C   UNL     1       1.845   8.106  19.099  0.00  0.00    +0.000 A 
ATOM      5  O   UNL     1       2.418   6.975  18.604  0.00  0.00    +0.000 OA
ATOM      6  C   UNL     1       2.229   6.044  19.599  0.00  0.00    +0.000 A 
ATOM      7  N   UNL     1       1.643   6.518  20.682  0.00  0.00    +0.000 NA
ATOM      8  C   UNL     1       1.370   7.826  20.367  0.00  0.00    +0.000 A 
ATOM      9  C   UNL     1       0.704   8.829  21.086  0.00  0.00    +0.000 A 
ENDROOT
BRANCH   6  10
ATOM     10  C   UNL     1       2.684   4.690  19.287  0.00  0.00    +0.000 A 
ATOM     11  C   UNL     1       1.730   3.668  19.114  0.00  0.00    +0.000 A 
ATOM     12  C   UNL     1       2.130   2.368  18.819  0.00  0.00    +0.000 A 
ATOM     13  F   UNL     1       1.201   1.416  18.660  0.00  0.00    +0.000 F 
ATOM     14  C   UNL     1       3.475   2.058  18.692  0.00  0.00    +0.000 A 
ATOM     15  F   UNL     1       3.857   0.806  18.411  0.00  0.00    +0.000 F 
ATOM     16  C   UNL     1       4.439   3.043  18.863  0.00  0.00    +0.000 A 
ATOM     17  C   UNL     1       4.048   4.355  19.161  0.00  0.00    +0.000 A 
ATOM     18 CL   UNL     1       5.328   5.494  19.410  0.00  0.00    +0.000 Cl
ENDBRANCH   6  10
BRANCH   1  22
ATOM     19  C   UNL     1      -1.345  12.212  22.968  0.00  0.00    +0.000 C 
ATOM     20  C   UNL     1      -0.486  11.052  22.540  0.00  0.00    +0.000 C 
ATOM     21  O   UNL     1      -0.066  10.249  23.366  0.00  0.00    +0.000 OA
ATOM     22  N   UNL     1      -0.261  11.032  21.175  0.00  0.00    +0.000 N 
ATOM     23  H   UNL     1      -0.564  11.843  20.651  0.00  0.00    +0.000 HD
ENDBRANCH   1  22
TORSDOF 2
ENDMDL
MODEL 9
REMARK VINA RESULT:      -7.2      1.678      2.021
REMARK  Name = 
REMARK  3 active torsions:
REMARK  status: ('A' for Active; 'I' for Inactive)
REMARK    1  A    between atoms: C_1  and  C_2
REMARK    2  A    between atoms: N_4  and  C_5
REMARK    3  A    between atoms: C_10  and  C_11
REMARK                            x       y       z     vdW  Elec       q    Type
REMARK                         _______ _______ _______ _____ _____    ______ ____
ROOT
ATOM      1  C   UNL     1       0.871  10.381  20.159  0.00  0.00    +0.000 A 
ATOM      2  C   UNL     1       1.194  10.595  18.809  0.00  0.00    +0.000 A 
ATOM      3  C   UNL     1       1.758   9.592  18.008  0.00  0.00    +0.000 A 
ATOM      4  C   UNL     1       1.959   8.372  18.633  0.00  0.00    +0.000 A 
ATOM      5  O   UNL     1       2.431   7.224  18.072  0.00  0.00    +0.000 OA
ATOM      6  C   UNL     1       2.388   6.311  19.100  0.00  0.00    +0.000 A 
ATOM      7  N   UNL     1       1.987   6.810  20.254  0.00  0.00    +0.000 NA
ATOM      8  C   UNL     1       1.685   8.117  19.964  0.00  0.00    +0.000 A 
ATOM      9  C   UNL     1       1.155   9.141  20.762  0.00  0.00    +0.000 A 
ENDROOT
BRANCH   6  10
ATOM     10  C   UNL     1       2.771   4.945  18.743  0.00  0.00    +0.000 A 
ATOM     11  C   UNL     1       3.770   4.744  17.770  0.00  0.00    +0.000 A 
ATOM     12  C   UNL     1       4.155   3.458  17.405  0.00  0.00    +0.000 A 
ATOM     13  F   UNL     1       5.108   3.297  16.477  0.00  0.00    +0.000 F 
ATOM     14  C   UNL     1       3.559   2.353  17.992  0.00  0.00    +0.000 A 
ATOM     15  F   UNL     1       3.930   1.116  17.638  0.00  0.00    +0.000 F 
ATOM     16  C   UNL     1       2.567   2.519  18.949  0.00  0.00    +0.000 A 
ATOM     17  C   UNL     1       2.171   3.810  19.324  0.00  0.00    +0.000 A 
ATOM     18 CL   UNL     1       0.888   3.907  20.483  0.00  0.00    +0.000 Cl
ENDBRANCH   6  10
BRANCH   1  22
ATOM     19  C   UNL     1      -1.374  12.917  21.824  0.00  0.00    +0.000 C 
ATOM     20  C   UNL     1      -1.020  11.889  20.782  0.00  0.00    +0.000 C 
ATOM     21  O   UNL     1      -1.816  11.600  19.895  0.00  0.00    +0.000 OA
ATOM     22  N   UNL     1       0.246  11.360  20.965  0.00  0.00    +0.000 N 
ATOM     23  H   UNL     1       0.722  11.604  21.825  0.00  0.00    +0.000 HD
ENDBRANCH   1  22
TORSDOF 2
ENDMDL
