MODEL 1
REMARK VINA RESULT:      -7.3      0.000      0.000
REMARK  Name = 
REMARK  5 active torsions:
REMARK  status: ('A' for Active; 'I' for Inactive)
REMARK    1  A    between atoms: C_1  and  C_2
REMARK    2  A    between atoms: C_2  and  N_3
REMARK    3  A    between atoms: C_2  and  C_15
REMARK    4  A    between atoms: N_3  and  C_4
REMARK    5  A    between atoms: C_7  and  C_8
REMARK                            x       y       z     vdW  Elec       q    Type
REMARK                         _______ _______ _______ _____ _____    ______ ____
ROOT
ATOM      1  C   UNL     1       4.416   5.348  18.870  0.00  0.00    +0.000 A 
ATOM      2  N   UNL     1       4.762   4.140  19.368  0.00  0.00    +0.000 NA
ATOM      3  C   UNL     1       3.775   3.275  19.708  0.00  0.00    +0.000 A 
ATOM      4  C   UNL     1       2.422   3.570  19.630  0.00  0.00    +0.000 A 
ATOM      5  C   UNL     1       2.071   4.834  19.155  0.00  0.00    +0.000 A 
ATOM      6  C   UNL     1       3.067   5.720  18.742  0.00  0.00    +0.000 A 
ATOM      7 CL   UNL     1       2.591   7.254  18.117  0.00  0.00    +0.000 Cl
ENDROOT
BRANCH   4   8
ATOM      8  C   UNL     1       1.394   2.565  20.041  0.00  0.00    +0.000 C 
ATOM      9  F   UNL     1       1.589   1.333  19.495  0.00  0.00    +0.000 F 
ATOM     10  F   UNL     1       1.362   2.377  21.388  0.00  0.00    +0.000 F 
ATOM     11  F   UNL     1       0.133   2.935  19.684  0.00  0.00    +0.000 F 
ENDBRANCH   4   8
BRANCH   1  12
ATOM     12  N   UNL     1       5.428   6.232  18.481  0.00  0.00    +0.000 N 
ATOM     13  H   UNL     1       5.022   7.104  18.147  0.00  0.00    +0.000 HD
BRANCH  12  15
ATOM     14  C   UNL     1       7.706   6.644  17.855  0.00  0.00    +0.000 C 
ATOM     15  C   UNL     1       6.489   5.737  17.596  0.00  0.00    +0.000 C 
BRANCH  15  16
ATOM     16  C   UNL     1       6.057   5.746  16.108  0.00  0.00    +0.000 C 
ATOM     17  C   UNL     1       5.271   4.500  15.694  0.00  0.00    +0.000 C 
ATOM     18  C   UNL     1       5.798   4.189  14.318  0.00  0.00    +0.000 C 
ATOM     19  C   UNL     1       7.221   4.689  14.382  0.00  0.00    +0.000 C 
ATOM     20  O   UNL     1       7.213   5.830  15.244  0.00  0.00    +0.000 OA
ENDBRANCH  15  16
ENDBRANCH  12  15
ENDBRANCH   1  12
TORSDOF 4
ENDMDL
MODEL 2
REMARK VINA RESULT:      -7.2      1.094      1.442
REMARK  Name = 
REMARK  5 active torsions:
REMARK  status: ('A' for Active; 'I' for Inactive)
REMARK    1  A    between atoms: C_1  and  C_2
REMARK    2  A    between atoms: C_2  and  N_3
REMARK    3  A    between atoms: C_2  and  C_15
REMARK    4  A    between atoms: N_3  and  C_4
REMARK    5  A    between atoms: C_7  and  C_8
REMARK                            x       y       z     vdW  Elec       q    Type
REMARK                         _______ _______ _______ _____ _____    ______ ____
ROOT
ATOM      1  C   UNL     1       4.395   5.999  18.381  0.00  0.00    +0.000 A 
ATOM      2  N   UNL     1       4.837   4.823  18.879  0.00  0.00    +0.000 NA
ATOM      3  C   UNL     1       3.977   4.061  19.598  0.00  0.00    +0.000 A 
ATOM      4  C   UNL     1       2.677   4.437  19.905  0.00  0.00    +0.000 A 
ATOM      5  C   UNL     1       2.238   5.670  19.424  0.00  0.00    +0.000 A 
ATOM      6  C   UNL     1       3.086   6.445  18.631  0.00  0.00    +0.000 A 
ATOM      7 CL   UNL     1       2.491   7.942  18.016  0.00  0.00    +0.000 Cl
ENDROOT
BRANCH   4   8
ATOM      8  C   UNL     1       1.795   3.545  20.720  0.00  0.00    +0.000 C 
ATOM      9  F   UNL     1       0.469   3.825  20.589  0.00  0.00    +0.000 F 
ATOM     10  F   UNL     1       1.936   2.233  20.389  0.00  0.00    +0.000 F 
ATOM     11  F   UNL     1       2.063   3.627  22.052  0.00  0.00    +0.000 F 
ENDBRANCH   4   8
BRANCH   1  12
ATOM     12  N   UNL     1       5.264   6.774  17.606  0.00  0.00    +0.000 N 
ATOM     13  H   UNL     1       4.818   7.027  16.726  0.00  0.00    +0.000 HD
BRANCH  12  15
ATOM     14  C   UNL     1       7.532   7.552  17.550  0.00  0.00    +0.000 C 
ATOM     15  C   UNL     1       6.642   6.303  17.417  0.00  0.00    +0.000 C 
BRANCH  15  16
ATOM     16  C   UNL     1       6.832   5.591  16.054  0.00  0.00    +0.000 C 
ATOM     17  C   UNL     1       5.641   5.759  15.107  0.00  0.00    +0.000 C 
ATOM     18  C   UNL     1       5.507   4.404  14.463  0.00  0.00    +0.000 C 
ATOM     19  C   UNL     1       6.005   3.470  15.538  0.00  0.00    +0.000 C 
ATOM     20  O   UNL     1       7.030   4.172  16.246  0.00  0.00    +0.000 OA
ENDBRANCH  15  16
ENDBRANCH  12  15
ENDBRANCH   1  12
TORSDOF 4
ENDMDL
MODEL 3
REMARK VINA RESULT:      -7.2      0.674      1.127
REMARK  Name = 
REMARK  5 active torsions:
REMARK  status: ('A' for Active; 'I' for Inactive)
REMARK    1  A    between atoms: C_1  and  C_2
REMARK    2  A    between atoms: C_2  and  N_3
REMARK    3  A    between atoms: C_2  and  C_15
REMARK    4  A    between atoms: N_3  and  C_4
REMARK    5  A    between atoms: C_7  and  C_8
REMARK                            x       y       z     vdW  Elec       q    Type
REMARK                         _______ _______ _______ _____ _____    ______ ____
ROOT
ATOM      1  C   UNL     1       4.514   5.268  19.040  0.00  0.00    +0.000 A 
ATOM      2  N   UNL     1       4.795   4.011  19.450  0.00  0.00    +0.000 NA
ATOM      3  C   UNL     1       3.765   3.184  19.753  0.00  0.00    +0.000 A 
ATOM      4  C   UNL     1       2.430   3.562  19.720  0.00  0.00    +0.000 A 
ATOM      5  C   UNL     1       2.147   4.873  19.336  0.00  0.00    +0.000 A 
ATOM      6  C   UNL     1       3.187   5.725  18.963  0.00  0.00    +0.000 A 
ATOM      7 CL   UNL     1       2.792   7.323  18.450  0.00  0.00    +0.000 Cl
ENDROOT
BRANCH   4   8
ATOM      8  C   UNL     1       1.352   2.593  20.085  0.00  0.00    +0.000 C 
ATOM      9  F   UNL     1       1.223   2.401  21.427  0.00  0.00    +0.000 F 
ATOM     10  F   UNL     1       0.127   2.988  19.644  0.00  0.00    +0.000 F 
ATOM     11  F   UNL     1       1.562   1.357  19.552  0.00  0.00    +0.000 F 
ENDBRANCH   4   8
BRANCH   1  12
ATOM     12  N   UNL     1       5.570   6.116  18.690  0.00  0.00    +0.000 N 
ATOM     13  H   UNL     1       5.224   6.894  18.130  0.00  0.00    +0.000 HD
BRANCH  12  15
ATOM     14  C   UNL     1       7.958   6.163  18.894  0.00  0.00    +0.000 C 
ATOM     15  C   UNL     1       6.788   5.523  18.126  0.00  0.00    +0.000 C 
BRANCH  15  16
ATOM     16  C   UNL     1       6.894   5.753  16.598  0.00  0.00    +0.000 C 
ATOM     17  C   UNL     1       5.539   5.951  15.915  0.00  0.00    +0.000 C 
ATOM     18  C   UNL     1       5.679   5.193  14.622  0.00  0.00    +0.000 C 
ATOM     19  C   UNL     1       6.639   4.085  14.984  0.00  0.00    +0.000 C 
ATOM     20  O   UNL     1       7.535   4.626  15.958  0.00  0.00    +0.000 OA
ENDBRANCH  15  16
ENDBRANCH  12  15
ENDBRANCH   1  12
TORSDOF 4
ENDMDL
MODEL 4
REMARK VINA RESULT:      -7.1      3.723      5.832
REMARK  Name = 
REMARK  5 active torsions:
REMARK  status: ('A' for Active; 'I' for Inactive)
REMARK    1  A    between atoms: C_1  and  C_2
REMARK    2  A    between atoms: C_2  and  N_3
REMARK    3  A    between atoms: C_2  and  C_15
REMARK    4  A    between atoms: N_3  and  C_4
REMARK    5  A    between atoms: C_7  and  C_8
REMARK                            x       y       z     vdW  Elec       q    Type
REMARK                         _______ _______ _______ _____ _____    ______ ____
ROOT
ATOM      1  C   UNL     1       4.064   5.602  18.933  0.00  0.00    +0.000 A 
ATOM      2  N   UNL     1       4.780   4.456  18.932  0.00  0.00    +0.000 NA
ATOM      3  C   UNL     1       5.499   4.144  17.827  0.00  0.00    +0.000 A 
ATOM      4  C   UNL     1       5.507   4.903  16.665  0.00  0.00    +0.000 A 
ATOM      5  C   UNL     1       4.734   6.064  16.656  0.00  0.00    +0.000 A 
ATOM      6  C   UNL     1       4.032   6.437  17.802  0.00  0.00    +0.000 A 
ATOM      7 CL   UNL     1       3.124   7.903  17.766  0.00  0.00    +0.000 Cl
ENDROOT
BRANCH   4   8
ATOM      8  C   UNL     1       6.317   4.481  15.481  0.00  0.00    +0.000 C 
ATOM      9  F   UNL     1       7.660   4.503  15.704  0.00  0.00    +0.000 F 
ATOM     10  F   UNL     1       6.025   3.215  15.077  0.00  0.00    +0.000 F 
ATOM     11  F   UNL     1       6.107   5.278  14.397  0.00  0.00    +0.000 F 
ENDBRANCH   4   8
BRANCH   1  12
ATOM     12  N   UNL     1       3.348   5.951  20.083  0.00  0.00    +0.000 N 
ATOM     13  H   UNL     1       3.704   5.437  20.887  0.00  0.00    +0.000 HD
BRANCH  12  15
ATOM     14  C   UNL     1       1.426   7.167  20.842  0.00  0.00    +0.000 C 
ATOM     15  C   UNL     1       1.881   5.946  20.023  0.00  0.00    +0.000 C 
BRANCH  15  16
ATOM     16  C   UNL     1       1.282   4.623  20.561  0.00  0.00    +0.000 C 
ATOM     17  C   UNL     1       2.190   3.903  21.560  0.00  0.00    +0.000 C 
ATOM     18  C   UNL     1       2.038   2.450  21.195  0.00  0.00    +0.000 C 
ATOM     19  C   UNL     1       1.767   2.503  19.711  0.00  0.00    +0.000 C 
ATOM     20  O   UNL     1       1.025   3.703  19.475  0.00  0.00    +0.000 OA
ENDBRANCH  15  16
ENDBRANCH  12  15
ENDBRANCH   1  12
TORSDOF 4
ENDMDL
MODEL 5
REMARK VINA RESULT:      -7.1      1.354      1.884
REMARK  Name = 
REMARK  5 active torsions:
REMARK  status: ('A' for Active; 'I' for Inactive)
REMARK    1  A    between atoms: C_1  and  C_2
REMARK    2  A    between atoms: C_2  and  N_3
REMARK    3  A    between atoms: C_2  and  C_15
REMARK    4  A    between atoms: N_3  and  C_4
REMARK    5  A    between atoms: C_7  and  C_8
REMARK                            x       y       z     vdW  Elec       q    Type
REMARK                         _______ _______ _______ _____ _____    ______ ____
ROOT
ATOM      1  C   UNL     1       4.135   4.877  17.379  0.00  0.00    +0.000 A 
ATOM      2  N   UNL     1       4.093   3.535  17.535  0.00  0.00    +0.000 NA
ATOM      3  C   UNL     1       3.087   3.001  18.271  0.00  0.00    +0.000 A 
ATOM      4  C   UNL     1       2.121   3.752  18.925  0.00  0.00    +0.000 A 
ATOM      5  C   UNL     1       2.193   5.138  18.796  0.00  0.00    +0.000 A 
ATOM      6  C   UNL     1       3.184   5.708  17.996  0.00  0.00    +0.000 A 
ATOM      7 CL   UNL     1       3.213   7.423  17.823  0.00  0.00    +0.000 Cl
ENDROOT
BRANCH   4   8
ATOM      8  C   UNL     1       1.052   3.086  19.732  0.00  0.00    +0.000 C 
ATOM      9  F   UNL     1       0.313   3.954  20.477  0.00  0.00    +0.000 F 
ATOM     10  F   UNL     1       0.164   2.406  18.958  0.00  0.00    +0.000 F 
ATOM     11  F   UNL     1       1.556   2.177  20.612  0.00  0.00    +0.000 F 
ENDBRANCH   4   8
BRANCH   1  12
ATOM     12  N   UNL     1       5.148   5.433  16.591  0.00  0.00    +0.000 N 
ATOM     13  H   UNL     1       4.776   6.198  16.030  0.00  0.00    +0.000 HD
BRANCH  12  15
ATOM     14  C   UNL     1       7.400   4.622  16.441  0.00  0.00    +0.000 C 
ATOM     15  C   UNL     1       6.000   4.531  15.807  0.00  0.00    +0.000 C 
BRANCH  15  16
ATOM     16  C   UNL     1       6.012   4.903  14.303  0.00  0.00    +0.000 C 
ATOM     17  C   UNL     1       5.909   3.692  13.374  0.00  0.00    +0.000 C 
ATOM     18  C   UNL     1       6.862   4.021  12.255  0.00  0.00    +0.000 C 
ATOM     19  C   UNL     1       7.909   4.864  12.941  0.00  0.00    +0.000 C 
ATOM     20  O   UNL     1       7.232   5.602  13.963  0.00  0.00    +0.000 OA
ENDBRANCH  15  16
ENDBRANCH  12  15
ENDBRANCH   1  12
TORSDOF 4
ENDMDL
MODEL 6
REMARK VINA RESULT:      -7.0      2.185      3.294
REMARK  Name = 
REMARK  5 active torsions:
REMARK  status: ('A' for Active; 'I' for Inactive)
REMARK    1  A    between atoms: C_1  and  C_2
REMARK    2  A    between atoms: C_2  and  N_3
REMARK    3  A    between atoms: C_2  and  C_15
REMARK    4  A    between atoms: N_3  and  C_4
REMARK    5  A    between atoms: C_7  and  C_8
REMARK                            x       y       z     vdW  Elec       q    Type
REMARK                         _______ _______ _______ _____ _____    ______ ____
ROOT
ATOM      1  C   UNL     1       4.304   3.767  17.489  0.00  0.00    +0.000 A 
ATOM      2  N   UNL     1       3.984   5.059  17.722  0.00  0.00    +0.000 NA
ATOM      3  C   UNL     1       3.125   5.340  18.732  0.00  0.00    +0.000 A 
ATOM      4  C   UNL     1       2.505   4.377  19.516  0.00  0.00    +0.000 A 
ATOM      5  C   UNL     1       2.807   3.043  19.244  0.00  0.00    +0.000 A 
ATOM      6  C   UNL     1       3.734   2.731  18.249  0.00  0.00    +0.000 A 
ATOM      7 CL   UNL     1       4.115   1.072  17.975  0.00  0.00    +0.000 Cl
ENDROOT
BRANCH   4   8
ATOM      8  C   UNL     1       1.556   4.770  20.602  0.00  0.00    +0.000 C 
ATOM      9  F   UNL     1       1.426   6.117  20.751  0.00  0.00    +0.000 F 
ATOM     10  F   UNL     1       0.299   4.294  20.390  0.00  0.00    +0.000 F 
ATOM     11  F   UNL     1       1.936   4.296  21.820  0.00  0.00    +0.000 F 
ENDBRANCH   4   8
BRANCH   1  12
ATOM     12  N   UNL     1       5.219   3.470  16.473  0.00  0.00    +0.000 N 
ATOM     13  H   UNL     1       5.951   2.857  16.828  0.00  0.00    +0.000 HD
BRANCH  12  15
ATOM     14  C   UNL     1       5.977   4.001  14.261  0.00  0.00    +0.000 C 
ATOM     15  C   UNL     1       5.758   4.576  15.672  0.00  0.00    +0.000 C 
BRANCH  15  16
ATOM     16  C   UNL     1       7.062   5.152  16.279  0.00  0.00    +0.000 C 
ATOM     17  C   UNL     1       7.375   4.613  17.676  0.00  0.00    +0.000 C 
ATOM     18  C   UNL     1       7.891   5.820  18.414  0.00  0.00    +0.000 C 
ATOM     19  C   UNL     1       7.153   6.959  17.754  0.00  0.00    +0.000 C 
ATOM     20  O   UNL     1       6.980   6.592  16.383  0.00  0.00    +0.000 OA
ENDBRANCH  15  16
ENDBRANCH  12  15
ENDBRANCH   1  12
TORSDOF 4
ENDMDL
MODEL 7
REMARK VINA RESULT:      -7.0      1.350      2.697
REMARK  Name = 
REMARK  5 active torsions:
REMARK  status: ('A' for Active; 'I' for Inactive)
REMARK    1  A    between atoms: C_1  and  C_2
REMARK    2  A    between atoms: C_2  and  N_3
REMARK    3  A    between atoms: C_2  and  C_15
REMARK    4  A    between atoms: N_3  and  C_4
REMARK    5  A    between atoms: C_7  and  C_8
REMARK                            x       y       z     vdW  Elec       q    Type
REMARK                         _______ _______ _______ _____ _____    ______ ____
ROOT
ATOM      1  C   UNL     1       4.895   3.887  18.861  0.00  0.00    +0.000 A 
ATOM      2  N   UNL     1       4.578   2.754  19.526  0.00  0.00    +0.000 NA
ATOM      3  C   UNL     1       3.311   2.604  19.982  0.00  0.00    +0.000 A 
ATOM      4  C   UNL     1       2.322   3.570  19.859  0.00  0.00    +0.000 A 
ATOM      5  C   UNL     1       2.665   4.756  19.209  0.00  0.00    +0.000 A 
ATOM      6  C   UNL     1       3.946   4.909  18.678  0.00  0.00    +0.000 A 
ATOM      7 CL   UNL     1       4.317   6.370  17.841  0.00  0.00    +0.000 Cl
ENDROOT
BRANCH   4   8
ATOM      8  C   UNL     1       0.950   3.334  20.405  0.00  0.00    +0.000 C 
ATOM      9  F   UNL     1       0.246   4.480  20.622  0.00  0.00    +0.000 F 
ATOM     10  F   UNL     1       0.184   2.576  19.575  0.00  0.00    +0.000 F 
ATOM     11  F   UNL     1       0.972   2.680  21.599  0.00  0.00    +0.000 F 
ENDBRANCH   4   8
BRANCH   1  12
ATOM     12  N   UNL     1       6.190   4.034  18.354  0.00  0.00    +0.000 N 
ATOM     13  H   UNL     1       6.844   4.222  19.112  0.00  0.00    +0.000 HD
BRANCH  12  15
ATOM     14  C   UNL     1       6.494   4.007  15.976  0.00  0.00    +0.000 C 
ATOM     15  C   UNL     1       6.396   4.926  17.207  0.00  0.00    +0.000 C 
BRANCH  15  16
ATOM     16  C   UNL     1       7.655   5.813  17.378  0.00  0.00    +0.000 C 
ATOM     17  C   UNL     1       7.886   6.273  18.819  0.00  0.00    +0.000 C 
ATOM     18  C   UNL     1       8.345   7.699  18.666  0.00  0.00    +0.000 C 
ATOM     19  C   UNL     1       7.639   8.147  17.409  0.00  0.00    +0.000 C 
ATOM     20  O   UNL     1       7.554   7.000  16.559  0.00  0.00    +0.000 OA
ENDBRANCH  15  16
ENDBRANCH  12  15
ENDBRANCH   1  12
TORSDOF 4
ENDMDL
MODEL 8
REMARK VINA RESULT:      -7.0      4.388      6.389
REMARK  Name = 
REMARK  5 active torsions:
REMARK  status: ('A' for Active; 'I' for Inactive)
REMARK    1  A    between atoms: C_1  and  C_2
REMARK    2  A    between atoms: C_2  and  N_3
REMARK    3  A    between atoms: C_2  and  C_15
REMARK    4  A    between atoms: N_3  and  C_4
REMARK    5  A    between atoms: C_7  and  C_8
REMARK                            x       y       z     vdW  Elec       q    Type
REMARK                         _______ _______ _______ _____ _____    ______ ____
ROOT
ATOM      1  C   UNL     1       2.029   6.447  20.001  0.00  0.00    +0.000 A 
ATOM      2  N   UNL     1       1.375   5.535  20.754  0.00  0.00    +0.000 NA
ATOM      3  C   UNL     1       1.274   4.265  20.289  0.00  0.00    +0.000 A 
ATOM      4  C   UNL     1       1.755   3.849  19.056  0.00  0.00    +0.000 A 
ATOM      5  C   UNL     1       2.393   4.804  18.264  0.00  0.00    +0.000 A 
ATOM      6  C   UNL     1       2.561   6.102  18.746  0.00  0.00    +0.000 A 
ATOM      7 CL   UNL     1       3.395   7.242  17.757  0.00  0.00    +0.000 Cl
ENDROOT
BRANCH   4   8
ATOM      8  C   UNL     1       1.589   2.432  18.609  0.00  0.00    +0.000 C 
ATOM      9  F   UNL     1       2.177   1.527  19.439  0.00  0.00    +0.000 F 
ATOM     10  F   UNL     1       0.282   2.065  18.520  0.00  0.00    +0.000 F 
ATOM     11  F   UNL     1       2.125   2.210  17.377  0.00  0.00    +0.000 F 
ENDBRANCH   4   8
BRANCH   1  12
ATOM     12  N   UNL     1       2.170   7.750  20.489  0.00  0.00    +0.000 N 
ATOM     13  H   UNL     1       2.652   7.737  21.386  0.00  0.00    +0.000 HD
BRANCH  12  15
ATOM     14  C   UNL     1       1.151   9.557  19.288  0.00  0.00    +0.000 C 
ATOM     15  C   UNL     1       0.992   8.624  20.502  0.00  0.00    +0.000 C 
BRANCH  15  16
ATOM     16  C   UNL     1       0.864   9.409  21.832  0.00  0.00    +0.000 C 
ATOM     17  C   UNL     1      -0.420   9.096  22.604  0.00  0.00    +0.000 C 
ATOM     18  C   UNL     1      -0.849  10.437  23.137  0.00  0.00    +0.000 C 
ATOM     19  C   UNL     1      -0.335  11.395  22.090  0.00  0.00    +0.000 C 
ATOM     20  O   UNL     1       0.878  10.833  21.584  0.00  0.00    +0.000 OA
ENDBRANCH  15  16
ENDBRANCH  12  15
ENDBRANCH   1  12
TORSDOF 4
ENDMDL
MODEL 9
REMARK VINA RESULT:      -7.0      1.356      1.632
REMARK  Name = 
REMARK  5 active torsions:
REMARK  status: ('A' for Active; 'I' for Inactive)
REMARK    1  A    between atoms: C_1  and  C_2
REMARK    2  A    between atoms: C_2  and  N_3
REMARK    3  A    between atoms: C_2  and  C_15
REMARK    4  A    between atoms: N_3  and  C_4
REMARK    5  A    between atoms: C_7  and  C_8
REMARK                            x       y       z     vdW  Elec       q    Type
REMARK                         _______ _______ _______ _____ _____    ______ ____
ROOT
ATOM      1  C   UNL     1       4.067   4.967  17.292  0.00  0.00    +0.000 A 
ATOM      2  N   UNL     1       4.034   3.621  17.406  0.00  0.00    +0.000 NA
ATOM      3  C   UNL     1       3.048   3.060  18.148  0.00  0.00    +0.000 A 
ATOM      4  C   UNL     1       2.094   3.785  18.849  0.00  0.00    +0.000 A 
ATOM      5  C   UNL     1       2.158   5.175  18.761  0.00  0.00    +0.000 A 
ATOM      6  C   UNL     1       3.127   5.775  17.956  0.00  0.00    +0.000 A 
ATOM      7 CL   UNL     1       3.144   7.495  17.836  0.00  0.00    +0.000 Cl
ENDROOT
BRANCH   4   8
ATOM      8  C   UNL     1       1.048   3.090  19.659  0.00  0.00    +0.000 C 
ATOM      9  F   UNL     1       1.557   2.205  20.561  0.00  0.00    +0.000 F 
ATOM     10  F   UNL     1       0.284   3.958  20.376  0.00  0.00    +0.000 F 
ATOM     11  F   UNL     1       0.182   2.377  18.887  0.00  0.00    +0.000 F 
ENDBRANCH   4   8
BRANCH   1  12
ATOM     12  N   UNL     1       5.059   5.553  16.497  0.00  0.00    +0.000 N 
ATOM     13  H   UNL     1       4.797   5.501  15.515  0.00  0.00    +0.000 HD
BRANCH  12  15
ATOM     14  C   UNL     1       7.201   6.466  17.070  0.00  0.00    +0.000 C 
ATOM     15  C   UNL     1       6.456   5.164  16.722  0.00  0.00    +0.000 C 
BRANCH  15  16
ATOM     16  C   UNL     1       7.067   4.451  15.490  0.00  0.00    +0.000 C 
ATOM     17  C   UNL     1       7.397   5.401  14.337  0.00  0.00    +0.000 C 
ATOM     18  C   UNL     1       6.993   4.624  13.111  0.00  0.00    +0.000 C 
ATOM     19  C   UNL     1       5.856   3.769  13.615  0.00  0.00    +0.000 C 
ATOM     20  O   UNL     1       6.156   3.453  14.977  0.00  0.00    +0.000 OA
ENDBRANCH  15  16
ENDBRANCH  12  15
ENDBRANCH   1  12
TORSDOF 4
ENDMDL
