MODEL 1
REMARK VINA RESULT:      -8.4      0.000      0.000
REMARK  Name = 
REMARK  5 active torsions:
REMARK  status: ('A' for Active; 'I' for Inactive)
REMARK    1  A    between atoms: C_1  and  O_2
REMARK    2  A    between atoms: O_2  and  C_3
REMARK    3  A    between atoms: C_6  and  C_7
REMARK    4  A    between atoms: C_9  and  C_10
REMARK    5  A    between atoms: C_22  and  C_23
REMARK                            x       y       z     vdW  Elec       q    Type
REMARK                         _______ _______ _______ _____ _____    ______ ____
ROOT
ATOM      1  C   UNL     1       0.470  10.164  19.007  0.00  0.00    +0.000 C 
ATOM      2  C   UNL     1       1.240   9.207  18.110  0.00  0.00    +0.000 C 
ATOM      3  C   UNL     1       1.849   8.276  19.138  0.00  0.00    +0.000 C 
ATOM      4  N   UNL     1       1.540   8.549  20.369  0.00  0.00    +0.000 NA
ATOM      5  N   UNL     1       0.699   9.633  20.346  0.00  0.00    +0.000 N 
ATOM      6  C   UNL     1      -0.024  10.054  21.448  0.00  0.00    +0.000 C 
ATOM      7  C   UNL     1       0.265   9.366  22.758  0.00  0.00    +0.000 C 
ATOM      8  O   UNL     1      -0.859  10.959  21.395  0.00  0.00    +0.000 OA
ENDROOT
BRANCH   3   9
ATOM      9  C   UNL     1       2.647   7.094  18.695  0.00  0.00    +0.000 A 
ATOM     10  C   UNL     1       3.602   7.310  17.686  0.00  0.00    +0.000 A 
ATOM     11  C   UNL     1       4.256   6.238  17.087  0.00  0.00    +0.000 A 
ATOM     12  C   UNL     1       3.934   4.939  17.463  0.00  0.00    +0.000 A 
ATOM     13  C   UNL     1       2.993   4.690  18.472  0.00  0.00    +0.000 A 
ATOM     14  C   UNL     1       2.657   3.363  18.786  0.00  0.00    +0.000 A 
ATOM     15  C   UNL     1       1.747   3.069  19.797  0.00  0.00    +0.000 A 
ATOM     16  C   UNL     1       1.188   4.100  20.533  0.00  0.00    +0.000 A 
ATOM     17  C   UNL     1       1.490   5.427  20.213  0.00  0.00    +0.000 A 
ATOM     18  C   UNL     1       2.367   5.769  19.152  0.00  0.00    +0.000 A 
ENDBRANCH   3   9
BRANCH   1  22
ATOM     19  C   UNL     1       1.762  14.264  18.450  0.00  0.00    +0.000 A 
ATOM     20  C   UNL     1       0.429  13.969  18.740  0.00  0.00    +0.000 A 
ATOM     21  C   UNL     1       0.020  12.646  18.928  0.00  0.00    +0.000 A 
ATOM     22  C   UNL     1       0.942  11.594  18.814  0.00  0.00    +0.000 A 
ATOM     23  C   UNL     1       2.271  11.898  18.485  0.00  0.00    +0.000 A 
ATOM     24  C   UNL     1       2.680  13.222  18.313  0.00  0.00    +0.000 A 
BRANCH  19  26
ATOM     25  C   UNL     1       3.325  15.886  17.740  0.00  0.00    +0.000 C 
ATOM     26  O   UNL     1       2.045  15.591  18.289  0.00  0.00    +0.000 OA
ENDBRANCH  19  26
ENDBRANCH   1  22
TORSDOF 3
ENDMDL
MODEL 2
REMARK VINA RESULT:      -8.4      0.757      1.259
REMARK  Name = 
REMARK  5 active torsions:
REMARK  status: ('A' for Active; 'I' for Inactive)
REMARK    1  A    between atoms: C_1  and  O_2
REMARK    2  A    between atoms: O_2  and  C_3
REMARK    3  A    between atoms: C_6  and  C_7
REMARK    4  A    between atoms: C_9  and  C_10
REMARK    5  A    between atoms: C_22  and  C_23
REMARK                            x       y       z     vdW  Elec       q    Type
REMARK                         _______ _______ _______ _____ _____    ______ ____
ROOT
ATOM      1  C   UNL     1       0.653   9.832  18.713  0.00  0.00    +0.000 C 
ATOM      2  C   UNL     1       1.452   8.989  17.730  0.00  0.00    +0.000 C 
ATOM      3  C   UNL     1       2.169   8.048  18.676  0.00  0.00    +0.000 C 
ATOM      4  N   UNL     1       1.894   8.224  19.932  0.00  0.00    +0.000 NA
ATOM      5  N   UNL     1       0.976   9.242  20.007  0.00  0.00    +0.000 N 
ATOM      6  C   UNL     1       0.273   9.543  21.160  0.00  0.00    +0.000 C 
ATOM      7  C   UNL     1       0.666   8.804  22.413  0.00  0.00    +0.000 C 
ATOM      8  O   UNL     1      -0.626  10.386  21.194  0.00  0.00    +0.000 OA
ENDROOT
BRANCH   3   9
ATOM      9  C   UNL     1       3.030   6.956  18.131  0.00  0.00    +0.000 A 
ATOM     10  C   UNL     1       4.138   7.342  17.355  0.00  0.00    +0.000 A 
ATOM     11  C   UNL     1       4.881   6.395  16.660  0.00  0.00    +0.000 A 
ATOM     12  C   UNL     1       4.505   5.058  16.702  0.00  0.00    +0.000 A 
ATOM     13  C   UNL     1       3.411   4.639  17.473  0.00  0.00    +0.000 A 
ATOM     14  C   UNL     1       3.030   3.287  17.447  0.00  0.00    +0.000 A 
ATOM     15  C   UNL     1       1.967   2.822  18.215  0.00  0.00    +0.000 A 
ATOM     16  C   UNL     1       1.294   3.698  19.049  0.00  0.00    +0.000 A 
ATOM     17  C   UNL     1       1.643   5.052  19.064  0.00  0.00    +0.000 A 
ATOM     18  C   UNL     1       2.681   5.576  18.252  0.00  0.00    +0.000 A 
ENDBRANCH   3   9
BRANCH   1  22
ATOM     19  C   UNL     1       1.738  14.015  18.369  0.00  0.00    +0.000 A 
ATOM     20  C   UNL     1       2.704  13.016  18.253  0.00  0.00    +0.000 A 
ATOM     21  C   UNL     1       2.348  11.669  18.355  0.00  0.00    +0.000 A 
ATOM     22  C   UNL     1       1.013  11.303  18.590  0.00  0.00    +0.000 A 
ATOM     23  C   UNL     1       0.056  12.316  18.743  0.00  0.00    +0.000 A 
ATOM     24  C   UNL     1       0.413  13.661  18.625  0.00  0.00    +0.000 A 
BRANCH  19  26
ATOM     25  C   UNL     1       3.481  15.542  18.824  0.00  0.00    +0.000 C 
ATOM     26  O   UNL     1       2.203  15.295  18.251  0.00  0.00    +0.000 OA
ENDBRANCH  19  26
ENDBRANCH   1  22
TORSDOF 3
ENDMDL
MODEL 3
REMARK VINA RESULT:      -8.1      4.007      7.917
REMARK  Name = 
REMARK  5 active torsions:
REMARK  status: ('A' for Active; 'I' for Inactive)
REMARK    1  A    between atoms: C_1  and  O_2
REMARK    2  A    between atoms: O_2  and  C_3
REMARK    3  A    between atoms: C_6  and  C_7
REMARK    4  A    between atoms: C_9  and  C_10
REMARK    5  A    between atoms: C_22  and  C_23
REMARK                            x       y       z     vdW  Elec       q    Type
REMARK                         _______ _______ _______ _____ _____    ______ ____
ROOT
ATOM      1  C   UNL     1       4.236   4.454  19.058  0.00  0.00    +0.000 C 
ATOM      2  C   UNL     1       4.021   5.862  19.592  0.00  0.00    +0.000 C 
ATOM      3  C   UNL     1       2.508   5.937  19.606  0.00  0.00    +0.000 C 
ATOM      4  N   UNL     1       1.907   4.859  19.205  0.00  0.00    +0.000 NA
ATOM      5  N   UNL     1       2.880   3.939  18.904  0.00  0.00    +0.000 N 
ATOM      6  C   UNL     1       2.612   2.601  18.676  0.00  0.00    +0.000 C 
ATOM      7  C   UNL     1       1.162   2.195  18.611  0.00  0.00    +0.000 C 
ATOM      8  O   UNL     1       3.498   1.760  18.513  0.00  0.00    +0.000 OA
ENDROOT
BRANCH   3   9
ATOM      9  C   UNL     1       1.826   7.148  20.151  0.00  0.00    +0.000 A 
ATOM     10  C   UNL     1       1.115   6.995  21.355  0.00  0.00    +0.000 A 
ATOM     11  C   UNL     1       0.303   8.017  21.834  0.00  0.00    +0.000 A 
ATOM     12  C   UNL     1       0.163   9.188  21.097  0.00  0.00    +0.000 A 
ATOM     13  C   UNL     1       0.864   9.375  19.898  0.00  0.00    +0.000 A 
ATOM     14  C   UNL     1       0.655  10.550  19.156  0.00  0.00    +0.000 A 
ATOM     15  C   UNL     1       1.348  10.789  17.973  0.00  0.00    +0.000 A 
ATOM     16  C   UNL     1       2.289   9.872  17.536  0.00  0.00    +0.000 A 
ATOM     17  C   UNL     1       2.487   8.686  18.248  0.00  0.00    +0.000 A 
ATOM     18  C   UNL     1       1.759   8.378  19.426  0.00  0.00    +0.000 A 
ENDBRANCH   3   9
BRANCH   1  22
ATOM     19  C   UNL     1       6.500   4.495  15.362  0.00  0.00    +0.000 A 
ATOM     20  C   UNL     1       5.106   4.462  15.344  0.00  0.00    +0.000 A 
ATOM     21  C   UNL     1       4.381   4.458  16.539  0.00  0.00    +0.000 A 
ATOM     22  C   UNL     1       5.046   4.474  17.774  0.00  0.00    +0.000 A 
ATOM     23  C   UNL     1       6.449   4.469  17.782  0.00  0.00    +0.000 A 
ATOM     24  C   UNL     1       7.170   4.488  16.587  0.00  0.00    +0.000 A 
BRANCH  19  26
ATOM     25  C   UNL     1       6.403   3.807  13.105  0.00  0.00    +0.000 C 
ATOM     26  O   UNL     1       7.102   4.496  14.135  0.00  0.00    +0.000 OA
ENDBRANCH  19  26
ENDBRANCH   1  22
TORSDOF 3
ENDMDL
MODEL 4
REMARK VINA RESULT:      -8.0      3.856      7.760
REMARK  Name = 
REMARK  5 active torsions:
REMARK  status: ('A' for Active; 'I' for Inactive)
REMARK    1  A    between atoms: C_1  and  O_2
REMARK    2  A    between atoms: O_2  and  C_3
REMARK    3  A    between atoms: C_6  and  C_7
REMARK    4  A    between atoms: C_9  and  C_10
REMARK    5  A    between atoms: C_22  and  C_23
REMARK                            x       y       z     vdW  Elec       q    Type
REMARK                         _______ _______ _______ _____ _____    ______ ____
ROOT
ATOM      1  C   UNL     1       4.275   4.866  19.070  0.00  0.00    +0.000 C 
ATOM      2  C   UNL     1       3.967   6.238  19.649  0.00  0.00    +0.000 C 
ATOM      3  C   UNL     1       2.452   6.229  19.622  0.00  0.00    +0.000 C 
ATOM      4  N   UNL     1       1.924   5.136  19.163  0.00  0.00    +0.000 NA
ATOM      5  N   UNL     1       2.954   4.283  18.857  0.00  0.00    +0.000 N 
ATOM      6  C   UNL     1       2.769   2.942  18.573  0.00  0.00    +0.000 C 
ATOM      7  C   UNL     1       1.346   2.460  18.451  0.00  0.00    +0.000 C 
ATOM      8  O   UNL     1       3.705   2.158  18.405  0.00  0.00    +0.000 OA
ENDROOT
BRANCH   3   9
ATOM      9  C   UNL     1       1.689   7.379  20.191  0.00  0.00    +0.000 A 
ATOM     10  C   UNL     1       0.947   7.138  21.361  0.00  0.00    +0.000 A 
ATOM     11  C   UNL     1       0.066   8.095  21.851  0.00  0.00    +0.000 A 
ATOM     12  C   UNL     1      -0.112   9.287  21.159  0.00  0.00    +0.000 A 
ATOM     13  C   UNL     1       0.619   9.562  19.994  0.00  0.00    +0.000 A 
ATOM     14  C   UNL     1       0.372  10.755  19.294  0.00  0.00    +0.000 A 
ATOM     15  C   UNL     1       1.091  11.080  18.148  0.00  0.00    +0.000 A 
ATOM     16  C   UNL     1       2.094  10.233  17.708  0.00  0.00    +0.000 A 
ATOM     17  C   UNL     1       2.332   9.029  18.378  0.00  0.00    +0.000 A 
ATOM     18  C   UNL     1       1.581   8.633  19.514  0.00  0.00    +0.000 A 
ENDBRANCH   3   9
BRANCH   1  22
ATOM     19  C   UNL     1       6.728   5.178  15.510  0.00  0.00    +0.000 A 
ATOM     20  C   UNL     1       7.222   4.576  16.667  0.00  0.00    +0.000 A 
ATOM     21  C   UNL     1       6.424   4.469  17.808  0.00  0.00    +0.000 A 
ATOM     22  C   UNL     1       5.117   4.980  17.812  0.00  0.00    +0.000 A 
ATOM     23  C   UNL     1       4.642   5.618  16.657  0.00  0.00    +0.000 A 
ATOM     24  C   UNL     1       5.437   5.709  15.512  0.00  0.00    +0.000 A 
BRANCH  19  26
ATOM     25  C   UNL     1       7.147   4.602  13.258  0.00  0.00    +0.000 C 
ATOM     26  O   UNL     1       7.597   5.225  14.456  0.00  0.00    +0.000 OA
ENDBRANCH  19  26
ENDBRANCH   1  22
TORSDOF 3
ENDMDL
MODEL 5
REMARK VINA RESULT:      -7.9      3.796      7.624
REMARK  Name = 
REMARK  5 active torsions:
REMARK  status: ('A' for Active; 'I' for Inactive)
REMARK    1  A    between atoms: C_1  and  O_2
REMARK    2  A    between atoms: O_2  and  C_3
REMARK    3  A    between atoms: C_6  and  C_7
REMARK    4  A    between atoms: C_9  and  C_10
REMARK    5  A    between atoms: C_22  and  C_23
REMARK                            x       y       z     vdW  Elec       q    Type
REMARK                         _______ _______ _______ _____ _____    ______ ____
ROOT
ATOM      1  C   UNL     1       4.339   5.513  18.722  0.00  0.00    +0.000 C 
ATOM      2  C   UNL     1       4.097   7.014  18.733  0.00  0.00    +0.000 C 
ATOM      3  C   UNL     1       2.583   7.061  18.755  0.00  0.00    +0.000 C 
ATOM      4  N   UNL     1       2.003   5.901  18.769  0.00  0.00    +0.000 NA
ATOM      5  N   UNL     1       2.994   4.951  18.787  0.00  0.00    +0.000 N 
ATOM      6  C   UNL     1       2.757   3.614  19.048  0.00  0.00    +0.000 C 
ATOM      7  C   UNL     1       1.317   3.184  19.162  0.00  0.00    +0.000 C 
ATOM      8  O   UNL     1       3.662   2.785  19.170  0.00  0.00    +0.000 OA
ENDROOT
BRANCH   3   9
ATOM      9  C   UNL     1       1.879   8.374  18.856  0.00  0.00    +0.000 A 
ATOM     10  C   UNL     1       2.009   9.256  17.768  0.00  0.00    +0.000 A 
ATOM     11  C   UNL     1       1.543  10.563  17.855  0.00  0.00    +0.000 A 
ATOM     12  C   UNL     1       0.977  11.015  19.041  0.00  0.00    +0.000 A 
ATOM     13  C   UNL     1       0.825  10.159  20.142  0.00  0.00    +0.000 A 
ATOM     14  C   UNL     1       0.296  10.668  21.340  0.00  0.00    +0.000 A 
ATOM     15  C   UNL     1       0.104   9.849  22.448  0.00  0.00    +0.000 A 
ATOM     16  C   UNL     1       0.404   8.500  22.360  0.00  0.00    +0.000 A 
ATOM     17  C   UNL     1       0.957   7.985  21.184  0.00  0.00    +0.000 A 
ATOM     18  C   UNL     1       1.222   8.798  20.053  0.00  0.00    +0.000 A 
ENDBRANCH   3   9
BRANCH   1  22
ATOM     19  C   UNL     1       6.545   4.316  15.187  0.00  0.00    +0.000 A 
ATOM     20  C   UNL     1       5.189   4.633  15.108  0.00  0.00    +0.000 A 
ATOM     21  C   UNL     1       4.485   5.027  16.249  0.00  0.00    +0.000 A 
ATOM     22  C   UNL     1       5.130   5.097  17.494  0.00  0.00    +0.000 A 
ATOM     23  C   UNL     1       6.484   4.740  17.569  0.00  0.00    +0.000 A 
ATOM     24  C   UNL     1       7.189   4.361  16.425  0.00  0.00    +0.000 A 
BRANCH  19  26
ATOM     25  C   UNL     1       6.234   3.631  12.949  0.00  0.00    +0.000 C 
ATOM     26  O   UNL     1       7.129   3.945  14.008  0.00  0.00    +0.000 OA
ENDBRANCH  19  26
ENDBRANCH   1  22
TORSDOF 3
ENDMDL
MODEL 6
REMARK VINA RESULT:      -7.9      5.355      7.261
REMARK  Name = 
REMARK  5 active torsions:
REMARK  status: ('A' for Active; 'I' for Inactive)
REMARK    1  A    between atoms: C_1  and  O_2
REMARK    2  A    between atoms: O_2  and  C_3
REMARK    3  A    between atoms: C_6  and  C_7
REMARK    4  A    between atoms: C_9  and  C_10
REMARK    5  A    between atoms: C_22  and  C_23
REMARK                            x       y       z     vdW  Elec       q    Type
REMARK                         _______ _______ _______ _____ _____    ______ ____
ROOT
ATOM      1  C   UNL     1       7.042   4.933  17.409  0.00  0.00    +0.000 C 
ATOM      2  C   UNL     1       6.141   4.411  18.518  0.00  0.00    +0.000 C 
ATOM      3  C   UNL     1       4.911   4.015  17.728  0.00  0.00    +0.000 C 
ATOM      4  N   UNL     1       5.000   4.214  16.448  0.00  0.00    +0.000 NA
ATOM      5  N   UNL     1       6.251   4.721  16.201  0.00  0.00    +0.000 N 
ATOM      6  C   UNL     1       6.788   4.827  14.931  0.00  0.00    +0.000 C 
ATOM      7  C   UNL     1       5.876   4.508  13.774  0.00  0.00    +0.000 C 
ATOM      8  O   UNL     1       7.950   5.181  14.723  0.00  0.00    +0.000 OA
ENDROOT
BRANCH   3   9
ATOM      9  C   UNL     1       3.762   3.356  18.416  0.00  0.00    +0.000 A 
ATOM     10  C   UNL     1       3.500   2.015  18.083  0.00  0.00    +0.000 A 
ATOM     11  C   UNL     1       2.346   1.384  18.535  0.00  0.00    +0.000 A 
ATOM     12  C   UNL     1       1.423   2.097  19.292  0.00  0.00    +0.000 A 
ATOM     13  C   UNL     1       1.658   3.433  19.648  0.00  0.00    +0.000 A 
ATOM     14  C   UNL     1       0.677   4.134  20.369  0.00  0.00    +0.000 A 
ATOM     15  C   UNL     1       0.878   5.453  20.765  0.00  0.00    +0.000 A 
ATOM     16  C   UNL     1       2.081   6.075  20.478  0.00  0.00    +0.000 A 
ATOM     17  C   UNL     1       3.055   5.400  19.737  0.00  0.00    +0.000 A 
ATOM     18  C   UNL     1       2.865   4.077  19.264  0.00  0.00    +0.000 A 
ENDBRANCH   3   9
BRANCH   1  22
ATOM     19  C   UNL     1       8.167   9.051  18.164  0.00  0.00    +0.000 A 
ATOM     20  C   UNL     1       8.714   8.012  18.918  0.00  0.00    +0.000 A 
ATOM     21  C   UNL     1       8.355   6.686  18.664  0.00  0.00    +0.000 A 
ATOM     22  C   UNL     1       7.428   6.381  17.655  0.00  0.00    +0.000 A 
ATOM     23  C   UNL     1       6.856   7.435  16.928  0.00  0.00    +0.000 A 
ATOM     24  C   UNL     1       7.228   8.758  17.174  0.00  0.00    +0.000 A 
BRANCH  19  26
ATOM     25  C   UNL     1       9.414  10.387  19.660  0.00  0.00    +0.000 C 
ATOM     26  O   UNL     1       8.593  10.305  18.501  0.00  0.00    +0.000 OA
ENDBRANCH  19  26
ENDBRANCH   1  22
TORSDOF 3
ENDMDL
MODEL 7
REMARK VINA RESULT:      -7.7      0.816      1.016
REMARK  Name = 
REMARK  5 active torsions:
REMARK  status: ('A' for Active; 'I' for Inactive)
REMARK    1  A    between atoms: C_1  and  O_2
REMARK    2  A    between atoms: O_2  and  C_3
REMARK    3  A    between atoms: C_6  and  C_7
REMARK    4  A    between atoms: C_9  and  C_10
REMARK    5  A    between atoms: C_22  and  C_23
REMARK                            x       y       z     vdW  Elec       q    Type
REMARK                         _______ _______ _______ _____ _____    ______ ____
ROOT
ATOM      1  C   UNL     1       0.869  10.363  19.013  0.00  0.00    +0.000 C 
ATOM      2  C   UNL     1       1.732   9.440  18.166  0.00  0.00    +0.000 C 
ATOM      3  C   UNL     1       1.961   8.295  19.130  0.00  0.00    +0.000 C 
ATOM      4  N   UNL     1       1.387   8.433  20.286  0.00  0.00    +0.000 NA
ATOM      5  N   UNL     1       0.699   9.621  20.258  0.00  0.00    +0.000 N 
ATOM      6  C   UNL     1      -0.226   9.983  21.221  0.00  0.00    +0.000 C 
ATOM      7  C   UNL     1      -0.348   9.083  22.424  0.00  0.00    +0.000 C 
ATOM      8  O   UNL     1      -0.919  10.999  21.134  0.00  0.00    +0.000 OA
ENDROOT
BRANCH   3   9
ATOM      9  C   UNL     1       2.712   7.084  18.685  0.00  0.00    +0.000 A 
ATOM     10  C   UNL     1       3.664   7.261  17.665  0.00  0.00    +0.000 A 
ATOM     11  C   UNL     1       4.273   6.164  17.065  0.00  0.00    +0.000 A 
ATOM     12  C   UNL     1       3.911   4.879  17.451  0.00  0.00    +0.000 A 
ATOM     13  C   UNL     1       2.971   4.668  18.470  0.00  0.00    +0.000 A 
ATOM     14  C   UNL     1       2.592   3.354  18.794  0.00  0.00    +0.000 A 
ATOM     15  C   UNL     1       1.682   3.097  19.815  0.00  0.00    +0.000 A 
ATOM     16  C   UNL     1       1.167   4.151  20.551  0.00  0.00    +0.000 A 
ATOM     17  C   UNL     1       1.513   5.465  20.222  0.00  0.00    +0.000 A 
ATOM     18  C   UNL     1       2.391   5.771  19.151  0.00  0.00    +0.000 A 
ENDBRANCH   3   9
BRANCH   1  22
ATOM     19  C   UNL     1       2.764  14.238  19.441  0.00  0.00    +0.000 A 
ATOM     20  C   UNL     1       2.599  13.660  18.182  0.00  0.00    +0.000 A 
ATOM     21  C   UNL     1       1.979  12.415  18.049  0.00  0.00    +0.000 A 
ATOM     22  C   UNL     1       1.526  11.722  19.183  0.00  0.00    +0.000 A 
ATOM     23  C   UNL     1       1.731  12.294  20.446  0.00  0.00    +0.000 A 
ATOM     24  C   UNL     1       2.337  13.546  20.575  0.00  0.00    +0.000 A 
BRANCH  19  26
ATOM     25  C   UNL     1       3.833  15.928  18.183  0.00  0.00    +0.000 C 
ATOM     26  O   UNL     1       3.382  15.457  19.448  0.00  0.00    +0.000 OA
ENDBRANCH  19  26
ENDBRANCH   1  22
TORSDOF 3
ENDMDL
MODEL 8
REMARK VINA RESULT:      -7.7      3.687      7.588
REMARK  Name = 
REMARK  5 active torsions:
REMARK  status: ('A' for Active; 'I' for Inactive)
REMARK    1  A    between atoms: C_1  and  O_2
REMARK    2  A    between atoms: O_2  and  C_3
REMARK    3  A    between atoms: C_6  and  C_7
REMARK    4  A    between atoms: C_9  and  C_10
REMARK    5  A    between atoms: C_22  and  C_23
REMARK                            x       y       z     vdW  Elec       q    Type
REMARK                         _______ _______ _______ _____ _____    ______ ____
ROOT
ATOM      1  C   UNL     1       4.051   5.675  19.341  0.00  0.00    +0.000 C 
ATOM      2  C   UNL     1       3.787   7.162  19.156  0.00  0.00    +0.000 C 
ATOM      3  C   UNL     1       2.284   7.212  19.337  0.00  0.00    +0.000 C 
ATOM      4  N   UNL     1       1.728   6.067  19.589  0.00  0.00    +0.000 NA
ATOM      5  N   UNL     1       2.730   5.131  19.638  0.00  0.00    +0.000 N 
ATOM      6  C   UNL     1       2.544   3.847  20.120  0.00  0.00    +0.000 C 
ATOM      7  C   UNL     1       1.132   3.440  20.455  0.00  0.00    +0.000 C 
ATOM      8  O   UNL     1       3.470   3.046  20.263  0.00  0.00    +0.000 OA
ENDROOT
BRANCH   3   9
ATOM      9  C   UNL     1       1.574   8.525  19.320  0.00  0.00    +0.000 A 
ATOM     10  C   UNL     1       1.748   9.332  18.180  0.00  0.00    +0.000 A 
ATOM     11  C   UNL     1       1.277  10.639  18.158  0.00  0.00    +0.000 A 
ATOM     12  C   UNL     1       0.661  11.169  19.286  0.00  0.00    +0.000 A 
ATOM     13  C   UNL     1       0.464  10.389  20.435  0.00  0.00    +0.000 A 
ATOM     14  C   UNL     1      -0.115  10.976  21.572  0.00  0.00    +0.000 A 
ATOM     15  C   UNL     1      -0.352  10.234  22.725  0.00  0.00    +0.000 A 
ATOM     16  C   UNL     1      -0.047   8.884  22.742  0.00  0.00    +0.000 A 
ATOM     17  C   UNL     1       0.556   8.292  21.628  0.00  0.00    +0.000 A 
ATOM     18  C   UNL     1       0.867   9.027  20.456  0.00  0.00    +0.000 A 
ENDBRANCH   3   9
BRANCH   1  22
ATOM     19  C   UNL     1       5.980   3.999  15.840  0.00  0.00    +0.000 A 
ATOM     20  C   UNL     1       6.736   4.505  16.897  0.00  0.00    +0.000 A 
ATOM     21  C   UNL     1       6.109   5.035  18.028  0.00  0.00    +0.000 A 
ATOM     22  C   UNL     1       4.709   5.079  18.109  0.00  0.00    +0.000 A 
ATOM     23  C   UNL     1       3.958   4.602  17.024  0.00  0.00    +0.000 A 
ATOM     24  C   UNL     1       4.587   4.058  15.903  0.00  0.00    +0.000 A 
BRANCH  19  26
ATOM     25  C   UNL     1       6.191   3.806  13.495  0.00  0.00    +0.000 C 
ATOM     26  O   UNL     1       6.701   3.505  14.789  0.00  0.00    +0.000 OA
ENDBRANCH  19  26
ENDBRANCH   1  22
TORSDOF 3
ENDMDL
MODEL 9
REMARK VINA RESULT:      -7.7      5.251      8.047
REMARK  Name = 
REMARK  5 active torsions:
REMARK  status: ('A' for Active; 'I' for Inactive)
REMARK    1  A    between atoms: C_1  and  O_2
REMARK    2  A    between atoms: O_2  and  C_3
REMARK    3  A    between atoms: C_6  and  C_7
REMARK    4  A    between atoms: C_9  and  C_10
REMARK    5  A    between atoms: C_22  and  C_23
REMARK                            x       y       z     vdW  Elec       q    Type
REMARK                         _______ _______ _______ _____ _____    ______ ____
ROOT
ATOM      1  C   UNL     1       5.455   6.530  16.108  0.00  0.00    +0.000 C 
ATOM      2  C   UNL     1       4.010   6.285  16.515  0.00  0.00    +0.000 C 
ATOM      3  C   UNL     1       4.179   5.931  17.977  0.00  0.00    +0.000 C 
ATOM      4  N   UNL     1       5.404   5.956  18.405  0.00  0.00    +0.000 NA
ATOM      5  N   UNL     1       6.195   6.339  17.351  0.00  0.00    +0.000 N 
ATOM      6  C   UNL     1       7.520   6.707  17.493  0.00  0.00    +0.000 C 
ATOM      7  C   UNL     1       8.139   6.522  18.855  0.00  0.00    +0.000 C 
ATOM      8  O   UNL     1       8.194   7.153  16.563  0.00  0.00    +0.000 OA
ENDROOT
BRANCH   3   9
ATOM      9  C   UNL     1       2.977   5.685  18.829  0.00  0.00    +0.000 A 
ATOM     10  C   UNL     1       2.604   6.708  19.719  0.00  0.00    +0.000 A 
ATOM     11  C   UNL     1       1.616   6.492  20.673  0.00  0.00    +0.000 A 
ATOM     12  C   UNL     1       1.017   5.242  20.774  0.00  0.00    +0.000 A 
ATOM     13  C   UNL     1       1.361   4.203  19.896  0.00  0.00    +0.000 A 
ATOM     14  C   UNL     1       0.771   2.939  20.064  0.00  0.00    +0.000 A 
ATOM     15  C   UNL     1       1.064   1.887  19.202  0.00  0.00    +0.000 A 
ATOM     16  C   UNL     1       1.922   2.097  18.136  0.00  0.00    +0.000 A 
ATOM     17  C   UNL     1       2.538   3.341  17.973  0.00  0.00    +0.000 A 
ATOM     18  C   UNL     1       2.312   4.421  18.864  0.00  0.00    +0.000 A 
ENDBRANCH   3   9
BRANCH   1  22
ATOM     19  C   UNL     1       6.603   3.828  12.918  0.00  0.00    +0.000 A 
ATOM     20  C   UNL     1       5.405   3.647  13.610  0.00  0.00    +0.000 A 
ATOM     21  C   UNL     1       5.036   4.527  14.631  0.00  0.00    +0.000 A 
ATOM     22  C   UNL     1       5.872   5.597  14.984  0.00  0.00    +0.000 A 
ATOM     23  C   UNL     1       7.091   5.748  14.308  0.00  0.00    +0.000 A 
ATOM     24  C   UNL     1       7.451   4.877  13.278  0.00  0.00    +0.000 A 
BRANCH  19  26
ATOM     25  C   UNL     1       5.743   2.139  11.510  0.00  0.00    +0.000 C 
ATOM     26  O   UNL     1       6.859   2.908  11.940  0.00  0.00    +0.000 OA
ENDBRANCH  19  26
ENDBRANCH   1  22
TORSDOF 3
ENDMDL
