MODEL 1
REMARK VINA RESULT:      -8.0      0.000      0.000
REMARK  Name = 
REMARK  7 active torsions:
REMARK  status: ('A' for Active; 'I' for Inactive)
REMARK    1  A    between atoms: C_1  and  C_2
REMARK    2  A    between atoms: N_4  and  S_5
REMARK    3  A    between atoms: S_5  and  C_8
REMARK    4  A    between atoms: C_10  and  N_11
REMARK    5  A    between atoms: C_12  and  C_14
REMARK    6  A    between atoms: C_14  and  N_15
REMARK    7  A    between atoms: C_27  and  C_28
REMARK                            x       y       z     vdW  Elec       q    Type
REMARK                         _______ _______ _______ _____ _____    ______ ____
ROOT
ATOM      1  C   UNL     1       0.667   9.439  19.827  0.00  0.00    +0.000 A 
ATOM      2  C   UNL     1       1.590   8.857  18.938  0.00  0.00    +0.000 A 
ATOM      3  C   UNL     1       2.278   7.684  19.270  0.00  0.00    +0.000 A 
ATOM      4  C   UNL     1       2.119   7.155  20.550  0.00  0.00    +0.000 A 
ATOM      5  C   UNL     1       1.184   7.720  21.433  0.00  0.00    +0.000 A 
ATOM      6  C   UNL     1       0.429   8.840  21.063  0.00  0.00    +0.000 A 
ATOM      7 CL   UNL     1      -0.799   9.328  22.171  0.00  0.00    +0.000 Cl
ENDROOT
BRANCH   3   8
ATOM      8  N   UNL     1       3.100   6.980  18.361  0.00  0.00    +0.000 N 
ATOM      9  C   UNL     1       2.899   5.671  17.939  0.00  0.00    +0.000 C 
ATOM     10  O   UNL     1       1.904   4.987  18.172  0.00  0.00    +0.000 OA
ATOM     11  H   UNL     1       3.974   7.428  18.097  0.00  0.00    +0.000 HD
BRANCH   9  12
ATOM     12  C   UNL     1       4.068   5.091  17.143  0.00  0.00    +0.000 C 
BRANCH  12  13
ATOM     13  N   UNL     1       5.334   5.358  17.783  0.00  0.00    +0.000 N 
ATOM     14  C   UNL     1       6.282   6.229  17.320  0.00  0.00    +0.000 C 
ATOM     15  O   UNL     1       6.177   6.987  16.372  0.00  0.00    +0.000 OA
ATOM     16  C   UNL     1       7.554   6.015  18.126  0.00  0.00    +0.000 C 
ATOM     17  N   UNL     1       7.111   5.030  19.073  0.00  0.00    +0.000 N 
ATOM     18  C   UNL     1       5.839   4.596  18.787  0.00  0.00    +0.000 C 
ATOM     19  O   UNL     1       5.284   3.649  19.316  0.00  0.00    +0.000 OA
ATOM     20  H   UNL     1       7.694   4.546  19.742  0.00  0.00    +0.000 HD
ENDBRANCH  12  13
ENDBRANCH   9  12
ENDBRANCH   3   8
BRANCH   1  21
ATOM     21  S   UNL     1      -0.026  11.017  19.374  0.00  0.00    +0.000 S 
ATOM     22  O   UNL     1       0.765  11.557  18.289  0.00  0.00    +0.000 OA
ATOM     23  O   UNL     1      -0.212  11.810  20.571  0.00  0.00    +0.000 OA
BRANCH  21  27
ATOM     24  C   UNL     1      -3.123  10.101  15.378  0.00  0.00    +0.000 C 
ATOM     25  C   UNL     1      -2.468  10.870  16.516  0.00  0.00    +0.000 C 
ATOM     26  C   UNL     1      -1.594   9.978  17.402  0.00  0.00    +0.000 C 
ATOM     27  N   UNL     1      -1.563  10.641  18.738  0.00  0.00    +0.000 NA
ATOM     28  C   UNL     1      -2.498  11.806  18.697  0.00  0.00    +0.000 C 
ATOM     29  C   UNL     1      -3.421  11.551  17.501  0.00  0.00    +0.000 C 
ATOM     30  C   UNL     1      -4.654  10.735  17.888  0.00  0.00    +0.000 C 
ENDBRANCH  21  27
ENDBRANCH   1  21
TORSDOF 5
ENDMDL
MODEL 2
REMARK VINA RESULT:      -8.0      1.415      2.030
REMARK  Name = 
REMARK  7 active torsions:
REMARK  status: ('A' for Active; 'I' for Inactive)
REMARK    1  A    between atoms: C_1  and  C_2
REMARK    2  A    between atoms: N_4  and  S_5
REMARK    3  A    between atoms: S_5  and  C_8
REMARK    4  A    between atoms: C_10  and  N_11
REMARK    5  A    between atoms: C_12  and  C_14
REMARK    6  A    between atoms: C_14  and  N_15
REMARK    7  A    between atoms: C_27  and  C_28
REMARK                            x       y       z     vdW  Elec       q    Type
REMARK                         _______ _______ _______ _____ _____    ______ ____
ROOT
ATOM      1  C   UNL     1       0.770   9.357  19.848  0.00  0.00    +0.000 A 
ATOM      2  C   UNL     1       1.663   8.658  19.013  0.00  0.00    +0.000 A 
ATOM      3  C   UNL     1       2.281   7.477  19.438  0.00  0.00    +0.000 A 
ATOM      4  C   UNL     1       2.087   7.056  20.753  0.00  0.00    +0.000 A 
ATOM      5  C   UNL     1       1.183   7.737  21.583  0.00  0.00    +0.000 A 
ATOM      6  C   UNL     1       0.494   8.866  21.124  0.00  0.00    +0.000 A 
ATOM      7 CL   UNL     1      -0.709   9.504  22.181  0.00  0.00    +0.000 Cl
ENDROOT
BRANCH   3   8
ATOM      8  N   UNL     1       3.067   6.662  18.591  0.00  0.00    +0.000 N 
ATOM      9  C   UNL     1       2.616   5.539  17.908  0.00  0.00    +0.000 C 
ATOM     10  O   UNL     1       1.443   5.178  17.817  0.00  0.00    +0.000 OA
ATOM     11  H   UNL     1       4.067   6.842  18.586  0.00  0.00    +0.000 HD
BRANCH   9  12
ATOM     12  C   UNL     1       3.730   4.719  17.259  0.00  0.00    +0.000 C 
BRANCH  12  13
ATOM     13  N   UNL     1       4.121   3.601  18.086  0.00  0.00    +0.000 N 
ATOM     14  C   UNL     1       3.468   2.401  18.146  0.00  0.00    +0.000 C 
ATOM     15  O   UNL     1       2.535   2.041  17.450  0.00  0.00    +0.000 OA
ATOM     16  C   UNL     1       4.035   1.614  19.318  0.00  0.00    +0.000 C 
ATOM     17  N   UNL     1       5.073   2.501  19.762  0.00  0.00    +0.000 N 
ATOM     18  C   UNL     1       5.036   3.695  19.084  0.00  0.00    +0.000 C 
ATOM     19  O   UNL     1       5.684   4.687  19.371  0.00  0.00    +0.000 OA
ATOM     20  H   UNL     1       5.638   2.385  20.593  0.00  0.00    +0.000 HD
ENDBRANCH  12  13
ENDBRANCH   9  12
ENDBRANCH   3   8
BRANCH   1  21
ATOM     21  S   UNL     1       0.170  10.932  19.273  0.00  0.00    +0.000 S 
ATOM     22  O   UNL     1       0.977  11.330  18.139  0.00  0.00    +0.000 OA
ATOM     23  O   UNL     1       0.051  11.831  20.401  0.00  0.00    +0.000 OA
BRANCH  21  27
ATOM     24  C   UNL     1      -3.066  10.061  15.377  0.00  0.00    +0.000 C 
ATOM     25  C   UNL     1      -2.353  10.825  16.484  0.00  0.00    +0.000 C 
ATOM     26  C   UNL     1      -1.488   9.918  17.363  0.00  0.00    +0.000 C 
ATOM     27  N   UNL     1      -1.397  10.603  18.685  0.00  0.00    +0.000 NA
ATOM     28  C   UNL     1      -2.289  11.801  18.646  0.00  0.00    +0.000 C 
ATOM     29  C   UNL     1      -3.253  11.559  17.481  0.00  0.00    +0.000 C 
ATOM     30  C   UNL     1      -4.504  10.797  17.915  0.00  0.00    +0.000 C 
ENDBRANCH  21  27
ENDBRANCH   1  21
TORSDOF 5
ENDMDL
MODEL 3
REMARK VINA RESULT:      -8.0      1.264      1.312
REMARK  Name = 
REMARK  7 active torsions:
REMARK  status: ('A' for Active; 'I' for Inactive)
REMARK    1  A    between atoms: C_1  and  C_2
REMARK    2  A    between atoms: N_4  and  S_5
REMARK    3  A    between atoms: S_5  and  C_8
REMARK    4  A    between atoms: C_10  and  N_11
REMARK    5  A    between atoms: C_12  and  C_14
REMARK    6  A    between atoms: C_14  and  N_15
REMARK    7  A    between atoms: C_27  and  C_28
REMARK                            x       y       z     vdW  Elec       q    Type
REMARK                         _______ _______ _______ _____ _____    ______ ____
ROOT
ATOM      1  C   UNL     1       1.306   8.775  19.481  0.00  0.00    +0.000 A 
ATOM      2  C   UNL     1       2.101   7.897  18.719  0.00  0.00    +0.000 A 
ATOM      3  C   UNL     1       2.481   6.645  19.214  0.00  0.00    +0.000 A 
ATOM      4  C   UNL     1       2.152   6.318  20.529  0.00  0.00    +0.000 A 
ATOM      5  C   UNL     1       1.343   7.181  21.286  0.00  0.00    +0.000 A 
ATOM      6  C   UNL     1       0.887   8.393  20.754  0.00  0.00    +0.000 A 
ATOM      7 CL   UNL     1      -0.234   9.274  21.724  0.00  0.00    +0.000 Cl
ENDROOT
BRANCH   3   8
ATOM      8  N   UNL     1       3.149   5.671  18.438  0.00  0.00    +0.000 N 
ATOM      9  C   UNL     1       2.535   4.659  17.709  0.00  0.00    +0.000 C 
ATOM     10  O   UNL     1       1.326   4.552  17.510  0.00  0.00    +0.000 OA
ATOM     11  H   UNL     1       4.161   5.636  18.526  0.00  0.00    +0.000 HD
BRANCH   9  12
ATOM     12  C   UNL     1       3.506   3.614  17.161  0.00  0.00    +0.000 C 
BRANCH  12  13
ATOM     13  N   UNL     1       4.876   4.060  17.250  0.00  0.00    +0.000 N 
ATOM     14  C   UNL     1       5.661   4.408  16.186  0.00  0.00    +0.000 C 
ATOM     15  O   UNL     1       5.314   4.502  15.021  0.00  0.00    +0.000 OA
ATOM     16  C   UNL     1       7.092   4.554  16.682  0.00  0.00    +0.000 C 
ATOM     17  N   UNL     1       6.913   4.332  18.089  0.00  0.00    +0.000 N 
ATOM     18  C   UNL     1       5.625   3.952  18.377  0.00  0.00    +0.000 C 
ATOM     19  O   UNL     1       5.238   3.537  19.456  0.00  0.00    +0.000 OA
ATOM     20  H   UNL     1       7.651   4.254  18.776  0.00  0.00    +0.000 HD
ENDBRANCH  12  13
ENDBRANCH   9  12
ENDBRANCH   3   8
BRANCH   1  21
ATOM     21  S   UNL     1       1.022  10.406  18.824  0.00  0.00    +0.000 S 
ATOM     22  O   UNL     1       1.632  10.471  17.512  0.00  0.00    +0.000 OA
ATOM     23  O   UNL     1       1.392  11.386  19.821  0.00  0.00    +0.000 OA
BRANCH  21  27
ATOM     24  C   UNL     1      -3.133   9.865  15.848  0.00  0.00    +0.000 C 
ATOM     25  C   UNL     1      -2.004  10.563  16.593  0.00  0.00    +0.000 C 
ATOM     26  C   UNL     1      -1.242   9.619  17.528  0.00  0.00    +0.000 C 
ATOM     27  N   UNL     1      -0.667  10.485  18.597  0.00  0.00    +0.000 NA
ATOM     28  C   UNL     1      -1.182  11.873  18.393  0.00  0.00    +0.000 C 
ATOM     29  C   UNL     1      -2.416  11.727  17.498  0.00  0.00    +0.000 C 
ATOM     30  C   UNL     1      -3.693  11.506  18.307  0.00  0.00    +0.000 C 
ENDBRANCH  21  27
ENDBRANCH   1  21
TORSDOF 5
ENDMDL
MODEL 4
REMARK VINA RESULT:      -7.9      0.774      1.511
REMARK  Name = 
REMARK  7 active torsions:
REMARK  status: ('A' for Active; 'I' for Inactive)
REMARK    1  A    between atoms: C_1  and  C_2
REMARK    2  A    between atoms: N_4  and  S_5
REMARK    3  A    between atoms: S_5  and  C_8
REMARK    4  A    between atoms: C_10  and  N_11
REMARK    5  A    between atoms: C_12  and  C_14
REMARK    6  A    between atoms: C_14  and  N_15
REMARK    7  A    between atoms: C_27  and  C_28
REMARK                            x       y       z     vdW  Elec       q    Type
REMARK                         _______ _______ _______ _____ _____    ______ ____
ROOT
ATOM      1  C   UNL     1       0.974   9.165  19.647  0.00  0.00    +0.000 A 
ATOM      2  C   UNL     1       1.820   8.539  18.711  0.00  0.00    +0.000 A 
ATOM      3  C   UNL     1       2.434   7.314  18.993  0.00  0.00    +0.000 A 
ATOM      4  C   UNL     1       2.286   6.768  20.267  0.00  0.00    +0.000 A 
ATOM      5  C   UNL     1       1.428   7.378  21.196  0.00  0.00    +0.000 A 
ATOM      6  C   UNL     1       0.741   8.556  20.879  0.00  0.00    +0.000 A 
ATOM      7 CL   UNL     1      -0.407   9.104  22.043  0.00  0.00    +0.000 Cl
ENDROOT
BRANCH   3   8
ATOM      8  N   UNL     1       3.170   6.575  18.038  0.00  0.00    +0.000 N 
ATOM      9  C   UNL     1       3.064   5.206  17.821  0.00  0.00    +0.000 C 
ATOM     10  O   UNL     1       2.215   4.466  18.316  0.00  0.00    +0.000 OA
ATOM     11  H   UNL     1       3.924   7.066  17.565  0.00  0.00    +0.000 HD
BRANCH   9  12
ATOM     12  C   UNL     1       4.142   4.639  16.898  0.00  0.00    +0.000 C 
BRANCH  12  13
ATOM     13  N   UNL     1       5.412   5.299  17.093  0.00  0.00    +0.000 N 
ATOM     14  C   UNL     1       6.250   5.095  18.153  0.00  0.00    +0.000 C 
ATOM     15  O   UNL     1       6.124   4.264  19.036  0.00  0.00    +0.000 OA
ATOM     16  C   UNL     1       7.330   6.165  18.114  0.00  0.00    +0.000 C 
ATOM     17  N   UNL     1       6.990   6.848  16.898  0.00  0.00    +0.000 N 
ATOM     18  C   UNL     1       5.809   6.380  16.374  0.00  0.00    +0.000 C 
ATOM     19  O   UNL     1       5.199   6.889  15.449  0.00  0.00    +0.000 OA
ATOM     20  H   UNL     1       7.419   7.696  16.553  0.00  0.00    +0.000 HD
ENDBRANCH  12  13
ENDBRANCH   9  12
ENDBRANCH   3   8
BRANCH   1  21
ATOM     21  S   UNL     1       0.379  10.797  19.254  0.00  0.00    +0.000 S 
ATOM     22  O   UNL     1       1.127  11.282  18.112  0.00  0.00    +0.000 OA
ATOM     23  O   UNL     1       0.350  11.592  20.463  0.00  0.00    +0.000 OA
BRANCH  21  27
ATOM     24  C   UNL     1      -3.052   9.984  15.516  0.00  0.00    +0.000 C 
ATOM     25  C   UNL     1      -2.247  10.744  16.561  0.00  0.00    +0.000 C 
ATOM     26  C   UNL     1      -1.414   9.818  17.451  0.00  0.00    +0.000 C 
ATOM     27  N   UNL     1      -1.227  10.553  18.736  0.00  0.00    +0.000 NA
ATOM     28  C   UNL     1      -2.036  11.807  18.672  0.00  0.00    +0.000 C 
ATOM     29  C   UNL     1      -3.057  11.582  17.553  0.00  0.00    +0.000 C 
ATOM     30  C   UNL     1      -4.340  10.929  18.066  0.00  0.00    +0.000 C 
ENDBRANCH  21  27
ENDBRANCH   1  21
TORSDOF 5
ENDMDL
MODEL 5
REMARK VINA RESULT:      -7.9      2.324      3.303
REMARK  Name = 
REMARK  7 active torsions:
REMARK  status: ('A' for Active; 'I' for Inactive)
REMARK    1  A    between atoms: C_1  and  C_2
REMARK    2  A    between atoms: N_4  and  S_5
REMARK    3  A    between atoms: S_5  and  C_8
REMARK    4  A    between atoms: C_10  and  N_11
REMARK    5  A    between atoms: C_12  and  C_14
REMARK    6  A    between atoms: C_14  and  N_15
REMARK    7  A    between atoms: C_27  and  C_28
REMARK                            x       y       z     vdW  Elec       q    Type
REMARK                         _______ _______ _______ _____ _____    ______ ____
ROOT
ATOM      1  C   UNL     1       0.358  10.468  20.203  0.00  0.00    +0.000 A 
ATOM      2  C   UNL     1       1.282   9.440  19.936  0.00  0.00    +0.000 A 
ATOM      3  C   UNL     1       1.438   8.359  20.811  0.00  0.00    +0.000 A 
ATOM      4  C   UNL     1       0.741   8.368  22.018  0.00  0.00    +0.000 A 
ATOM      5  C   UNL     1      -0.197   9.381  22.280  0.00  0.00    +0.000 A 
ATOM      6  C   UNL     1      -0.418  10.413  21.360  0.00  0.00    +0.000 A 
ATOM      7 CL   UNL     1      -1.713  11.492  21.726  0.00  0.00    +0.000 Cl
ENDROOT
BRANCH   3   8
ATOM      8  N   UNL     1       2.239   7.231  20.519  0.00  0.00    +0.000 N 
ATOM      9  C   UNL     1       2.493   6.729  19.248  0.00  0.00    +0.000 C 
ATOM     10  O   UNL     1       2.187   7.272  18.188  0.00  0.00    +0.000 OA
ATOM     11  H   UNL     1       2.547   6.675  21.312  0.00  0.00    +0.000 HD
BRANCH   9  12
ATOM     12  C   UNL     1       3.194   5.371  19.247  0.00  0.00    +0.000 C 
BRANCH  12  13
ATOM     13  N   UNL     1       2.257   4.287  19.430  0.00  0.00    +0.000 N 
ATOM     14  C   UNL     1       1.484   3.739  18.444  0.00  0.00    +0.000 C 
ATOM     15  O   UNL     1       1.532   3.992  17.253  0.00  0.00    +0.000 OA
ATOM     16  C   UNL     1       0.460   2.826  19.100  0.00  0.00    +0.000 C 
ATOM     17  N   UNL     1       0.861   2.913  20.476  0.00  0.00    +0.000 N 
ATOM     18  C   UNL     1       1.853   3.848  20.650  0.00  0.00    +0.000 C 
ATOM     19  O   UNL     1       2.259   4.250  21.727  0.00  0.00    +0.000 OA
ATOM     20  H   UNL     1       0.369   2.515  21.264  0.00  0.00    +0.000 HD
ENDBRANCH  12  13
ENDBRANCH   9  12
ENDBRANCH   3   8
BRANCH   1  21
ATOM     21  S   UNL     1       0.358  11.876  19.112  0.00  0.00    +0.000 S 
ATOM     22  O   UNL     1       1.617  11.886  18.397  0.00  0.00    +0.000 OA
ATOM     23  O   UNL     1      -0.035  13.051  19.860  0.00  0.00    +0.000 OA
BRANCH  21  27
ATOM     24  C   UNL     1      -4.597  11.253  17.906  0.00  0.00    +0.000 C 
ATOM     25  C   UNL     1      -3.166  10.874  18.255  0.00  0.00    +0.000 C 
ATOM     26  C   UNL     1      -2.222  12.081  18.262  0.00  0.00    +0.000 C 
ATOM     27  N   UNL     1      -0.865  11.535  17.974  0.00  0.00    +0.000 NA
ATOM     28  C   UNL     1      -1.008  10.080  17.663  0.00  0.00    +0.000 C 
ATOM     29  C   UNL     1      -2.486   9.878  17.312  0.00  0.00    +0.000 C 
ATOM     30  C   UNL     1      -2.760  10.094  15.825  0.00  0.00    +0.000 C 
ENDBRANCH  21  27
ENDBRANCH   1  21
TORSDOF 5
ENDMDL
MODEL 6
REMARK VINA RESULT:      -7.9      3.064      8.397
REMARK  Name = 
REMARK  7 active torsions:
REMARK  status: ('A' for Active; 'I' for Inactive)
REMARK    1  A    between atoms: C_1  and  C_2
REMARK    2  A    between atoms: N_4  and  S_5
REMARK    3  A    between atoms: S_5  and  C_8
REMARK    4  A    between atoms: C_10  and  N_11
REMARK    5  A    between atoms: C_12  and  C_14
REMARK    6  A    between atoms: C_14  and  N_15
REMARK    7  A    between atoms: C_27  and  C_28
REMARK                            x       y       z     vdW  Elec       q    Type
REMARK                         _______ _______ _______ _____ _____    ______ ____
ROOT
ATOM      1  C   UNL     1       3.044   4.189  19.623  0.00  0.00    +0.000 A 
ATOM      2  C   UNL     1       3.069   5.597  19.626  0.00  0.00    +0.000 A 
ATOM      3  C   UNL     1       1.999   6.341  20.133  0.00  0.00    +0.000 A 
ATOM      4  C   UNL     1       0.847   5.667  20.537  0.00  0.00    +0.000 A 
ATOM      5  C   UNL     1       0.824   4.263  20.555  0.00  0.00    +0.000 A 
ATOM      6  C   UNL     1       1.933   3.520  20.133  0.00  0.00    +0.000 A 
ATOM      7 CL   UNL     1       1.836   1.814  20.366  0.00  0.00    +0.000 Cl
ENDROOT
BRANCH   3   8
ATOM      8  N   UNL     1       2.035   7.745  20.295  0.00  0.00    +0.000 N 
ATOM      9  C   UNL     1       1.068   8.508  20.940  0.00  0.00    +0.000 C 
ATOM     10  O   UNL     1       0.123   8.065  21.592  0.00  0.00    +0.000 OA
ATOM     11  H   UNL     1       2.761   8.243  19.788  0.00  0.00    +0.000 HD
BRANCH   9  12
ATOM     12  C   UNL     1       1.246  10.015  20.760  0.00  0.00    +0.000 C 
BRANCH  12  13
ATOM     13  N   UNL     1       0.320  10.549  19.789  0.00  0.00    +0.000 N 
ATOM     14  C   UNL     1      -0.861  11.171  20.086  0.00  0.00    +0.000 C 
ATOM     15  O   UNL     1      -1.271  11.470  21.194  0.00  0.00    +0.000 OA
ATOM     16  C   UNL     1      -1.646  11.335  18.794  0.00  0.00    +0.000 C 
ATOM     17  N   UNL     1      -0.707  10.818  17.839  0.00  0.00    +0.000 N 
ATOM     18  C   UNL     1       0.393  10.278  18.461  0.00  0.00    +0.000 C 
ATOM     19  O   UNL     1       1.260   9.622  17.910  0.00  0.00    +0.000 OA
ATOM     20  H   UNL     1      -0.884  10.664  16.856  0.00  0.00    +0.000 HD
ENDBRANCH  12  13
ENDBRANCH   9  12
ENDBRANCH   3   8
BRANCH   1  21
ATOM     21  S   UNL     1       4.383   3.345  18.805  0.00  0.00    +0.000 S 
ATOM     22  O   UNL     1       3.812   2.471  17.802  0.00  0.00    +0.000 OA
ATOM     23  O   UNL     1       5.268   2.786  19.804  0.00  0.00    +0.000 OA
BRANCH  21  27
ATOM     24  C   UNL     1       7.105   4.986  14.768  0.00  0.00    +0.000 C 
ATOM     25  C   UNL     1       6.821   4.487  16.176  0.00  0.00    +0.000 C 
ATOM     26  C   UNL     1       5.324   4.445  16.496  0.00  0.00    +0.000 C 
ATOM     27  N   UNL     1       5.222   4.578  17.978  0.00  0.00    +0.000 NA
ATOM     28  C   UNL     1       6.594   4.835  18.513  0.00  0.00    +0.000 C 
ATOM     29  C   UNL     1       7.419   5.315  17.316  0.00  0.00    +0.000 C 
ATOM     30  C   UNL     1       7.343   6.831  17.133  0.00  0.00    +0.000 C 
ENDBRANCH  21  27
ENDBRANCH   1  21
TORSDOF 5
ENDMDL
MODEL 7
REMARK VINA RESULT:      -7.7      0.630      1.257
REMARK  Name = 
REMARK  7 active torsions:
REMARK  status: ('A' for Active; 'I' for Inactive)
REMARK    1  A    between atoms: C_1  and  C_2
REMARK    2  A    between atoms: N_4  and  S_5
REMARK    3  A    between atoms: S_5  and  C_8
REMARK    4  A    between atoms: C_10  and  N_11
REMARK    5  A    between atoms: C_12  and  C_14
REMARK    6  A    between atoms: C_14  and  N_15
REMARK    7  A    between atoms: C_27  and  C_28
REMARK                            x       y       z     vdW  Elec       q    Type
REMARK                         _______ _______ _______ _____ _____    ______ ____
ROOT
ATOM      1  C   UNL     1       0.979   9.731  19.561  0.00  0.00    +0.000 A 
ATOM      2  C   UNL     1       1.814   8.985  18.707  0.00  0.00    +0.000 A 
ATOM      3  C   UNL     1       2.262   7.708  19.064  0.00  0.00    +0.000 A 
ATOM      4  C   UNL     1       1.960   7.224  20.336  0.00  0.00    +0.000 A 
ATOM      5  C   UNL     1       1.111   7.956  21.183  0.00  0.00    +0.000 A 
ATOM      6  C   UNL     1       0.589   9.193  20.786  0.00  0.00    +0.000 A 
ATOM      7 CL   UNL     1      -0.571   9.903  21.846  0.00  0.00    +0.000 Cl
ENDROOT
BRANCH   3   8
ATOM      8  N   UNL     1       2.976   6.860  18.187  0.00  0.00    +0.000 N 
ATOM      9  C   UNL     1       2.757   5.497  18.026  0.00  0.00    +0.000 C 
ATOM     10  O   UNL     1       1.820   4.860  18.505  0.00  0.00    +0.000 OA
ATOM     11  H   UNL     1       3.795   7.258  17.735  0.00  0.00    +0.000 HD
BRANCH   9  12
ATOM     12  C   UNL     1       3.825   4.792  17.191  0.00  0.00    +0.000 C 
BRANCH  12  13
ATOM     13  N   UNL     1       5.156   5.096  17.661  0.00  0.00    +0.000 N 
ATOM     14  C   UNL     1       6.066   5.874  17.000  0.00  0.00    +0.000 C 
ATOM     15  O   UNL     1       5.875   6.516  15.982  0.00  0.00    +0.000 OA
ATOM     16  C   UNL     1       7.411   5.721  17.694  0.00  0.00    +0.000 C 
ATOM     17  N   UNL     1       7.052   4.872  18.794  0.00  0.00    +0.000 N 
ATOM     18  C   UNL     1       5.749   4.446  18.695  0.00  0.00    +0.000 C 
ATOM     19  O   UNL     1       5.235   3.587  19.390  0.00  0.00    +0.000 OA
ATOM     20  H   UNL     1       7.693   4.454  19.456  0.00  0.00    +0.000 HD
ENDBRANCH  12  13
ENDBRANCH   9  12
ENDBRANCH   3   8
BRANCH   1  21
ATOM     21  S   UNL     1       0.605  11.406  19.084  0.00  0.00    +0.000 S 
ATOM     22  O   UNL     1       1.743  11.928  18.356  0.00  0.00    +0.000 OA
ATOM     23  O   UNL     1       0.120  12.128  20.241  0.00  0.00    +0.000 OA
BRANCH  21  27
ATOM     24  C   UNL     1      -4.408  11.589  17.969  0.00  0.00    +0.000 C 
ATOM     25  C   UNL     1      -3.050  10.985  18.300  0.00  0.00    +0.000 C 
ATOM     26  C   UNL     1      -1.923  12.021  18.274  0.00  0.00    +0.000 C 
ATOM     27  N   UNL     1      -0.678  11.257  17.971  0.00  0.00    +0.000 NA
ATOM     28  C   UNL     1      -1.064   9.842  17.684  0.00  0.00    +0.000 C 
ATOM     29  C   UNL     1      -2.560   9.881  17.360  0.00  0.00    +0.000 C 
ATOM     30  C   UNL     1      -2.823  10.122  15.874  0.00  0.00    +0.000 C 
ENDBRANCH  21  27
ENDBRANCH   1  21
TORSDOF 5
ENDMDL
MODEL 8
REMARK VINA RESULT:      -7.7      0.983      1.965
REMARK  Name = 
REMARK  7 active torsions:
REMARK  status: ('A' for Active; 'I' for Inactive)
REMARK    1  A    between atoms: C_1  and  C_2
REMARK    2  A    between atoms: N_4  and  S_5
REMARK    3  A    between atoms: S_5  and  C_8
REMARK    4  A    between atoms: C_10  and  N_11
REMARK    5  A    between atoms: C_12  and  C_14
REMARK    6  A    between atoms: C_14  and  N_15
REMARK    7  A    between atoms: C_27  and  C_28
REMARK                            x       y       z     vdW  Elec       q    Type
REMARK                         _______ _______ _______ _____ _____    ______ ____
ROOT
ATOM      1  C   UNL     1       1.270   9.543  19.392  0.00  0.00    +0.000 A 
ATOM      2  C   UNL     1       2.133   8.800  18.564  0.00  0.00    +0.000 A 
ATOM      3  C   UNL     1       2.519   7.498  18.899  0.00  0.00    +0.000 A 
ATOM      4  C   UNL     1       2.124   6.979  20.132  0.00  0.00    +0.000 A 
ATOM      5  C   UNL     1       1.248   7.708  20.952  0.00  0.00    +0.000 A 
ATOM      6  C   UNL     1       0.789   8.974  20.570  0.00  0.00    +0.000 A 
ATOM      7 CL   UNL     1      -0.412   9.685  21.584  0.00  0.00    +0.000 Cl
ENDROOT
BRANCH   3   8
ATOM      8  N   UNL     1       3.259   6.658  18.035  0.00  0.00    +0.000 N 
ATOM      9  C   UNL     1       3.008   5.310  17.810  0.00  0.00    +0.000 C 
ATOM     10  O   UNL     1       2.023   4.688  18.206  0.00  0.00    +0.000 OA
ATOM     11  H   UNL     1       4.116   7.045  17.650  0.00  0.00    +0.000 HD
BRANCH   9  12
ATOM     12  C   UNL     1       4.104   4.600  17.015  0.00  0.00    +0.000 C 
BRANCH  12  13
ATOM     13  N   UNL     1       5.380   5.260  17.160  0.00  0.00    +0.000 N 
ATOM     14  C   UNL     1       6.228   5.110  18.223  0.00  0.00    +0.000 C 
ATOM     15  O   UNL     1       6.104   4.331  19.152  0.00  0.00    +0.000 OA
ATOM     16  C   UNL     1       7.315   6.168  18.112  0.00  0.00    +0.000 C 
ATOM     17  N   UNL     1       6.968   6.783  16.862  0.00  0.00    +0.000 N 
ATOM     18  C   UNL     1       5.778   6.295  16.377  0.00  0.00    +0.000 C 
ATOM     19  O   UNL     1       5.163   6.755  15.431  0.00  0.00    +0.000 OA
ATOM     20  H   UNL     1       7.399   7.606  16.466  0.00  0.00    +0.000 HD
ENDBRANCH  12  13
ENDBRANCH   9  12
ENDBRANCH   3   8
BRANCH   1  21
ATOM     21  S   UNL     1       0.978  11.245  18.957  0.00  0.00    +0.000 S 
ATOM     22  O   UNL     1       2.079  11.689  18.128  0.00  0.00    +0.000 OA
ATOM     23  O   UNL     1       0.655  11.989  20.156  0.00  0.00    +0.000 OA
BRANCH  21  27
ATOM     24  C   UNL     1      -4.100  11.723  18.330  0.00  0.00    +0.000 C 
ATOM     25  C   UNL     1      -2.753  11.039  18.512  0.00  0.00    +0.000 C 
ATOM     26  C   UNL     1      -1.578  12.016  18.409  0.00  0.00    +0.000 C 
ATOM     27  N   UNL     1      -0.410  11.200  17.967  0.00  0.00    +0.000 NA
ATOM     28  C   UNL     1      -0.897   9.817  17.676  0.00  0.00    +0.000 C 
ATOM     29  C   UNL     1      -2.413   9.944  17.498  0.00  0.00    +0.000 C 
ATOM     30  C   UNL     1      -2.800  10.249  16.051  0.00  0.00    +0.000 C 
ENDBRANCH  21  27
ENDBRANCH   1  21
TORSDOF 5
ENDMDL
MODEL 9
REMARK VINA RESULT:      -7.6      2.673      3.397
REMARK  Name = 
REMARK  7 active torsions:
REMARK  status: ('A' for Active; 'I' for Inactive)
REMARK    1  A    between atoms: C_1  and  C_2
REMARK    2  A    between atoms: N_4  and  S_5
REMARK    3  A    between atoms: S_5  and  C_8
REMARK    4  A    between atoms: C_10  and  N_11
REMARK    5  A    between atoms: C_12  and  C_14
REMARK    6  A    between atoms: C_14  and  N_15
REMARK    7  A    between atoms: C_27  and  C_28
REMARK                            x       y       z     vdW  Elec       q    Type
REMARK                         _______ _______ _______ _____ _____    ______ ____
ROOT
ATOM      1  C   UNL     1       1.455   9.452  20.001  0.00  0.00    +0.000 A 
ATOM      2  C   UNL     1       1.644   8.107  20.369  0.00  0.00    +0.000 A 
ATOM      3  C   UNL     1       2.256   7.195  19.502  0.00  0.00    +0.000 A 
ATOM      4  C   UNL     1       2.579   7.613  18.211  0.00  0.00    +0.000 A 
ATOM      5  C   UNL     1       2.411   8.958  17.846  0.00  0.00    +0.000 A 
ATOM      6  C   UNL     1       1.884   9.889  18.748  0.00  0.00    +0.000 A 
ATOM      7 CL   UNL     1       1.890  11.535  18.232  0.00  0.00    +0.000 Cl
ENDROOT
BRANCH   3   8
ATOM      8  N   UNL     1       2.601   5.876  19.876  0.00  0.00    +0.000 N 
ATOM      9  C   UNL     1       1.738   4.945  20.439  0.00  0.00    +0.000 C 
ATOM     10  O   UNL     1       0.520   5.075  20.556  0.00  0.00    +0.000 OA
ATOM     11  H   UNL     1       3.589   5.639  19.845  0.00  0.00    +0.000 HD
BRANCH   9  12
ATOM     12  C   UNL     1       2.435   3.687  20.958  0.00  0.00    +0.000 C 
BRANCH  12  13
ATOM     13  N   UNL     1       2.758   2.776  19.885  0.00  0.00    +0.000 N 
ATOM     14  C   UNL     1       4.002   2.608  19.343  0.00  0.00    +0.000 C 
ATOM     15  O   UNL     1       5.043   3.106  19.734  0.00  0.00    +0.000 OA
ATOM     16  C   UNL     1       3.857   1.771  18.081  0.00  0.00    +0.000 C 
ATOM     17  N   UNL     1       2.452   1.478  18.110  0.00  0.00    +0.000 N 
ATOM     18  C   UNL     1       1.820   2.158  19.123  0.00  0.00    +0.000 C 
ATOM     19  O   UNL     1       0.612   2.231  19.274  0.00  0.00    +0.000 OA
ATOM     20  H   UNL     1       1.928   1.009  17.384  0.00  0.00    +0.000 HD
ENDBRANCH  12  13
ENDBRANCH   9  12
ENDBRANCH   3   8
BRANCH   1  21
ATOM     21  S   UNL     1       0.519  10.484  21.111  0.00  0.00    +0.000 S 
ATOM     22  O   UNL     1       1.174  11.774  21.179  0.00  0.00    +0.000 OA
ATOM     23  O   UNL     1       0.272   9.755  22.336  0.00  0.00    +0.000 OA
BRANCH  21  27
ATOM     24  C   UNL     1      -2.454  10.088  16.938  0.00  0.00    +0.000 C 
ATOM     25  C   UNL     1      -1.551  10.734  17.979  0.00  0.00    +0.000 C 
ATOM     26  C   UNL     1      -1.274   9.814  19.172  0.00  0.00    +0.000 C 
ATOM     27  N   UNL     1      -0.973  10.719  20.319  0.00  0.00    +0.000 NA
ATOM     28  C   UNL     1      -1.201  12.126  19.869  0.00  0.00    +0.000 C 
ATOM     29  C   UNL     1      -2.078  12.021  18.618  0.00  0.00    +0.000 C 
ATOM     30  C   UNL     1      -3.568  12.020  18.956  0.00  0.00    +0.000 C 
ENDBRANCH  21  27
ENDBRANCH   1  21
TORSDOF 5
ENDMDL
