MODEL 1
REMARK VINA RESULT:      -8.2      0.000      0.000
REMARK  Name = 
REMARK  13 active torsions:
REMARK  status: ('A' for Active; 'I' for Inactive)
REMARK    1  A    between atoms: C_1  and  O_2
REMARK    2  A    between atoms: O_2  and  C_3
REMARK    3  A    between atoms: C_8  and  C_9
REMARK    4  A    between atoms: C_9  and  C_10
REMARK    5  A    between atoms: C_20  and  C_21
REMARK    6  A    between atoms: C_21  and  O_23
REMARK    7  A    between atoms: N_25  and  C_26
REMARK    8  A    between atoms: C_26  and  C_27
REMARK    9  A    between atoms: C_26  and  C_29
REMARK   10  A    between atoms: C_27  and  O_28
REMARK   11  A    between atoms: C_29  and  C_30
REMARK   12  A    between atoms: C_30  and  C_31
REMARK   13  A    between atoms: C_30  and  C_32
REMARK                            x       y       z     vdW  Elec       q    Type
REMARK                         _______ _______ _______ _____ _____    ______ ____
ROOT
ATOM      1  C   UNL     1       5.850   6.318  17.230  0.00  0.00    +0.000 A 
ATOM      2  N   UNL     1       4.747   6.660  17.958  0.00  0.00    +0.000 NA
ATOM      3  C   UNL     1       3.857   5.712  18.303  0.00  0.00    +0.000 A 
ATOM      4  C   UNL     1       4.080   4.392  17.904  0.00  0.00    +0.000 A 
ATOM      5  C   UNL     1       5.235   4.044  17.182  0.00  0.00    +0.000 A 
ATOM      6  C   UNL     1       6.169   5.023  16.834  0.00  0.00    +0.000 A 
ATOM      7  C   UNL     1       3.069   3.361  18.200  0.00  0.00    +0.000 A 
ATOM      8  O   UNL     1       3.194   2.207  17.797  0.00  0.00    +0.000 OA
ATOM      9  C   UNL     1       1.882   3.748  18.978  0.00  0.00    +0.000 A 
ATOM     10  C   UNL     1       1.780   5.037  19.348  0.00  0.00    +0.000 A 
ATOM     11  N   UNL     1       2.688   6.050  19.062  0.00  0.00    +0.000 N 
ENDROOT
BRANCH   1  13
ATOM     12  C   UNL     1       7.658   7.665  17.801  0.00  0.00    +0.000 C 
ATOM     13  O   UNL     1       6.678   7.340  16.815  0.00  0.00    +0.000 OA
ENDBRANCH   1  13
BRANCH   9  14
ATOM     14  C   UNL     1       0.796   2.802  19.316  0.00  0.00    +0.000 C 
ATOM     15  O   UNL     1       0.208   2.130  18.482  0.00  0.00    +0.000 OA
BRANCH  14  16
ATOM     16  O   UNL     1       0.501   2.735  20.629  0.00  0.00    +0.000 OA
ATOM     17  H   UNL     1       0.528   3.604  21.102  0.00  0.00    +0.000 HD
ENDBRANCH  14  16
ENDBRANCH   9  14
BRANCH   6  18
ATOM     18  C   UNL     1       7.407   4.667  16.034  0.00  0.00    +0.000 C 
BRANCH  18  19
ATOM     19  C   UNL     1       7.216   4.677  14.532  0.00  0.00    +0.000 A 
ATOM     20  C   UNL     1       7.893   5.601  13.722  0.00  0.00    +0.000 A 
ATOM     21  C   UNL     1       7.793   5.536  12.326  0.00  0.00    +0.000 A 
ATOM     22  C   UNL     1       7.016   4.548  11.722  0.00  0.00    +0.000 A 
ATOM     23  C   UNL     1       6.295   3.660  12.517  0.00  0.00    +0.000 A 
ATOM     24 CL   UNL     1       5.323   2.454  11.764  0.00  0.00    +0.000 Cl
ATOM     25  C   UNL     1       6.380   3.739  13.909  0.00  0.00    +0.000 A 
ATOM     26  F   UNL     1       5.656   2.904  14.670  0.00  0.00    +0.000 F 
ENDBRANCH  18  19
ENDBRANCH   6  18
BRANCH  11  27
ATOM     27  C   UNL     1       2.451   7.529  19.282  0.00  0.00    +0.000 C 
BRANCH  27  28
ATOM     28  C   UNL     1       1.487   7.760  20.478  0.00  0.00    +0.000 C 
BRANCH  28  29
ATOM     29  O   UNL     1       2.141   8.427  21.555  0.00  0.00    +0.000 OA
ATOM     30  H   UNL     1       2.231   9.357  21.280  0.00  0.00    +0.000 HD
ENDBRANCH  28  29
ENDBRANCH  27  28
BRANCH  27  31
ATOM     31  C   UNL     1       1.910   8.303  18.018  0.00  0.00    +0.000 C 
BRANCH  31  32
ATOM     32  C   UNL     1       1.205   9.655  18.342  0.00  0.00    +0.000 C 
ATOM     33  C   UNL     1       2.047  10.849  17.891  0.00  0.00    +0.000 C 
ATOM     34  C   UNL     1      -0.196   9.779  17.724  0.00  0.00    +0.000 C 
ENDBRANCH  31  32
ENDBRANCH  27  31
ENDBRANCH  11  27
TORSDOF 10
ENDMDL
MODEL 2
REMARK VINA RESULT:      -7.7      4.215      7.132
REMARK  Name = 
REMARK  13 active torsions:
REMARK  status: ('A' for Active; 'I' for Inactive)
REMARK    1  A    between atoms: C_1  and  O_2
REMARK    2  A    between atoms: O_2  and  C_3
REMARK    3  A    between atoms: C_8  and  C_9
REMARK    4  A    between atoms: C_9  and  C_10
REMARK    5  A    between atoms: C_20  and  C_21
REMARK    6  A    between atoms: C_21  and  O_23
REMARK    7  A    between atoms: N_25  and  C_26
REMARK    8  A    between atoms: C_26  and  C_27
REMARK    9  A    between atoms: C_26  and  C_29
REMARK   10  A    between atoms: C_27  and  O_28
REMARK   11  A    between atoms: C_29  and  C_30
REMARK   12  A    between atoms: C_30  and  C_31
REMARK   13  A    between atoms: C_30  and  C_32
REMARK                            x       y       z     vdW  Elec       q    Type
REMARK                         _______ _______ _______ _____ _____    ______ ____
ROOT
ATOM      1  C   UNL     1       1.774   7.859  19.060  0.00  0.00    +0.000 A 
ATOM      2  N   UNL     1       0.994   8.952  18.817  0.00  0.00    +0.000 NA
ATOM      3  C   UNL     1       0.434   9.612  19.847  0.00  0.00    +0.000 A 
ATOM      4  C   UNL     1       0.661   9.161  21.148  0.00  0.00    +0.000 A 
ATOM      5  C   UNL     1       1.491   8.052  21.391  0.00  0.00    +0.000 A 
ATOM      6  C   UNL     1       2.087   7.373  20.326  0.00  0.00    +0.000 A 
ATOM      7  C   UNL     1      -0.019   9.821  22.277  0.00  0.00    +0.000 A 
ATOM      8  O   UNL     1       0.095   9.403  23.428  0.00  0.00    +0.000 OA
ATOM      9  C   UNL     1      -0.863  10.993  21.997  0.00  0.00    +0.000 A 
ATOM     10  C   UNL     1      -0.986  11.372  20.713  0.00  0.00    +0.000 A 
ATOM     11  N   UNL     1      -0.394  10.760  19.614  0.00  0.00    +0.000 N 
ENDROOT
BRANCH   1  13
ATOM     12  C   UNL     1       3.516   7.635  17.534  0.00  0.00    +0.000 C 
ATOM     13  O   UNL     1       2.242   7.158  17.969  0.00  0.00    +0.000 OA
ENDBRANCH   1  13
BRANCH   9  14
ATOM     14  C   UNL     1      -1.606  11.721  23.048  0.00  0.00    +0.000 C 
ATOM     15  O   UNL     1      -2.657  11.322  23.527  0.00  0.00    +0.000 OA
BRANCH  14  16
ATOM     16  O   UNL     1      -1.030  12.873  23.446  0.00  0.00    +0.000 OA
ATOM     17  H   UNL     1      -0.820  13.503  22.711  0.00  0.00    +0.000 HD
ENDBRANCH  14  16
ENDBRANCH   9  14
BRANCH   6  18
ATOM     18  C   UNL     1       2.966   6.161  20.571  0.00  0.00    +0.000 C 
BRANCH  18  19
ATOM     19  C   UNL     1       2.367   4.844  20.127  0.00  0.00    +0.000 A 
ATOM     20  C   UNL     1       1.059   4.485  20.489  0.00  0.00    +0.000 A 
ATOM     21  C   UNL     1       0.474   3.315  19.987  0.00  0.00    +0.000 A 
ATOM     22  C   UNL     1       1.187   2.490  19.117  0.00  0.00    +0.000 A 
ATOM     23  C   UNL     1       2.504   2.807  18.795  0.00  0.00    +0.000 A 
ATOM     24 CL   UNL     1       3.384   1.773  17.734  0.00  0.00    +0.000 Cl
ATOM     25  C   UNL     1       3.092   3.964  19.312  0.00  0.00    +0.000 A 
ATOM     26  F   UNL     1       4.373   4.246  19.027  0.00  0.00    +0.000 F 
ENDBRANCH  18  19
ENDBRANCH   6  18
BRANCH  11  27
ATOM     27  C   UNL     1      -0.723  11.050  18.165  0.00  0.00    +0.000 C 
BRANCH  27  28
ATOM     28  C   UNL     1      -0.937  12.573  17.944  0.00  0.00    +0.000 C 
BRANCH  28  29
ATOM     29  O   UNL     1       0.299  13.285  17.979  0.00  0.00    +0.000 OA
ATOM     30  H   UNL     1       0.410  13.674  17.093  0.00  0.00    +0.000 HD
ENDBRANCH  28  29
ENDBRANCH  27  28
BRANCH  27  31
ATOM     31  C   UNL     1      -1.968  10.262  17.601  0.00  0.00    +0.000 C 
BRANCH  31  32
ATOM     32  C   UNL     1      -2.868  11.085  16.630  0.00  0.00    +0.000 C 
ATOM     33  C   UNL     1      -2.846  10.504  15.216  0.00  0.00    +0.000 C 
ATOM     34  C   UNL     1      -4.328  11.195  17.095  0.00  0.00    +0.000 C 
ENDBRANCH  31  32
ENDBRANCH  27  31
ENDBRANCH  11  27
TORSDOF 10
ENDMDL
MODEL 3
REMARK VINA RESULT:      -7.6      4.709      7.258
REMARK  Name = 
REMARK  13 active torsions:
REMARK  status: ('A' for Active; 'I' for Inactive)
REMARK    1  A    between atoms: C_1  and  O_2
REMARK    2  A    between atoms: O_2  and  C_3
REMARK    3  A    between atoms: C_8  and  C_9
REMARK    4  A    between atoms: C_9  and  C_10
REMARK    5  A    between atoms: C_20  and  C_21
REMARK    6  A    between atoms: C_21  and  O_23
REMARK    7  A    between atoms: N_25  and  C_26
REMARK    8  A    between atoms: C_26  and  C_27
REMARK    9  A    between atoms: C_26  and  C_29
REMARK   10  A    between atoms: C_27  and  O_28
REMARK   11  A    between atoms: C_29  and  C_30
REMARK   12  A    between atoms: C_30  and  C_31
REMARK   13  A    between atoms: C_30  and  C_32
REMARK                            x       y       z     vdW  Elec       q    Type
REMARK                         _______ _______ _______ _____ _____    ______ ____
ROOT
ATOM      1  C   UNL     1       1.958   8.528  18.382  0.00  0.00    +0.000 A 
ATOM      2  N   UNL     1       1.221   9.676  18.390  0.00  0.00    +0.000 NA
ATOM      3  C   UNL     1       0.646  10.090  19.534  0.00  0.00    +0.000 A 
ATOM      4  C   UNL     1       0.814   9.331  20.693  0.00  0.00    +0.000 A 
ATOM      5  C   UNL     1       1.602   8.166  20.683  0.00  0.00    +0.000 A 
ATOM      6  C   UNL     1       2.213   7.741  19.501  0.00  0.00    +0.000 A 
ATOM      7  C   UNL     1       0.117   9.726  21.930  0.00  0.00    +0.000 A 
ATOM      8  O   UNL     1       0.179   9.039  22.948  0.00  0.00    +0.000 OA
ATOM      9  C   UNL     1      -0.680  10.961  21.920  0.00  0.00    +0.000 A 
ATOM     10  C   UNL     1      -0.748  11.643  20.762  0.00  0.00    +0.000 A 
ATOM     11  N   UNL     1      -0.138  11.291  19.563  0.00  0.00    +0.000 N 
ENDROOT
BRANCH   1  13
ATOM     12  C   UNL     1       3.857   7.912  17.188  0.00  0.00    +0.000 C 
ATOM     13  O   UNL     1       2.442   8.093  17.165  0.00  0.00    +0.000 OA
ENDBRANCH   1  13
BRANCH   9  14
ATOM     14  C   UNL     1      -1.437  11.443  23.096  0.00  0.00    +0.000 C 
ATOM     15  O   UNL     1      -1.318  12.570  23.556  0.00  0.00    +0.000 OA
BRANCH  14  16
ATOM     16  O   UNL     1      -2.280  10.537  23.629  0.00  0.00    +0.000 OA
ATOM     17  H   UNL     1      -2.756  10.846  24.441  0.00  0.00    +0.000 HD
ENDBRANCH  14  16
ENDBRANCH   9  14
BRANCH   6  18
ATOM     18  C   UNL     1       3.045   6.473  19.468  0.00  0.00    +0.000 C 
BRANCH  18  19
ATOM     19  C   UNL     1       2.243   5.189  19.435  0.00  0.00    +0.000 A 
ATOM     20  C   UNL     1       1.744   4.678  18.227  0.00  0.00    +0.000 A 
ATOM     21  C   UNL     1       1.096   3.437  18.190  0.00  0.00    +0.000 A 
ATOM     22  C   UNL     1       0.937   2.691  19.358  0.00  0.00    +0.000 A 
ATOM     23  C   UNL     1       1.378   3.213  20.571  0.00  0.00    +0.000 A 
ATOM     24 CL   UNL     1       1.163   2.294  22.012  0.00  0.00    +0.000 Cl
ATOM     25  C   UNL     1       2.008   4.460  20.609  0.00  0.00    +0.000 A 
ATOM     26  F   UNL     1       2.399   4.974  21.786  0.00  0.00    +0.000 F 
ENDBRANCH  18  19
ENDBRANCH   6  18
BRANCH  11  27
ATOM     27  C   UNL     1      -0.408  11.934  18.220  0.00  0.00    +0.000 C 
BRANCH  27  28
ATOM     28  C   UNL     1      -0.032  13.441  18.245  0.00  0.00    +0.000 C 
BRANCH  28  29
ATOM     29  O   UNL     1       1.380  13.625  18.319  0.00  0.00    +0.000 OA
ATOM     30  H   UNL     1       1.669  13.166  19.129  0.00  0.00    +0.000 HD
ENDBRANCH  28  29
ENDBRANCH  27  28
BRANCH  27  31
ATOM     31  C   UNL     1      -1.889  11.775  17.699  0.00  0.00    +0.000 C 
BRANCH  31  32
ATOM     32  C   UNL     1      -2.187  10.412  17.006  0.00  0.00    +0.000 C 
ATOM     33  C   UNL     1      -3.200   9.587  17.801  0.00  0.00    +0.000 C 
ATOM     34  C   UNL     1      -2.696  10.557  15.564  0.00  0.00    +0.000 C 
ENDBRANCH  31  32
ENDBRANCH  27  31
ENDBRANCH  11  27
TORSDOF 10
ENDMDL
MODEL 4
REMARK VINA RESULT:      -7.5      1.131      1.524
REMARK  Name = 
REMARK  13 active torsions:
REMARK  status: ('A' for Active; 'I' for Inactive)
REMARK    1  A    between atoms: C_1  and  O_2
REMARK    2  A    between atoms: O_2  and  C_3
REMARK    3  A    between atoms: C_8  and  C_9
REMARK    4  A    between atoms: C_9  and  C_10
REMARK    5  A    between atoms: C_20  and  C_21
REMARK    6  A    between atoms: C_21  and  O_23
REMARK    7  A    between atoms: N_25  and  C_26
REMARK    8  A    between atoms: C_26  and  C_27
REMARK    9  A    between atoms: C_26  and  C_29
REMARK   10  A    between atoms: C_27  and  O_28
REMARK   11  A    between atoms: C_29  and  C_30
REMARK   12  A    between atoms: C_30  and  C_31
REMARK   13  A    between atoms: C_30  and  C_32
REMARK                            x       y       z     vdW  Elec       q    Type
REMARK                         _______ _______ _______ _____ _____    ______ ____
ROOT
ATOM      1  C   UNL     1       5.750   6.404  17.103  0.00  0.00    +0.000 A 
ATOM      2  N   UNL     1       4.691   6.717  17.905  0.00  0.00    +0.000 NA
ATOM      3  C   UNL     1       3.852   5.746  18.310  0.00  0.00    +0.000 A 
ATOM      4  C   UNL     1       4.082   4.432  17.895  0.00  0.00    +0.000 A 
ATOM      5  C   UNL     1       5.194   4.114  17.094  0.00  0.00    +0.000 A 
ATOM      6  C   UNL     1       6.075   5.117  16.684  0.00  0.00    +0.000 A 
ATOM      7  C   UNL     1       3.122   3.375  18.259  0.00  0.00    +0.000 A 
ATOM      8  O   UNL     1       3.249   2.224  17.847  0.00  0.00    +0.000 OA
ATOM      9  C   UNL     1       1.982   3.731  19.117  0.00  0.00    +0.000 A 
ATOM     10  C   UNL     1       1.871   5.017  19.495  0.00  0.00    +0.000 A 
ATOM     11  N   UNL     1       2.730   6.053  19.148  0.00  0.00    +0.000 N 
ENDROOT
BRANCH   1  13
ATOM     12  C   UNL     1       7.505   7.853  17.583  0.00  0.00    +0.000 C 
ATOM     13  O   UNL     1       6.520   7.447  16.633  0.00  0.00    +0.000 OA
ENDBRANCH   1  13
BRANCH   9  14
ATOM     14  C   UNL     1       0.947   2.757  19.528  0.00  0.00    +0.000 C 
ATOM     15  O   UNL     1       0.690   2.502  20.696  0.00  0.00    +0.000 OA
BRANCH  14  16
ATOM     16  O   UNL     1       0.297   2.166  18.506  0.00  0.00    +0.000 OA
ATOM     17  H   UNL     1       0.641   2.402  17.609  0.00  0.00    +0.000 HD
ENDBRANCH  14  16
ENDBRANCH   9  14
BRANCH   6  18
ATOM     18  C   UNL     1       7.264   4.793  15.800  0.00  0.00    +0.000 C 
BRANCH  18  19
ATOM     19  C   UNL     1       6.913   4.444  14.369  0.00  0.00    +0.000 A 
ATOM     20  C   UNL     1       5.927   3.489  14.078  0.00  0.00    +0.000 A 
ATOM     21  C   UNL     1       5.533   3.248  12.756  0.00  0.00    +0.000 A 
ATOM     22  C   UNL     1       6.119   3.959  11.708  0.00  0.00    +0.000 A 
ATOM     23  C   UNL     1       7.137   4.869  11.979  0.00  0.00    +0.000 A 
ATOM     24 CL   UNL     1       7.867   5.730  10.678  0.00  0.00    +0.000 Cl
ATOM     25  C   UNL     1       7.542   5.093  13.298  0.00  0.00    +0.000 A 
ATOM     26  F   UNL     1       8.548   5.945  13.550  0.00  0.00    +0.000 F 
ENDBRANCH  18  19
ENDBRANCH   6  18
BRANCH  11  27
ATOM     27  C   UNL     1       2.470   7.526  19.385  0.00  0.00    +0.000 C 
BRANCH  27  28
ATOM     28  C   UNL     1       1.489   7.727  20.573  0.00  0.00    +0.000 C 
BRANCH  28  29
ATOM     29  O   UNL     1       2.099   8.457  21.635  0.00  0.00    +0.000 OA
ATOM     30  H   UNL     1       1.963   7.925  22.440  0.00  0.00    +0.000 HD
ENDBRANCH  28  29
ENDBRANCH  27  28
BRANCH  27  31
ATOM     31  C   UNL     1       1.931   8.310  18.126  0.00  0.00    +0.000 C 
BRANCH  31  32
ATOM     32  C   UNL     1       1.236   9.664  18.458  0.00  0.00    +0.000 C 
ATOM     33  C   UNL     1       2.088  10.855  18.019  0.00  0.00    +0.000 C 
ATOM     34  C   UNL     1      -0.162   9.803  17.836  0.00  0.00    +0.000 C 
ENDBRANCH  31  32
ENDBRANCH  27  31
ENDBRANCH  11  27
TORSDOF 10
ENDMDL
MODEL 5
REMARK VINA RESULT:      -7.4      4.533      7.536
REMARK  Name = 
REMARK  13 active torsions:
REMARK  status: ('A' for Active; 'I' for Inactive)
REMARK    1  A    between atoms: C_1  and  O_2
REMARK    2  A    between atoms: O_2  and  C_3
REMARK    3  A    between atoms: C_8  and  C_9
REMARK    4  A    between atoms: C_9  and  C_10
REMARK    5  A    between atoms: C_20  and  C_21
REMARK    6  A    between atoms: C_21  and  O_23
REMARK    7  A    between atoms: N_25  and  C_26
REMARK    8  A    between atoms: C_26  and  C_27
REMARK    9  A    between atoms: C_26  and  C_29
REMARK   10  A    between atoms: C_27  and  O_28
REMARK   11  A    between atoms: C_29  and  C_30
REMARK   12  A    between atoms: C_30  and  C_31
REMARK   13  A    between atoms: C_30  and  C_32
REMARK                            x       y       z     vdW  Elec       q    Type
REMARK                         _______ _______ _______ _____ _____    ______ ____
ROOT
ATOM      1  C   UNL     1       1.346   8.575  19.379  0.00  0.00    +0.000 A 
ATOM      2  N   UNL     1       0.540   9.648  19.130  0.00  0.00    +0.000 NA
ATOM      3  C   UNL     1      -0.061  10.281  20.154  0.00  0.00    +0.000 A 
ATOM      4  C   UNL     1       0.151   9.822  21.456  0.00  0.00    +0.000 A 
ATOM      5  C   UNL     1       1.007   8.734  21.705  0.00  0.00    +0.000 A 
ATOM      6  C   UNL     1       1.645   8.084  20.646  0.00  0.00    +0.000 A 
ATOM      7  C   UNL     1      -0.571  10.450  22.576  0.00  0.00    +0.000 A 
ATOM      8  O   UNL     1      -0.471  10.022  23.724  0.00  0.00    +0.000 OA
ATOM      9  C   UNL     1      -1.442  11.601  22.290  0.00  0.00    +0.000 A 
ATOM     10  C   UNL     1      -1.548  11.991  21.008  0.00  0.00    +0.000 A 
ATOM     11  N   UNL     1      -0.916  11.407  19.915  0.00  0.00    +0.000 N 
ENDROOT
BRANCH   1  13
ATOM     12  C   UNL     1       2.807   8.687  17.572  0.00  0.00    +0.000 C 
ATOM     13  O   UNL     1       1.857   7.900  18.290  0.00  0.00    +0.000 OA
ENDBRANCH   1  13
BRANCH   9  14
ATOM     14  C   UNL     1      -2.228  12.296  23.332  0.00  0.00    +0.000 C 
ATOM     15  O   UNL     1      -1.978  13.429  23.718  0.00  0.00    +0.000 OA
BRANCH  14  16
ATOM     16  O   UNL     1      -3.256  11.580  23.830  0.00  0.00    +0.000 OA
ATOM     17  H   UNL     1      -3.141  10.599  23.768  0.00  0.00    +0.000 HD
ENDBRANCH  14  16
ENDBRANCH   9  14
BRANCH   6  18
ATOM     18  C   UNL     1       2.552   6.894  20.897  0.00  0.00    +0.000 C 
BRANCH  18  19
ATOM     19  C   UNL     1       2.163   5.633  20.156  0.00  0.00    +0.000 A 
ATOM     20  C   UNL     1       1.018   4.906  20.517  0.00  0.00    +0.000 A 
ATOM     21  C   UNL     1       0.605   3.802  19.761  0.00  0.00    +0.000 A 
ATOM     22  C   UNL     1       1.330   3.409  18.636  0.00  0.00    +0.000 A 
ATOM     23  C   UNL     1       2.499   4.089  18.300  0.00  0.00    +0.000 A 
ATOM     24 CL   UNL     1       3.399   3.588  16.919  0.00  0.00    +0.000 Cl
ATOM     25  C   UNL     1       2.919   5.178  19.068  0.00  0.00    +0.000 A 
ATOM     26  F   UNL     1       4.065   5.807  18.761  0.00  0.00    +0.000 F 
ENDBRANCH  18  19
ENDBRANCH   6  18
BRANCH  11  27
ATOM     27  C   UNL     1      -1.221  11.705  18.463  0.00  0.00    +0.000 C 
BRANCH  27  28
ATOM     28  C   UNL     1      -0.577  13.051  18.030  0.00  0.00    +0.000 C 
BRANCH  28  29
ATOM     29  O   UNL     1       0.844  12.957  17.976  0.00  0.00    +0.000 OA
ATOM     30  H   UNL     1       1.069  12.077  18.328  0.00  0.00    +0.000 HD
ENDBRANCH  28  29
ENDBRANCH  27  28
BRANCH  27  31
ATOM     31  C   UNL     1      -2.757  11.722  18.103  0.00  0.00    +0.000 C 
BRANCH  31  32
ATOM     32  C   UNL     1      -3.219  10.548  17.188  0.00  0.00    +0.000 C 
ATOM     33  C   UNL     1      -4.029  11.053  15.993  0.00  0.00    +0.000 C 
ATOM     34  C   UNL     1      -2.059   9.686  16.667  0.00  0.00    +0.000 C 
ENDBRANCH  31  32
ENDBRANCH  27  31
ENDBRANCH  11  27
TORSDOF 10
ENDMDL
MODEL 6
REMARK VINA RESULT:      -7.2      6.270     10.320
REMARK  Name = 
REMARK  13 active torsions:
REMARK  status: ('A' for Active; 'I' for Inactive)
REMARK    1  A    between atoms: C_1  and  O_2
REMARK    2  A    between atoms: O_2  and  C_3
REMARK    3  A    between atoms: C_8  and  C_9
REMARK    4  A    between atoms: C_9  and  C_10
REMARK    5  A    between atoms: C_20  and  C_21
REMARK    6  A    between atoms: C_21  and  O_23
REMARK    7  A    between atoms: N_25  and  C_26
REMARK    8  A    between atoms: C_26  and  C_27
REMARK    9  A    between atoms: C_26  and  C_29
REMARK   10  A    between atoms: C_27  and  O_28
REMARK   11  A    between atoms: C_29  and  C_30
REMARK   12  A    between atoms: C_30  and  C_31
REMARK   13  A    between atoms: C_30  and  C_32
REMARK                            x       y       z     vdW  Elec       q    Type
REMARK                         _______ _______ _______ _____ _____    ______ ____
ROOT
ATOM      1  C   UNL     1      -1.724  10.978  18.120  0.00  0.00    +0.000 A 
ATOM      2  N   UNL     1      -3.036  11.314  18.285  0.00  0.00    +0.000 NA
ATOM      3  C   UNL     1      -3.400  12.086  19.325  0.00  0.00    +0.000 A 
ATOM      4  C   UNL     1      -2.423  12.526  20.220  0.00  0.00    +0.000 A 
ATOM      5  C   UNL     1      -1.069  12.201  20.025  0.00  0.00    +0.000 A 
ATOM      6  C   UNL     1      -0.685  11.412  18.938  0.00  0.00    +0.000 A 
ATOM      7  C   UNL     1      -2.821  13.298  21.411  0.00  0.00    +0.000 A 
ATOM      8  O   UNL     1      -1.999  13.634  22.261  0.00  0.00    +0.000 OA
ATOM      9  C   UNL     1      -4.240  13.645  21.578  0.00  0.00    +0.000 A 
ATOM     10  C   UNL     1      -5.098  13.206  20.639  0.00  0.00    +0.000 A 
ATOM     11  N   UNL     1      -4.774  12.447  19.520  0.00  0.00    +0.000 N 
ENDROOT
BRANCH   1  13
ATOM     12  C   UNL     1      -2.543   9.843  16.262  0.00  0.00    +0.000 C 
ATOM     13  O   UNL     1      -1.416  10.103  17.099  0.00  0.00    +0.000 OA
ENDBRANCH   1  13
BRANCH   9  14
ATOM     14  C   UNL     1      -4.755  14.398  22.742  0.00  0.00    +0.000 C 
ATOM     15  O   UNL     1      -5.685  14.010  23.435  0.00  0.00    +0.000 OA
BRANCH  14  16
ATOM     16  O   UNL     1      -4.114  15.558  22.987  0.00  0.00    +0.000 OA
ATOM     17  H   UNL     1      -3.384  15.766  22.352  0.00  0.00    +0.000 HD
ENDBRANCH  14  16
ENDBRANCH   9  14
BRANCH   6  18
ATOM     18  C   UNL     1       0.769  11.032  18.728  0.00  0.00    +0.000 C 
BRANCH  18  19
ATOM     19  C   UNL     1       1.177   9.716  19.355  0.00  0.00    +0.000 A 
ATOM     20  C   UNL     1       0.847   9.416  20.686  0.00  0.00    +0.000 A 
ATOM     21  C   UNL     1       1.133   8.156  21.226  0.00  0.00    +0.000 A 
ATOM     22  C   UNL     1       1.753   7.180  20.445  0.00  0.00    +0.000 A 
ATOM     23  C   UNL     1       2.136   7.485  19.141  0.00  0.00    +0.000 A 
ATOM     24 CL   UNL     1       2.916   6.281  18.187  0.00  0.00    +0.000 Cl
ATOM     25  C   UNL     1       1.866   8.749  18.610  0.00  0.00    +0.000 A 
ATOM     26  F   UNL     1       2.268   9.050  17.365  0.00  0.00    +0.000 F 
ENDBRANCH  18  19
ENDBRANCH   6  18
BRANCH  11  27
ATOM     27  C   UNL     1      -5.770  11.768  18.603  0.00  0.00    +0.000 C 
BRANCH  27  28
ATOM     28  C   UNL     1      -6.006  12.616  17.323  0.00  0.00    +0.000 C 
BRANCH  28  29
ATOM     29  O   UNL     1      -4.955  12.438  16.376  0.00  0.00    +0.000 OA
ATOM     30  H   UNL     1      -5.380  12.433  15.500  0.00  0.00    +0.000 HD
ENDBRANCH  28  29
ENDBRANCH  27  28
BRANCH  27  31
ATOM     31  C   UNL     1      -7.159  11.434  19.271  0.00  0.00    +0.000 C 
BRANCH  31  32
ATOM     32  C   UNL     1      -7.069  10.503  20.518  0.00  0.00    +0.000 C 
ATOM     33  C   UNL     1      -7.916  11.032  21.676  0.00  0.00    +0.000 C 
ATOM     34  C   UNL     1      -7.481   9.052  20.230  0.00  0.00    +0.000 C 
ENDBRANCH  31  32
ENDBRANCH  27  31
ENDBRANCH  11  27
TORSDOF 10
ENDMDL
MODEL 7
REMARK VINA RESULT:      -7.2      5.693      8.884
REMARK  Name = 
REMARK  13 active torsions:
REMARK  status: ('A' for Active; 'I' for Inactive)
REMARK    1  A    between atoms: C_1  and  O_2
REMARK    2  A    between atoms: O_2  and  C_3
REMARK    3  A    between atoms: C_8  and  C_9
REMARK    4  A    between atoms: C_9  and  C_10
REMARK    5  A    between atoms: C_20  and  C_21
REMARK    6  A    between atoms: C_21  and  O_23
REMARK    7  A    between atoms: N_25  and  C_26
REMARK    8  A    between atoms: C_26  and  C_27
REMARK    9  A    between atoms: C_26  and  C_29
REMARK   10  A    between atoms: C_27  and  O_28
REMARK   11  A    between atoms: C_29  and  C_30
REMARK   12  A    between atoms: C_30  and  C_31
REMARK   13  A    between atoms: C_30  and  C_32
REMARK                            x       y       z     vdW  Elec       q    Type
REMARK                         _______ _______ _______ _____ _____    ______ ____
ROOT
ATOM      1  C   UNL     1       0.229  11.625  19.868  0.00  0.00    +0.000 A 
ATOM      2  N   UNL     1      -0.896  12.219  20.361  0.00  0.00    +0.000 NA
ATOM      3  C   UNL     1      -2.085  11.980  19.777  0.00  0.00    +0.000 A 
ATOM      4  C   UNL     1      -2.141  11.128  18.673  0.00  0.00    +0.000 A 
ATOM      5  C   UNL     1      -0.981  10.495  18.192  0.00  0.00    +0.000 A 
ATOM      6  C   UNL     1       0.253  10.729  18.803  0.00  0.00    +0.000 A 
ATOM      7  C   UNL     1      -3.422  10.928  17.972  0.00  0.00    +0.000 A 
ATOM      8  O   UNL     1      -3.495  10.248  16.951  0.00  0.00    +0.000 OA
ATOM      9  C   UNL     1      -4.624  11.582  18.511  0.00  0.00    +0.000 A 
ATOM     10  C   UNL     1      -4.471  12.353  19.602  0.00  0.00    +0.000 A 
ATOM     11  N   UNL     1      -3.279  12.599  20.275  0.00  0.00    +0.000 N 
ENDROOT
BRANCH   1  13
ATOM     12  C   UNL     1       1.721  13.367  20.256  0.00  0.00    +0.000 C 
ATOM     13  O   UNL     1       1.435  11.980  20.436  0.00  0.00    +0.000 OA
ENDBRANCH   1  13
BRANCH   9  14
ATOM     14  C   UNL     1      -5.957  11.468  17.880  0.00  0.00    +0.000 C 
ATOM     15  O   UNL     1      -6.887  10.853  18.380  0.00  0.00    +0.000 OA
BRANCH  14  16
ATOM     16  O   UNL     1      -6.072  12.103  16.696  0.00  0.00    +0.000 OA
ATOM     17  H   UNL     1      -6.735  12.839  16.688  0.00  0.00    +0.000 HD
ENDBRANCH  14  16
ENDBRANCH   9  14
BRANCH   6  18
ATOM     18  C   UNL     1       1.516  10.073  18.280  0.00  0.00    +0.000 C 
BRANCH  18  19
ATOM     19  C   UNL     1       1.827   8.722  18.888  0.00  0.00    +0.000 A 
ATOM     20  C   UNL     1       1.409   8.400  20.189  0.00  0.00    +0.000 A 
ATOM     21  C   UNL     1       1.606   7.113  20.705  0.00  0.00    +0.000 A 
ATOM     22  C   UNL     1       2.224   6.131  19.929  0.00  0.00    +0.000 A 
ATOM     23  C   UNL     1       2.693   6.454  18.658  0.00  0.00    +0.000 A 
ATOM     24 CL   UNL     1       3.470   5.242  17.713  0.00  0.00    +0.000 Cl
ATOM     25  C   UNL     1       2.512   7.744  18.153  0.00  0.00    +0.000 A 
ATOM     26  F   UNL     1       2.997   8.060  16.942  0.00  0.00    +0.000 F 
ENDBRANCH  18  19
ENDBRANCH   6  18
BRANCH  11  27
ATOM     27  C   UNL     1      -3.079  13.643  21.353  0.00  0.00    +0.000 C 
BRANCH  27  28
ATOM     28  C   UNL     1      -4.075  13.421  22.525  0.00  0.00    +0.000 C 
BRANCH  28  29
ATOM     29  O   UNL     1      -3.855  12.167  23.168  0.00  0.00    +0.000 OA
ATOM     30  H   UNL     1      -3.072  12.290  23.734  0.00  0.00    +0.000 HD
ENDBRANCH  28  29
ENDBRANCH  27  28
BRANCH  27  31
ATOM     31  C   UNL     1      -3.187  15.135  20.853  0.00  0.00    +0.000 C 
BRANCH  31  32
ATOM     32  C   UNL     1      -1.826  15.783  20.457  0.00  0.00    +0.000 C 
ATOM     33  C   UNL     1      -2.014  17.204  19.925  0.00  0.00    +0.000 C 
ATOM     34  C   UNL     1      -0.808  15.818  21.607  0.00  0.00    +0.000 C 
ENDBRANCH  31  32
ENDBRANCH  27  31
ENDBRANCH  11  27
TORSDOF 10
ENDMDL
MODEL 8
REMARK VINA RESULT:      -7.2      4.171      7.878
REMARK  Name = 
REMARK  13 active torsions:
REMARK  status: ('A' for Active; 'I' for Inactive)
REMARK    1  A    between atoms: C_1  and  O_2
REMARK    2  A    between atoms: O_2  and  C_3
REMARK    3  A    between atoms: C_8  and  C_9
REMARK    4  A    between atoms: C_9  and  C_10
REMARK    5  A    between atoms: C_20  and  C_21
REMARK    6  A    between atoms: C_21  and  O_23
REMARK    7  A    between atoms: N_25  and  C_26
REMARK    8  A    between atoms: C_26  and  C_27
REMARK    9  A    between atoms: C_26  and  C_29
REMARK   10  A    between atoms: C_27  and  O_28
REMARK   11  A    between atoms: C_29  and  C_30
REMARK   12  A    between atoms: C_30  and  C_31
REMARK   13  A    between atoms: C_30  and  C_32
REMARK                            x       y       z     vdW  Elec       q    Type
REMARK                         _______ _______ _______ _____ _____    ______ ____
ROOT
ATOM      1  C   UNL     1       2.226   9.265  17.897  0.00  0.00    +0.000 A 
ATOM      2  N   UNL     1       3.076   8.307  17.424  0.00  0.00    +0.000 NA
ATOM      3  C   UNL     1       3.149   7.116  18.045  0.00  0.00    +0.000 A 
ATOM      4  C   UNL     1       2.353   6.885  19.169  0.00  0.00    +0.000 A 
ATOM      5  C   UNL     1       1.457   7.867  19.631  0.00  0.00    +0.000 A 
ATOM      6  C   UNL     1       1.368   9.099  18.980  0.00  0.00    +0.000 A 
ATOM      7  C   UNL     1       2.488   5.619  19.910  0.00  0.00    +0.000 A 
ATOM      8  O   UNL     1       1.862   5.413  20.948  0.00  0.00    +0.000 OA
ATOM      9  C   UNL     1       3.414   4.600  19.392  0.00  0.00    +0.000 A 
ATOM     10  C   UNL     1       4.107   4.905  18.280  0.00  0.00    +0.000 A 
ATOM     11  N   UNL     1       4.039   6.098  17.569  0.00  0.00    +0.000 N 
ENDROOT
BRANCH   1  13
ATOM     12  C   UNL     1       2.613  11.538  18.205  0.00  0.00    +0.000 C 
ATOM     13  O   UNL     1       2.262  10.502  17.288  0.00  0.00    +0.000 OA
ENDBRANCH   1  13
BRANCH   9  14
ATOM     14  C   UNL     1       3.644   3.303  20.063  0.00  0.00    +0.000 C 
ATOM     15  O   UNL     1       4.713   2.710  20.032  0.00  0.00    +0.000 OA
BRANCH  14  16
ATOM     16  O   UNL     1       2.575   2.816  20.724  0.00  0.00    +0.000 OA
ATOM     17  H   UNL     1       1.821   3.452  20.810  0.00  0.00    +0.000 HD
ENDBRANCH  14  16
ENDBRANCH   9  14
BRANCH   6  18
ATOM     18  C   UNL     1       0.425  10.177  19.481  0.00  0.00    +0.000 C 
BRANCH  18  19
ATOM     19  C   UNL     1      -0.837  10.345  18.661  0.00  0.00    +0.000 A 
ATOM     20  C   UNL     1      -1.013   9.653  17.453  0.00  0.00    +0.000 A 
ATOM     21  C   UNL     1      -2.225   9.730  16.755  0.00  0.00    +0.000 A 
ATOM     22  C   UNL     1      -3.276  10.500  17.255  0.00  0.00    +0.000 A 
ATOM     23  C   UNL     1      -3.094  11.235  18.423  0.00  0.00    +0.000 A 
ATOM     24 CL   UNL     1      -4.391  12.197  19.025  0.00  0.00    +0.000 Cl
ATOM     25  C   UNL     1      -1.878  11.171  19.108  0.00  0.00    +0.000 A 
ATOM     26  F   UNL     1      -1.695  11.909  20.214  0.00  0.00    +0.000 F 
ENDBRANCH  18  19
ENDBRANCH   6  18
BRANCH  11  27
ATOM     27  C   UNL     1       4.985   6.515  16.463  0.00  0.00    +0.000 C 
BRANCH  27  28
ATOM     28  C   UNL     1       5.125   5.388  15.404  0.00  0.00    +0.000 C 
BRANCH  28  29
ATOM     29  O   UNL     1       6.221   5.630  14.524  0.00  0.00    +0.000 OA
ATOM     30  H   UNL     1       7.010   5.700  15.091  0.00  0.00    +0.000 HD
ENDBRANCH  28  29
ENDBRANCH  27  28
BRANCH  27  31
ATOM     31  C   UNL     1       6.420   6.951  16.954  0.00  0.00    +0.000 C 
BRANCH  31  32
ATOM     32  C   UNL     1       7.014   6.057  18.084  0.00  0.00    +0.000 C 
ATOM     33  C   UNL     1       7.550   4.736  17.532  0.00  0.00    +0.000 C 
ATOM     34  C   UNL     1       8.130   6.745  18.885  0.00  0.00    +0.000 C 
ENDBRANCH  31  32
ENDBRANCH  27  31
ENDBRANCH  11  27
TORSDOF 10
ENDMDL
MODEL 9
REMARK VINA RESULT:      -7.2      3.927      7.784
REMARK  Name = 
REMARK  13 active torsions:
REMARK  status: ('A' for Active; 'I' for Inactive)
REMARK    1  A    between atoms: C_1  and  O_2
REMARK    2  A    between atoms: O_2  and  C_3
REMARK    3  A    between atoms: C_8  and  C_9
REMARK    4  A    between atoms: C_9  and  C_10
REMARK    5  A    between atoms: C_20  and  C_21
REMARK    6  A    between atoms: C_21  and  O_23
REMARK    7  A    between atoms: N_25  and  C_26
REMARK    8  A    between atoms: C_26  and  C_27
REMARK    9  A    between atoms: C_26  and  C_29
REMARK   10  A    between atoms: C_27  and  O_28
REMARK   11  A    between atoms: C_29  and  C_30
REMARK   12  A    between atoms: C_30  and  C_31
REMARK   13  A    between atoms: C_30  and  C_32
REMARK                            x       y       z     vdW  Elec       q    Type
REMARK                         _______ _______ _______ _____ _____    ______ ____
ROOT
ATOM      1  C   UNL     1       2.130   7.861  19.366  0.00  0.00    +0.000 A 
ATOM      2  N   UNL     1       2.638   6.596  19.422  0.00  0.00    +0.000 NA
ATOM      3  C   UNL     1       3.506   6.184  18.479  0.00  0.00    +0.000 A 
ATOM      4  C   UNL     1       3.866   7.064  17.457  0.00  0.00    +0.000 A 
ATOM      5  C   UNL     1       3.362   8.376  17.424  0.00  0.00    +0.000 A 
ATOM      6  C   UNL     1       2.473   8.812  18.409  0.00  0.00    +0.000 A 
ATOM      7  C   UNL     1       4.745   6.596  16.370  0.00  0.00    +0.000 A 
ATOM      8  O   UNL     1       5.020   7.316  15.413  0.00  0.00    +0.000 OA
ATOM      9  C   UNL     1       5.278   5.227  16.441  0.00  0.00    +0.000 A 
ATOM     10  C   UNL     1       4.901   4.471  17.488  0.00  0.00    +0.000 A 
ATOM     11  N   UNL     1       4.048   4.857  18.516  0.00  0.00    +0.000 N 
ENDROOT
BRANCH   1  13
ATOM     12  C   UNL     1       1.730   8.397  21.594  0.00  0.00    +0.000 C 
ATOM     13  O   UNL     1       1.170   8.201  20.296  0.00  0.00    +0.000 OA
ENDBRANCH   1  13
BRANCH   9  14
ATOM     14  C   UNL     1       6.152   4.646  15.399  0.00  0.00    +0.000 C 
ATOM     15  O   UNL     1       7.337   4.404  15.574  0.00  0.00    +0.000 OA
BRANCH  14  16
ATOM     16  O   UNL     1       5.536   4.396  14.226  0.00  0.00    +0.000 OA
ATOM     17  H   UNL     1       6.056   3.833  13.600  0.00  0.00    +0.000 HD
ENDBRANCH  14  16
ENDBRANCH   9  14
BRANCH   6  18
ATOM     18  C   UNL     1       1.901  10.217  18.374  0.00  0.00    +0.000 C 
BRANCH  18  19
ATOM     19  C   UNL     1       0.397  10.285  18.211  0.00  0.00    +0.000 A 
ATOM     20  C   UNL     1      -0.271   9.447  17.305  0.00  0.00    +0.000 A 
ATOM     21  C   UNL     1      -1.670   9.441  17.237  0.00  0.00    +0.000 A 
ATOM     22  C   UNL     1      -2.419  10.270  18.072  0.00  0.00    +0.000 A 
ATOM     23  C   UNL     1      -1.765  11.146  18.935  0.00  0.00    +0.000 A 
ATOM     24 CL   UNL     1      -2.696  12.180  19.951  0.00  0.00    +0.000 Cl
ATOM     25  C   UNL     1      -0.369  11.165  18.988  0.00  0.00    +0.000 A 
ATOM     26  F   UNL     1       0.256  12.035  19.796  0.00  0.00    +0.000 F 
ENDBRANCH  18  19
ENDBRANCH   6  18
BRANCH  11  27
ATOM     27  C   UNL     1       3.452   3.931  19.555  0.00  0.00    +0.000 C 
BRANCH  27  28
ATOM     28  C   UNL     1       4.499   2.883  20.024  0.00  0.00    +0.000 C 
BRANCH  28  29
ATOM     29  O   UNL     1       4.365   1.656  19.310  0.00  0.00    +0.000 OA
ATOM     30  H   UNL     1       4.338   1.896  18.366  0.00  0.00    +0.000 HD
ENDBRANCH  28  29
ENDBRANCH  27  28
BRANCH  27  31
ATOM     31  C   UNL     1       2.137   3.187  19.098  0.00  0.00    +0.000 C 
BRANCH  31  32
ATOM     32  C   UNL     1       0.978   3.227  20.139  0.00  0.00    +0.000 C 
ATOM     33  C   UNL     1       1.378   2.549  21.450  0.00  0.00    +0.000 C 
ATOM     34  C   UNL     1       0.484   4.648  20.451  0.00  0.00    +0.000 C 
ENDBRANCH  31  32
ENDBRANCH  27  31
ENDBRANCH  11  27
TORSDOF 10
ENDMDL
