MODEL 1
REMARK VINA RESULT:      -6.5      0.000      0.000
REMARK  Name = 
REMARK  8 active torsions:
REMARK  status: ('A' for Active; 'I' for Inactive)
REMARK    1  A    between atoms: C_1  and  N_2
REMARK    2  A    between atoms: N_2  and  C_3
REMARK    3  A    between atoms: C_3  and  C_4
REMARK    4  A    between atoms: C_4  and  C_5
REMARK    5  A    between atoms: C_5  and  C_6
REMARK    6  A    between atoms: C_6  and  O_7
REMARK    7  A    between atoms: O_7  and  C_8
REMARK    8  A    between atoms: C_13  and  C_14
REMARK                            x       y       z     vdW  Elec       q    Type
REMARK                         _______ _______ _______ _____ _____    ______ ____
ROOT
ATOM      1  C   UNL     1       3.004   5.093  17.796  0.00  0.00    +0.000 A 
ATOM      2  C   UNL     1       3.868   4.206  17.129  0.00  0.00    +0.000 A 
ATOM      3  C   UNL     1       5.037   4.656  16.522  0.00  0.00    +0.000 A 
ATOM      4  C   UNL     1       5.338   6.007  16.539  0.00  0.00    +0.000 A 
ATOM      5  C   UNL     1       4.466   6.905  17.159  0.00  0.00    +0.000 A 
ATOM      6  C   UNL     1       3.288   6.482  17.820  0.00  0.00    +0.000 A 
ENDROOT
BRANCH   6   7
ATOM      7  C   UNL     1       2.458   7.503  18.525  0.00  0.00    +0.000 A 
ATOM      8  C   UNL     1       1.931   8.637  17.883  0.00  0.00    +0.000 A 
ATOM      9  C   UNL     1       1.157   9.580  18.571  0.00  0.00    +0.000 A 
ATOM     10  C   UNL     1       0.896   9.419  19.928  0.00  0.00    +0.000 A 
ATOM     11  C   UNL     1       1.414   8.318  20.598  0.00  0.00    +0.000 A 
ATOM     12  C   UNL     1       2.177   7.374  19.902  0.00  0.00    +0.000 A 
ENDBRANCH   6   7
BRANCH   1  13
ATOM     13  O   UNL     1       1.854   4.647  18.405  0.00  0.00    +0.000 OA
BRANCH  13  14
ATOM     14  C   UNL     1       1.402   3.346  18.022  0.00  0.00    +0.000 C 
BRANCH  14  15
ATOM     15  C   UNL     1       0.725   2.669  19.210  0.00  0.00    +0.000 C 
BRANCH  15  16
ATOM     16  C   UNL     1       1.084   3.357  20.535  0.00  0.00    +0.000 C 
BRANCH  16  17
ATOM     17  C   UNL     1       2.271   2.706  21.252  0.00  0.00    +0.000 C 
BRANCH  17  19
ATOM     18  C   UNL     1       4.344   2.145  20.159  0.00  0.00    +0.000 C 
ATOM     19  N   UNL     1       3.542   3.211  20.737  0.00  0.00    +0.000 NA
ATOM     20  H   UNL     1       3.370   3.916  20.021  0.00  0.00    +0.000 HD
ENDBRANCH  17  19
ENDBRANCH  16  17
ENDBRANCH  15  16
ENDBRANCH  14  15
ENDBRANCH  13  14
ENDBRANCH   1  13
TORSDOF 7
ENDMDL
MODEL 2
REMARK VINA RESULT:      -6.5      3.817      6.207
REMARK  Name = 
REMARK  8 active torsions:
REMARK  status: ('A' for Active; 'I' for Inactive)
REMARK    1  A    between atoms: C_1  and  N_2
REMARK    2  A    between atoms: N_2  and  C_3
REMARK    3  A    between atoms: C_3  and  C_4
REMARK    4  A    between atoms: C_4  and  C_5
REMARK    5  A    between atoms: C_5  and  C_6
REMARK    6  A    between atoms: C_6  and  O_7
REMARK    7  A    between atoms: O_7  and  C_8
REMARK    8  A    between atoms: C_13  and  C_14
REMARK                            x       y       z     vdW  Elec       q    Type
REMARK                         _______ _______ _______ _____ _____    ______ ____
ROOT
ATOM      1  C   UNL     1       5.960   4.291  17.014  0.00  0.00    +0.000 A 
ATOM      2  C   UNL     1       7.254   4.842  17.021  0.00  0.00    +0.000 A 
ATOM      3  C   UNL     1       7.757   5.487  18.148  0.00  0.00    +0.000 A 
ATOM      4  C   UNL     1       6.959   5.625  19.269  0.00  0.00    +0.000 A 
ATOM      5  C   UNL     1       5.656   5.123  19.260  0.00  0.00    +0.000 A 
ATOM      6  C   UNL     1       5.120   4.427  18.149  0.00  0.00    +0.000 A 
ENDROOT
BRANCH   6   7
ATOM      7  C   UNL     1       3.746   3.854  18.259  0.00  0.00    +0.000 A 
ATOM      8  C   UNL     1       2.597   4.529  17.813  0.00  0.00    +0.000 A 
ATOM      9  C   UNL     1       1.319   3.967  17.931  0.00  0.00    +0.000 A 
ATOM     10  C   UNL     1       1.155   2.713  18.509  0.00  0.00    +0.000 A 
ATOM     11  C   UNL     1       2.267   2.024  18.976  0.00  0.00    +0.000 A 
ATOM     12  C   UNL     1       3.542   2.586  18.845  0.00  0.00    +0.000 A 
ENDBRANCH   6   7
BRANCH   1  13
ATOM     13  O   UNL     1       5.466   3.643  15.906  0.00  0.00    +0.000 OA
BRANCH  13  14
ATOM     14  C   UNL     1       5.501   4.377  14.679  0.00  0.00    +0.000 C 
BRANCH  14  15
ATOM     15  C   UNL     1       6.448   3.691  13.700  0.00  0.00    +0.000 C 
BRANCH  15  16
ATOM     16  C   UNL     1       5.903   3.726  12.265  0.00  0.00    +0.000 C 
BRANCH  16  17
ATOM     17  C   UNL     1       5.424   2.358  11.767  0.00  0.00    +0.000 C 
BRANCH  17  19
ATOM     18  C   UNL     1       6.159   0.127  11.232  0.00  0.00    +0.000 C 
ATOM     19  N   UNL     1       6.548   1.523  11.351  0.00  0.00    +0.000 NA
ATOM     20  H   UNL     1       6.901   1.842  10.450  0.00  0.00    +0.000 HD
ENDBRANCH  17  19
ENDBRANCH  16  17
ENDBRANCH  15  16
ENDBRANCH  14  15
ENDBRANCH  13  14
ENDBRANCH   1  13
TORSDOF 7
ENDMDL
MODEL 3
REMARK VINA RESULT:      -6.5      1.777      4.741
REMARK  Name = 
REMARK  8 active torsions:
REMARK  status: ('A' for Active; 'I' for Inactive)
REMARK    1  A    between atoms: C_1  and  N_2
REMARK    2  A    between atoms: N_2  and  C_3
REMARK    3  A    between atoms: C_3  and  C_4
REMARK    4  A    between atoms: C_4  and  C_5
REMARK    5  A    between atoms: C_5  and  C_6
REMARK    6  A    between atoms: C_6  and  O_7
REMARK    7  A    between atoms: O_7  and  C_8
REMARK    8  A    between atoms: C_13  and  C_14
REMARK                            x       y       z     vdW  Elec       q    Type
REMARK                         _______ _______ _______ _____ _____    ______ ____
ROOT
ATOM      1  C   UNL     1       4.187   5.037  18.917  0.00  0.00    +0.000 A 
ATOM      2  C   UNL     1       3.293   5.515  19.892  0.00  0.00    +0.000 A 
ATOM      3  C   UNL     1       2.543   6.669  19.680  0.00  0.00    +0.000 A 
ATOM      4  C   UNL     1       2.707   7.383  18.506  0.00  0.00    +0.000 A 
ATOM      5  C   UNL     1       3.624   6.944  17.548  0.00  0.00    +0.000 A 
ATOM      6  C   UNL     1       4.377   5.755  17.710  0.00  0.00    +0.000 A 
ENDROOT
BRANCH   6   7
ATOM      7  C   UNL     1       5.273   5.320  16.598  0.00  0.00    +0.000 A 
ATOM      8  C   UNL     1       6.641   5.639  16.548  0.00  0.00    +0.000 A 
ATOM      9  C   UNL     1       7.458   5.218  15.491  0.00  0.00    +0.000 A 
ATOM     10  C   UNL     1       6.924   4.473  14.445  0.00  0.00    +0.000 A 
ATOM     11  C   UNL     1       5.573   4.153  14.453  0.00  0.00    +0.000 A 
ATOM     12  C   UNL     1       4.764   4.567  15.518  0.00  0.00    +0.000 A 
ENDBRANCH   6   7
BRANCH   1  13
ATOM     13  O   UNL     1       4.919   3.890  19.121  0.00  0.00    +0.000 OA
BRANCH  13  14
ATOM     14  C   UNL     1       4.168   2.697  19.362  0.00  0.00    +0.000 C 
BRANCH  14  15
ATOM     15  C   UNL     1       3.492   2.249  18.071  0.00  0.00    +0.000 C 
BRANCH  15  16
ATOM     16  C   UNL     1       2.039   2.740  17.990  0.00  0.00    +0.000 C 
BRANCH  16  17
ATOM     17  C   UNL     1       1.121   2.082  19.025  0.00  0.00    +0.000 C 
BRANCH  17  19
ATOM     18  C   UNL     1       1.225   2.860  21.303  0.00  0.00    +0.000 C 
ATOM     19  N   UNL     1       0.628   3.059  19.993  0.00  0.00    +0.000 NA
ATOM     20  H   UNL     1       0.845   4.002  19.674  0.00  0.00    +0.000 HD
ENDBRANCH  17  19
ENDBRANCH  16  17
ENDBRANCH  15  16
ENDBRANCH  14  15
ENDBRANCH  13  14
ENDBRANCH   1  13
TORSDOF 7
ENDMDL
MODEL 4
REMARK VINA RESULT:      -6.4      2.360      6.058
REMARK  Name = 
REMARK  8 active torsions:
REMARK  status: ('A' for Active; 'I' for Inactive)
REMARK    1  A    between atoms: C_1  and  N_2
REMARK    2  A    between atoms: N_2  and  C_3
REMARK    3  A    between atoms: C_3  and  C_4
REMARK    4  A    between atoms: C_4  and  C_5
REMARK    5  A    between atoms: C_5  and  C_6
REMARK    6  A    between atoms: C_6  and  O_7
REMARK    7  A    between atoms: O_7  and  C_8
REMARK    8  A    between atoms: C_13  and  C_14
REMARK                            x       y       z     vdW  Elec       q    Type
REMARK                         _______ _______ _______ _____ _____    ______ ____
ROOT
ATOM      1  C   UNL     1       2.606   4.669  19.460  0.00  0.00    +0.000 A 
ATOM      2  C   UNL     1       1.396   4.283  20.065  0.00  0.00    +0.000 A 
ATOM      3  C   UNL     1       0.808   3.053  19.782  0.00  0.00    +0.000 A 
ATOM      4  C   UNL     1       1.401   2.210  18.859  0.00  0.00    +0.000 A 
ATOM      5  C   UNL     1       2.578   2.600  18.217  0.00  0.00    +0.000 A 
ATOM      6  C   UNL     1       3.227   3.825  18.506  0.00  0.00    +0.000 A 
ENDROOT
BRANCH   6   7
ATOM      7  C   UNL     1       4.525   4.123  17.830  0.00  0.00    +0.000 A 
ATOM      8  C   UNL     1       5.706   4.413  18.535  0.00  0.00    +0.000 A 
ATOM      9  C   UNL     1       6.910   4.689  17.875  0.00  0.00    +0.000 A 
ATOM     10  C   UNL     1       6.963   4.695  16.485  0.00  0.00    +0.000 A 
ATOM     11  C   UNL     1       5.811   4.429  15.756  0.00  0.00    +0.000 A 
ATOM     12  C   UNL     1       4.614   4.142  16.422  0.00  0.00    +0.000 A 
ENDBRANCH   6   7
BRANCH   1  13
ATOM     13  O   UNL     1       3.193   5.879  19.749  0.00  0.00    +0.000 OA
BRANCH  13  14
ATOM     14  C   UNL     1       2.427   7.044  19.431  0.00  0.00    +0.000 C 
BRANCH  14  15
ATOM     15  C   UNL     1       2.765   7.508  18.017  0.00  0.00    +0.000 C 
BRANCH  15  16
ATOM     16  C   UNL     1       2.265   8.936  17.754  0.00  0.00    +0.000 C 
BRANCH  16  17
ATOM     17  C   UNL     1       1.190   9.392  18.746  0.00  0.00    +0.000 C 
BRANCH  17  19
ATOM     18  C   UNL     1       0.028  11.502  18.769  0.00  0.00    +0.000 C 
ATOM     19  N   UNL     1       0.185  10.226  18.091  0.00  0.00    +0.000 NA
ATOM     20  H   UNL     1       0.457  10.401  17.124  0.00  0.00    +0.000 HD
ENDBRANCH  17  19
ENDBRANCH  16  17
ENDBRANCH  15  16
ENDBRANCH  14  15
ENDBRANCH  13  14
ENDBRANCH   1  13
TORSDOF 7
ENDMDL
MODEL 5
REMARK VINA RESULT:      -6.4      2.691      5.611
REMARK  Name = 
REMARK  8 active torsions:
REMARK  status: ('A' for Active; 'I' for Inactive)
REMARK    1  A    between atoms: C_1  and  N_2
REMARK    2  A    between atoms: N_2  and  C_3
REMARK    3  A    between atoms: C_3  and  C_4
REMARK    4  A    between atoms: C_4  and  C_5
REMARK    5  A    between atoms: C_5  and  C_6
REMARK    6  A    between atoms: C_6  and  O_7
REMARK    7  A    between atoms: O_7  and  C_8
REMARK    8  A    between atoms: C_13  and  C_14
REMARK                            x       y       z     vdW  Elec       q    Type
REMARK                         _______ _______ _______ _____ _____    ______ ____
ROOT
ATOM      1  C   UNL     1       2.946   5.417  18.805  0.00  0.00    +0.000 A 
ATOM      2  C   UNL     1       1.741   4.699  18.697  0.00  0.00    +0.000 A 
ATOM      3  C   UNL     1       1.640   3.580  17.875  0.00  0.00    +0.000 A 
ATOM      4  C   UNL     1       2.730   3.187  17.120  0.00  0.00    +0.000 A 
ATOM      5  C   UNL     1       3.919   3.917  17.183  0.00  0.00    +0.000 A 
ATOM      6  C   UNL     1       4.074   5.038  18.035  0.00  0.00    +0.000 A 
ENDROOT
BRANCH   6   7
ATOM      7  C   UNL     1       5.406   5.709  18.098  0.00  0.00    +0.000 A 
ATOM      8  C   UNL     1       5.771   6.769  17.250  0.00  0.00    +0.000 A 
ATOM      9  C   UNL     1       7.029   7.378  17.332  0.00  0.00    +0.000 A 
ATOM     10  C   UNL     1       7.965   6.935  18.260  0.00  0.00    +0.000 A 
ATOM     11  C   UNL     1       7.645   5.878  19.103  0.00  0.00    +0.000 A 
ATOM     12  C   UNL     1       6.382   5.281  19.024  0.00  0.00    +0.000 A 
ENDBRANCH   6   7
BRANCH   1  13
ATOM     13  O   UNL     1       3.050   6.517  19.625  0.00  0.00    +0.000 OA
BRANCH  13  14
ATOM     14  C   UNL     1       2.085   7.551  19.418  0.00  0.00    +0.000 C 
BRANCH  14  15
ATOM     15  C   UNL     1       2.400   8.291  18.121  0.00  0.00    +0.000 C 
BRANCH  15  16
ATOM     16  C   UNL     1       1.319   9.328  17.783  0.00  0.00    +0.000 C 
BRANCH  16  17
ATOM     17  C   UNL     1       1.208  10.447  18.823  0.00  0.00    +0.000 C 
BRANCH  17  19
ATOM     18  C   UNL     1      -1.054  10.231  18.021  0.00  0.00    +0.000 C 
ATOM     19  N   UNL     1      -0.168  10.924  18.942  0.00  0.00    +0.000 NA
ATOM     20  H   UNL     1      -0.504  10.778  19.893  0.00  0.00    +0.000 HD
ENDBRANCH  17  19
ENDBRANCH  16  17
ENDBRANCH  15  16
ENDBRANCH  14  15
ENDBRANCH  13  14
ENDBRANCH   1  13
TORSDOF 7
ENDMDL
MODEL 6
REMARK VINA RESULT:      -6.4      2.395      4.583
REMARK  Name = 
REMARK  8 active torsions:
REMARK  status: ('A' for Active; 'I' for Inactive)
REMARK    1  A    between atoms: C_1  and  N_2
REMARK    2  A    between atoms: N_2  and  C_3
REMARK    3  A    between atoms: C_3  and  C_4
REMARK    4  A    between atoms: C_4  and  C_5
REMARK    5  A    between atoms: C_5  and  C_6
REMARK    6  A    between atoms: C_6  and  O_7
REMARK    7  A    between atoms: O_7  and  C_8
REMARK    8  A    between atoms: C_13  and  C_14
REMARK                            x       y       z     vdW  Elec       q    Type
REMARK                         _______ _______ _______ _____ _____    ______ ____
ROOT
ATOM      1  C   UNL     1       3.840   4.012  19.144  0.00  0.00    +0.000 A 
ATOM      2  C   UNL     1       4.004   2.625  18.978  0.00  0.00    +0.000 A 
ATOM      3  C   UNL     1       2.928   1.806  18.642  0.00  0.00    +0.000 A 
ATOM      4  C   UNL     1       1.666   2.359  18.508  0.00  0.00    +0.000 A 
ATOM      5  C   UNL     1       1.482   3.727  18.715  0.00  0.00    +0.000 A 
ATOM      6  C   UNL     1       2.556   4.599  19.019  0.00  0.00    +0.000 A 
ENDROOT
BRANCH   6   7
ATOM      7  C   UNL     1       2.277   6.060  19.143  0.00  0.00    +0.000 A 
ATOM      8  C   UNL     1       1.828   6.656  20.334  0.00  0.00    +0.000 A 
ATOM      9  C   UNL     1       1.574   8.031  20.420  0.00  0.00    +0.000 A 
ATOM     10  C   UNL     1       1.752   8.849  19.309  0.00  0.00    +0.000 A 
ATOM     11  C   UNL     1       2.180   8.291  18.111  0.00  0.00    +0.000 A 
ATOM     12  C   UNL     1       2.443   6.919  18.035  0.00  0.00    +0.000 A 
ENDBRANCH   6   7
BRANCH   1  13
ATOM     13  O   UNL     1       4.904   4.822  19.464  0.00  0.00    +0.000 OA
BRANCH  13  14
ATOM     14  C   UNL     1       6.095   4.633  18.694  0.00  0.00    +0.000 C 
BRANCH  14  15
ATOM     15  C   UNL     1       7.142   5.661  19.110  0.00  0.00    +0.000 C 
BRANCH  15  16
ATOM     16  C   UNL     1       7.472   6.630  17.966  0.00  0.00    +0.000 C 
BRANCH  16  17
ATOM     17  C   UNL     1       6.652   6.371  16.699  0.00  0.00    +0.000 C 
BRANCH  17  19
ATOM     18  C   UNL     1       6.924   4.660  15.024  0.00  0.00    +0.000 C 
ATOM     19  N   UNL     1       7.492   5.859  15.619  0.00  0.00    +0.000 NA
ATOM     20  H   UNL     1       7.593   6.567  14.894  0.00  0.00    +0.000 HD
ENDBRANCH  17  19
ENDBRANCH  16  17
ENDBRANCH  15  16
ENDBRANCH  14  15
ENDBRANCH  13  14
ENDBRANCH   1  13
TORSDOF 7
ENDMDL
MODEL 7
REMARK VINA RESULT:      -6.4      2.673      5.711
REMARK  Name = 
REMARK  8 active torsions:
REMARK  status: ('A' for Active; 'I' for Inactive)
REMARK    1  A    between atoms: C_1  and  N_2
REMARK    2  A    between atoms: N_2  and  C_3
REMARK    3  A    between atoms: C_3  and  C_4
REMARK    4  A    between atoms: C_4  and  C_5
REMARK    5  A    between atoms: C_5  and  C_6
REMARK    6  A    between atoms: C_6  and  O_7
REMARK    7  A    between atoms: O_7  and  C_8
REMARK    8  A    between atoms: C_13  and  C_14
REMARK                            x       y       z     vdW  Elec       q    Type
REMARK                         _______ _______ _______ _____ _____    ______ ____
ROOT
ATOM      1  C   UNL     1       2.981   5.420  18.823  0.00  0.00    +0.000 A 
ATOM      2  C   UNL     1       1.772   4.709  18.713  0.00  0.00    +0.000 A 
ATOM      3  C   UNL     1       1.671   3.579  17.905  0.00  0.00    +0.000 A 
ATOM      4  C   UNL     1       2.767   3.169  17.165  0.00  0.00    +0.000 A 
ATOM      5  C   UNL     1       3.959   3.893  17.230  0.00  0.00    +0.000 A 
ATOM      6  C   UNL     1       4.113   5.024  18.069  0.00  0.00    +0.000 A 
ENDROOT
BRANCH   6   7
ATOM      7  C   UNL     1       5.450   5.687  18.136  0.00  0.00    +0.000 A 
ATOM      8  C   UNL     1       6.442   5.317  19.060  0.00  0.00    +0.000 A 
ATOM      9  C   UNL     1       7.687   5.958  19.100  0.00  0.00    +0.000 A 
ATOM     10  C   UNL     1       7.970   6.998  18.221  0.00  0.00    +0.000 A 
ATOM     11  C   UNL     1       7.007   7.400  17.305  0.00  0.00    +0.000 A 
ATOM     12  C   UNL     1       5.769   6.748  17.262  0.00  0.00    +0.000 A 
ENDBRANCH   6   7
BRANCH   1  13
ATOM     13  O   UNL     1       3.084   6.530  19.629  0.00  0.00    +0.000 OA
BRANCH  13  14
ATOM     14  C   UNL     1       2.145   7.579  19.381  0.00  0.00    +0.000 C 
BRANCH  14  15
ATOM     15  C   UNL     1       2.396   8.173  17.998  0.00  0.00    +0.000 C 
BRANCH  15  16
ATOM     16  C   UNL     1       1.932   9.634  17.915  0.00  0.00    +0.000 C 
BRANCH  16  17
ATOM     17  C   UNL     1       0.418   9.798  18.083  0.00  0.00    +0.000 C 
BRANCH  17  19
ATOM     18  C   UNL     1       1.296  11.643  19.360  0.00  0.00    +0.000 C 
ATOM     19  N   UNL     1       0.102  10.905  18.983  0.00  0.00    +0.000 NA
ATOM     20  H   UNL     1      -0.548  11.545  18.529  0.00  0.00    +0.000 HD
ENDBRANCH  17  19
ENDBRANCH  16  17
ENDBRANCH  15  16
ENDBRANCH  14  15
ENDBRANCH  13  14
ENDBRANCH   1  13
TORSDOF 7
ENDMDL
MODEL 8
REMARK VINA RESULT:      -6.3      2.108      4.776
REMARK  Name = 
REMARK  8 active torsions:
REMARK  status: ('A' for Active; 'I' for Inactive)
REMARK    1  A    between atoms: C_1  and  N_2
REMARK    2  A    between atoms: N_2  and  C_3
REMARK    3  A    between atoms: C_3  and  C_4
REMARK    4  A    between atoms: C_4  and  C_5
REMARK    5  A    between atoms: C_5  and  C_6
REMARK    6  A    between atoms: C_6  and  O_7
REMARK    7  A    between atoms: O_7  and  C_8
REMARK    8  A    between atoms: C_13  and  C_14
REMARK                            x       y       z     vdW  Elec       q    Type
REMARK                         _______ _______ _______ _____ _____    ______ ____
ROOT
ATOM      1  C   UNL     1       4.079   6.323  17.379  0.00  0.00    +0.000 A 
ATOM      2  C   UNL     1       4.938   6.693  16.329  0.00  0.00    +0.000 A 
ATOM      3  C   UNL     1       5.475   5.741  15.465  0.00  0.00    +0.000 A 
ATOM      4  C   UNL     1       5.191   4.402  15.665  0.00  0.00    +0.000 A 
ATOM      5  C   UNL     1       4.375   4.016  16.731  0.00  0.00    +0.000 A 
ATOM      6  C   UNL     1       3.781   4.956  17.608  0.00  0.00    +0.000 A 
ENDROOT
BRANCH   6   7
ATOM      7  C   UNL     1       2.858   4.457  18.671  0.00  0.00    +0.000 A 
ATOM      8  C   UNL     1       3.099   4.644  20.043  0.00  0.00    +0.000 A 
ATOM      9  C   UNL     1       2.215   4.164  21.018  0.00  0.00    +0.000 A 
ATOM     10  C   UNL     1       1.067   3.472  20.646  0.00  0.00    +0.000 A 
ATOM     11  C   UNL     1       0.805   3.256  19.299  0.00  0.00    +0.000 A 
ATOM     12  C   UNL     1       1.686   3.748  18.329  0.00  0.00    +0.000 A 
ENDBRANCH   6   7
BRANCH   1  13
ATOM     13  O   UNL     1       3.540   7.263  18.225  0.00  0.00    +0.000 OA
BRANCH  13  14
ATOM     14  C   UNL     1       2.252   7.770  17.867  0.00  0.00    +0.000 C 
BRANCH  14  15
ATOM     15  C   UNL     1       1.761   8.730  18.945  0.00  0.00    +0.000 C 
BRANCH  15  16
ATOM     16  C   UNL     1       1.742   8.067  20.330  0.00  0.00    +0.000 C 
BRANCH  16  17
ATOM     17  C   UNL     1       0.576   8.533  21.207  0.00  0.00    +0.000 C 
BRANCH  17  19
ATOM     18  C   UNL     1       0.020   9.575  23.307  0.00  0.00    +0.000 C 
ATOM     19  N   UNL     1       1.039   9.405  22.284  0.00  0.00    +0.000 NA
ATOM     20  H   UNL     1       1.873   9.009  22.716  0.00  0.00    +0.000 HD
ENDBRANCH  17  19
ENDBRANCH  16  17
ENDBRANCH  15  16
ENDBRANCH  14  15
ENDBRANCH  13  14
ENDBRANCH   1  13
TORSDOF 7
ENDMDL
MODEL 9
REMARK VINA RESULT:      -6.3      2.315      4.551
REMARK  Name = 
REMARK  8 active torsions:
REMARK  status: ('A' for Active; 'I' for Inactive)
REMARK    1  A    between atoms: C_1  and  N_2
REMARK    2  A    between atoms: N_2  and  C_3
REMARK    3  A    between atoms: C_3  and  C_4
REMARK    4  A    between atoms: C_4  and  C_5
REMARK    5  A    between atoms: C_5  and  C_6
REMARK    6  A    between atoms: C_6  and  O_7
REMARK    7  A    between atoms: O_7  and  C_8
REMARK    8  A    between atoms: C_13  and  C_14
REMARK                            x       y       z     vdW  Elec       q    Type
REMARK                         _______ _______ _______ _____ _____    ______ ____
ROOT
ATOM      1  C   UNL     1       3.468   4.467  19.915  0.00  0.00    +0.000 A 
ATOM      2  C   UNL     1       3.532   3.129  20.345  0.00  0.00    +0.000 A 
ATOM      3  C   UNL     1       2.401   2.467  20.816  0.00  0.00    +0.000 A 
ATOM      4  C   UNL     1       1.199   3.147  20.901  0.00  0.00    +0.000 A 
ATOM      5  C   UNL     1       1.131   4.488  20.519  0.00  0.00    +0.000 A 
ATOM      6  C   UNL     1       2.249   5.185  20.000  0.00  0.00    +0.000 A 
ENDROOT
BRANCH   6   7
ATOM      7  C   UNL     1       2.063   6.594  19.542  0.00  0.00    +0.000 A 
ATOM      8  C   UNL     1       2.346   7.017  18.232  0.00  0.00    +0.000 A 
ATOM      9  C   UNL     1       2.162   8.347  17.830  0.00  0.00    +0.000 A 
ATOM     10  C   UNL     1       1.699   9.296  18.736  0.00  0.00    +0.000 A 
ATOM     11  C   UNL     1       1.425   8.917  20.043  0.00  0.00    +0.000 A 
ATOM     12  C   UNL     1       1.599   7.585  20.435  0.00  0.00    +0.000 A 
ENDBRANCH   6   7
BRANCH   1  13
ATOM     13  O   UNL     1       4.582   5.118  19.439  0.00  0.00    +0.000 OA
BRANCH  13  14
ATOM     14  C   UNL     1       5.389   4.389  18.510  0.00  0.00    +0.000 C 
BRANCH  14  15
ATOM     15  C   UNL     1       4.734   4.417  17.132  0.00  0.00    +0.000 C 
BRANCH  15  16
ATOM     16  C   UNL     1       5.726   4.036  16.024  0.00  0.00    +0.000 C 
BRANCH  16  17
ATOM     17  C   UNL     1       6.972   4.927  15.998  0.00  0.00    +0.000 C 
BRANCH  17  19
ATOM     18  C   UNL     1       6.701   4.353  13.673  0.00  0.00    +0.000 C 
ATOM     19  N   UNL     1       7.400   5.198  14.627  0.00  0.00    +0.000 NA
ATOM     20  H   UNL     1       7.219   6.173  14.395  0.00  0.00    +0.000 HD
ENDBRANCH  17  19
ENDBRANCH  16  17
ENDBRANCH  15  16
ENDBRANCH  14  15
ENDBRANCH  13  14
ENDBRANCH   1  13
TORSDOF 7
ENDMDL
