MODEL 1
REMARK VINA RESULT:      -9.2      0.000      0.000
REMARK  Name = 
REMARK  6 active torsions:
REMARK  status: ('A' for Active; 'I' for Inactive)
REMARK    1  A    between atoms: C_1  and  C_2
REMARK    2  A    between atoms: C_4  and  C_5
REMARK    3  A    between atoms: C_7  and  N_8
REMARK    4  A    between atoms: C_11  and  N_12
REMARK    5  A    between atoms: N_12  and  C_13
REMARK    6  A    between atoms: C_20  and  C_21
REMARK                            x       y       z     vdW  Elec       q    Type
REMARK                         _______ _______ _______ _____ _____    ______ ____
ROOT
ATOM      1  N   UNL     1       2.721   7.915  18.207  0.00  0.00    +0.000 N 
ATOM      2  C   UNL     1       3.309   6.686  18.462  0.00  0.00    +0.000 A 
ATOM      3  C   UNL     1       4.611   6.403  17.757  0.00  0.00    +0.000 A 
ATOM      4  C   UNL     1       5.271   5.255  17.973  0.00  0.00    +0.000 A 
ATOM      5  C   UNL     1       4.657   4.308  18.844  0.00  0.00    +0.000 A 
ATOM      6  N   UNL     1       5.028   3.086  19.172  0.00  0.00    +0.000 NA
ATOM      7  C   UNL     1       4.034   2.632  19.995  0.00  0.00    +0.000 A 
ATOM      8  C   UNL     1       3.063   3.593  20.212  0.00  0.00    +0.000 A 
ATOM      9  N   UNL     1       3.464   4.659  19.440  0.00  0.00    +0.000 N 
ATOM     10  N   UNL     1       2.783   5.825  19.290  0.00  0.00    +0.000 NA
ATOM     11  H   UNL     1       3.227   8.545  17.597  0.00  0.00    +0.000 HD
ENDROOT
BRANCH   1  18
ATOM     12  C   UNL     1       0.473   9.243  22.458  0.00  0.00    +0.000 C 
ATOM     13  C   UNL     1       0.547   9.275  20.960  0.00  0.00    +0.000 A 
ATOM     14  C   UNL     1      -0.333  10.057  20.209  0.00  0.00    +0.000 A 
ATOM     15  C   UNL     1      -0.245  10.076  18.813  0.00  0.00    +0.000 A 
ATOM     16  C   UNL     1      -1.194  10.898  17.992  0.00  0.00    +0.000 C 
ATOM     17  C   UNL     1       0.757   9.328  18.177  0.00  0.00    +0.000 A 
ATOM     18  C   UNL     1       1.675   8.555  18.905  0.00  0.00    +0.000 A 
ATOM     19  C   UNL     1       1.522   8.514  20.297  0.00  0.00    +0.000 A 
ENDBRANCH   1  18
BRANCH   8  20
ATOM     20  C   UNL     1       1.891   3.484  21.030  0.00  0.00    +0.000 C 
ATOM     21  N   UNL     1       0.702   3.761  20.424  0.00  0.00    +0.000 N 
ATOM     22  O   UNL     1       1.910   3.204  22.225  0.00  0.00    +0.000 OA
ATOM     23  H   UNL     1       0.653   3.961  19.431  0.00  0.00    +0.000 HD
ATOM     24  H   UNL     1      -0.146   3.674  20.962  0.00  0.00    +0.000 HD
ENDBRANCH   8  20
BRANCH   4  25
ATOM     25  N   UNL     1       6.520   4.963  17.427  0.00  0.00    +0.000 N 
ATOM     26  H   UNL     1       7.122   4.622  18.187  0.00  0.00    +0.000 HD
BRANCH  25  27
ATOM     27  C   UNL     1       6.685   4.165  16.240  0.00  0.00    +0.000 C 
ATOM     28  C   UNL     1       5.337   3.904  15.535  0.00  0.00    +0.000 C 
ATOM     29  C   UNL     1       5.977   4.359  14.212  0.00  0.00    +0.000 C 
ATOM     30  C   UNL     1       7.113   5.010  15.019  0.00  0.00    +0.000 C 
ENDBRANCH  25  27
ENDBRANCH   4  25
TORSDOF 4
ENDMDL
MODEL 2
REMARK VINA RESULT:      -9.1      1.104      1.632
REMARK  Name = 
REMARK  6 active torsions:
REMARK  status: ('A' for Active; 'I' for Inactive)
REMARK    1  A    between atoms: C_1  and  C_2
REMARK    2  A    between atoms: C_4  and  C_5
REMARK    3  A    between atoms: C_7  and  N_8
REMARK    4  A    between atoms: C_11  and  N_12
REMARK    5  A    between atoms: N_12  and  C_13
REMARK    6  A    between atoms: C_20  and  C_21
REMARK                            x       y       z     vdW  Elec       q    Type
REMARK                         _______ _______ _______ _____ _____    ______ ____
ROOT
ATOM      1  N   UNL     1       2.622   7.856  18.120  0.00  0.00    +0.000 N 
ATOM      2  C   UNL     1       3.200   6.618  18.353  0.00  0.00    +0.000 A 
ATOM      3  C   UNL     1       4.436   6.291  17.555  0.00  0.00    +0.000 A 
ATOM      4  C   UNL     1       5.085   5.132  17.741  0.00  0.00    +0.000 A 
ATOM      5  C   UNL     1       4.519   4.215  18.676  0.00  0.00    +0.000 A 
ATOM      6  N   UNL     1       4.887   2.990  18.997  0.00  0.00    +0.000 NA
ATOM      7  C   UNL     1       3.950   2.574  19.903  0.00  0.00    +0.000 A 
ATOM      8  C   UNL     1       3.021   3.563  20.176  0.00  0.00    +0.000 A 
ATOM      9  N   UNL     1       3.385   4.605  19.355  0.00  0.00    +0.000 N 
ATOM     10  N   UNL     1       2.721   5.784  19.235  0.00  0.00    +0.000 NA
ATOM     11  H   UNL     1       3.093   8.462  17.461  0.00  0.00    +0.000 HD
ENDROOT
BRANCH   1  18
ATOM     12  C   UNL     1       0.684   9.225  22.508  0.00  0.00    +0.000 C 
ATOM     13  C   UNL     1       0.674   9.274  21.009  0.00  0.00    +0.000 A 
ATOM     14  C   UNL     1      -0.211  10.106  20.318  0.00  0.00    +0.000 A 
ATOM     15  C   UNL     1      -0.202  10.141  18.920  0.00  0.00    +0.000 A 
ATOM     16  C   UNL     1      -1.157  11.017  18.165  0.00  0.00    +0.000 C 
ATOM     17  C   UNL     1       0.727   9.357  18.219  0.00  0.00    +0.000 A 
ATOM     18  C   UNL     1       1.648   8.532  18.884  0.00  0.00    +0.000 A 
ATOM     19  C   UNL     1       1.573   8.480  20.282  0.00  0.00    +0.000 A 
ENDBRANCH   1  18
BRANCH   8  20
ATOM     20  C   UNL     1       1.914   3.497  21.084  0.00  0.00    +0.000 C 
ATOM     21  N   UNL     1       0.685   3.769  20.561  0.00  0.00    +0.000 N 
ATOM     22  O   UNL     1       2.022   3.256  22.283  0.00  0.00    +0.000 OA
ATOM     23  H   UNL     1       0.563   3.936  19.569  0.00  0.00    +0.000 HD
ATOM     24  H   UNL     1      -0.120   3.711  21.166  0.00  0.00    +0.000 HD
ENDBRANCH   8  20
BRANCH   4  25
ATOM     25  N   UNL     1       6.281   4.799  17.106  0.00  0.00    +0.000 N 
ATOM     26  H   UNL     1       6.115   4.824  16.092  0.00  0.00    +0.000 HD
BRANCH  25  27
ATOM     27  C   UNL     1       7.538   5.416  17.438  0.00  0.00    +0.000 C 
ATOM     28  C   UNL     1       7.497   6.945  17.229  0.00  0.00    +0.000 C 
ATOM     29  C   UNL     1       8.081   7.123  18.641  0.00  0.00    +0.000 C 
ATOM     30  C   UNL     1       7.686   5.670  18.955  0.00  0.00    +0.000 C 
ENDBRANCH  25  27
ENDBRANCH   4  25
TORSDOF 4
ENDMDL
MODEL 3
REMARK VINA RESULT:      -9.0      0.204      1.699
REMARK  Name = 
REMARK  6 active torsions:
REMARK  status: ('A' for Active; 'I' for Inactive)
REMARK    1  A    between atoms: C_1  and  C_2
REMARK    2  A    between atoms: C_4  and  C_5
REMARK    3  A    between atoms: C_7  and  N_8
REMARK    4  A    between atoms: C_11  and  N_12
REMARK    5  A    between atoms: N_12  and  C_13
REMARK    6  A    between atoms: C_20  and  C_21
REMARK                            x       y       z     vdW  Elec       q    Type
REMARK                         _______ _______ _______ _____ _____    ______ ____
ROOT
ATOM      1  N   UNL     1       2.829   7.990  17.990  0.00  0.00    +0.000 N 
ATOM      2  C   UNL     1       3.389   6.760  18.295  0.00  0.00    +0.000 A 
ATOM      3  C   UNL     1       4.688   6.422  17.609  0.00  0.00    +0.000 A 
ATOM      4  C   UNL     1       5.323   5.270  17.872  0.00  0.00    +0.000 A 
ATOM      5  C   UNL     1       4.683   4.370  18.775  0.00  0.00    +0.000 A 
ATOM      6  N   UNL     1       5.027   3.153  19.151  0.00  0.00    +0.000 NA
ATOM      7  C   UNL     1       4.018   2.752  19.985  0.00  0.00    +0.000 A 
ATOM      8  C   UNL     1       3.067   3.742  20.159  0.00  0.00    +0.000 A 
ATOM      9  N   UNL     1       3.495   4.769  19.350  0.00  0.00    +0.000 N 
ATOM     10  N   UNL     1       2.840   5.943  19.151  0.00  0.00    +0.000 NA
ATOM     11  H   UNL     1       3.352   8.585  17.359  0.00  0.00    +0.000 HD
ENDROOT
BRANCH   1  18
ATOM     12  C   UNL     1      -1.386  10.658  17.936  0.00  0.00    +0.000 C 
ATOM     13  C   UNL     1      -0.301   9.953  18.696  0.00  0.00    +0.000 A 
ATOM     14  C   UNL     1      -0.355   9.830  20.087  0.00  0.00    +0.000 A 
ATOM     15  C   UNL     1       0.664   9.166  20.776  0.00  0.00    +0.000 A 
ATOM     16  C   UNL     1       0.628   9.039  22.271  0.00  0.00    +0.000 C 
ATOM     17  C   UNL     1       1.724   8.596  20.055  0.00  0.00    +0.000 A 
ATOM     18  C   UNL     1       1.793   8.678  18.656  0.00  0.00    +0.000 A 
ATOM     19  C   UNL     1       0.785   9.399  18.003  0.00  0.00    +0.000 A 
ENDBRANCH   1  18
BRANCH   8  20
ATOM     20  C   UNL     1       1.888   3.689  20.973  0.00  0.00    +0.000 C 
ATOM     21  N   UNL     1       0.730   4.106  20.388  0.00  0.00    +0.000 N 
ATOM     22  O   UNL     1       1.880   3.337  22.149  0.00  0.00    +0.000 OA
ATOM     23  H   UNL     1       0.701   4.367  19.409  0.00  0.00    +0.000 HD
ATOM     24  H   UNL     1      -0.123   4.062  20.923  0.00  0.00    +0.000 HD
ENDBRANCH   8  20
BRANCH   4  25
ATOM     25  N   UNL     1       6.568   4.931  17.346  0.00  0.00    +0.000 N 
ATOM     26  H   UNL     1       7.136   4.542  18.110  0.00  0.00    +0.000 HD
BRANCH  25  27
ATOM     27  C   UNL     1       6.722   4.156  16.143  0.00  0.00    +0.000 C 
ATOM     28  C   UNL     1       5.365   3.891  15.457  0.00  0.00    +0.000 C 
ATOM     29  C   UNL     1       5.976   4.376  14.132  0.00  0.00    +0.000 C 
ATOM     30  C   UNL     1       7.118   5.026  14.930  0.00  0.00    +0.000 C 
ENDBRANCH  25  27
ENDBRANCH   4  25
TORSDOF 4
ENDMDL
MODEL 4
REMARK VINA RESULT:      -9.0      1.614      2.010
REMARK  Name = 
REMARK  6 active torsions:
REMARK  status: ('A' for Active; 'I' for Inactive)
REMARK    1  A    between atoms: C_1  and  C_2
REMARK    2  A    between atoms: C_4  and  C_5
REMARK    3  A    between atoms: C_7  and  N_8
REMARK    4  A    between atoms: C_11  and  N_12
REMARK    5  A    between atoms: N_12  and  C_13
REMARK    6  A    between atoms: C_20  and  C_21
REMARK                            x       y       z     vdW  Elec       q    Type
REMARK                         _______ _______ _______ _____ _____    ______ ____
ROOT
ATOM      1  N   UNL     1       2.560   8.361  17.885  0.00  0.00    +0.000 N 
ATOM      2  C   UNL     1       2.999   7.055  17.735  0.00  0.00    +0.000 A 
ATOM      3  C   UNL     1       4.289   6.862  16.980  0.00  0.00    +0.000 A 
ATOM      4  C   UNL     1       4.811   5.637  16.818  0.00  0.00    +0.000 A 
ATOM      5  C   UNL     1       4.063   4.540  17.339  0.00  0.00    +0.000 A 
ATOM      6  N   UNL     1       4.285   3.242  17.258  0.00  0.00    +0.000 NA
ATOM      7  C   UNL     1       3.215   2.669  17.889  0.00  0.00    +0.000 A 
ATOM      8  C   UNL     1       2.348   3.617  18.400  0.00  0.00    +0.000 A 
ATOM      9  N   UNL     1       2.893   4.819  18.012  0.00  0.00    +0.000 N 
ATOM     10  N   UNL     1       2.350   6.044  18.241  0.00  0.00    +0.000 NA
ATOM     11  H   UNL     1       3.155   9.089  17.511  0.00  0.00    +0.000 HD
ENDROOT
BRANCH   1  18
ATOM     12  C   UNL     1       0.737   9.164  22.459  0.00  0.00    +0.000 C 
ATOM     13  C   UNL     1       0.636   9.325  20.971  0.00  0.00    +0.000 A 
ATOM     14  C   UNL     1      -0.372  10.102  20.394  0.00  0.00    +0.000 A 
ATOM     15  C   UNL     1      -0.447  10.243  19.005  0.00  0.00    +0.000 A 
ATOM     16  C   UNL     1      -1.533  11.060  18.371  0.00  0.00    +0.000 C 
ATOM     17  C   UNL     1       0.521   9.625  18.198  0.00  0.00    +0.000 A 
ATOM     18  C   UNL     1       1.563   8.863  18.748  0.00  0.00    +0.000 A 
ATOM     19  C   UNL     1       1.574   8.696  20.139  0.00  0.00    +0.000 A 
ENDBRANCH   1  18
BRANCH   8  20
ATOM     20  C   UNL     1       1.139   3.391  19.137  0.00  0.00    +0.000 C 
ATOM     21  N   UNL     1       0.951   4.164  20.244  0.00  0.00    +0.000 N 
ATOM     22  O   UNL     1       0.310   2.532  18.852  0.00  0.00    +0.000 OA
ATOM     23  H   UNL     1       1.601   4.905  20.483  0.00  0.00    +0.000 HD
ATOM     24  H   UNL     1       0.101   4.048  20.774  0.00  0.00    +0.000 HD
ENDBRANCH   8  20
BRANCH   4  25
ATOM     25  N   UNL     1       6.041   5.390  16.211  0.00  0.00    +0.000 N 
ATOM     26  H   UNL     1       6.045   5.869  15.301  0.00  0.00    +0.000 HD
BRANCH  25  27
ATOM     27  C   UNL     1       7.297   5.567  16.892  0.00  0.00    +0.000 C 
ATOM     28  C   UNL     1       7.441   6.994  17.462  0.00  0.00    +0.000 C 
ATOM     29  C   UNL     1       7.840   6.380  18.814  0.00  0.00    +0.000 C 
ATOM     30  C   UNL     1       7.259   5.036  18.342  0.00  0.00    +0.000 C 
ENDBRANCH  25  27
ENDBRANCH   4  25
TORSDOF 4
ENDMDL
MODEL 5
REMARK VINA RESULT:      -8.9      1.144      2.348
REMARK  Name = 
REMARK  6 active torsions:
REMARK  status: ('A' for Active; 'I' for Inactive)
REMARK    1  A    between atoms: C_1  and  C_2
REMARK    2  A    between atoms: C_4  and  C_5
REMARK    3  A    between atoms: C_7  and  N_8
REMARK    4  A    between atoms: C_11  and  N_12
REMARK    5  A    between atoms: N_12  and  C_13
REMARK    6  A    between atoms: C_20  and  C_21
REMARK                            x       y       z     vdW  Elec       q    Type
REMARK                         _______ _______ _______ _____ _____    ______ ____
ROOT
ATOM      1  N   UNL     1       2.814   7.747  17.983  0.00  0.00    +0.000 N 
ATOM      2  C   UNL     1       3.316   6.497  18.309  0.00  0.00    +0.000 A 
ATOM      3  C   UNL     1       4.589   6.081  17.616  0.00  0.00    +0.000 A 
ATOM      4  C   UNL     1       5.169   4.905  17.897  0.00  0.00    +0.000 A 
ATOM      5  C   UNL     1       4.497   4.057  18.827  0.00  0.00    +0.000 A 
ATOM      6  N   UNL     1       4.785   2.833  19.225  0.00  0.00    +0.000 NA
ATOM      7  C   UNL     1       3.769   2.500  20.079  0.00  0.00    +0.000 A 
ATOM      8  C   UNL     1       2.870   3.539  20.242  0.00  0.00    +0.000 A 
ATOM      9  N   UNL     1       3.338   4.526  19.406  0.00  0.00    +0.000 N 
ATOM     10  N   UNL     1       2.739   5.727  19.189  0.00  0.00    +0.000 NA
ATOM     11  H   UNL     1       3.357   8.302  17.334  0.00  0.00    +0.000 HD
ENDROOT
BRANCH   1  18
ATOM     12  C   UNL     1      -1.281  10.596  17.922  0.00  0.00    +0.000 C 
ATOM     13  C   UNL     1      -0.213   9.867  18.684  0.00  0.00    +0.000 A 
ATOM     14  C   UNL     1      -0.247   9.787  20.078  0.00  0.00    +0.000 A 
ATOM     15  C   UNL     1       0.755   9.099  20.770  0.00  0.00    +0.000 A 
ATOM     16  C   UNL     1       0.741   9.019  22.268  0.00  0.00    +0.000 C 
ATOM     17  C   UNL     1       1.776   8.462  20.048  0.00  0.00    +0.000 A 
ATOM     18  C   UNL     1       1.822   8.499  18.646  0.00  0.00    +0.000 A 
ATOM     19  C   UNL     1       0.834   9.244  17.989  0.00  0.00    +0.000 A 
ENDBRANCH   1  18
BRANCH   8  20
ATOM     20  C   UNL     1       1.700   3.562  21.071  0.00  0.00    +0.000 C 
ATOM     21  N   UNL     1       0.570   4.076  20.508  0.00  0.00    +0.000 N 
ATOM     22  O   UNL     1       1.679   3.193  22.241  0.00  0.00    +0.000 OA
ATOM     23  H   UNL     1       0.549   4.355  19.534  0.00  0.00    +0.000 HD
ATOM     24  H   UNL     1      -0.278   4.088  21.054  0.00  0.00    +0.000 HD
ENDBRANCH   8  20
BRANCH   4  25
ATOM     25  N   UNL     1       6.389   4.493  17.364  0.00  0.00    +0.000 N 
ATOM     26  H   UNL     1       6.254   4.330  16.358  0.00  0.00    +0.000 HD
BRANCH  25  27
ATOM     27  C   UNL     1       7.624   5.189  17.612  0.00  0.00    +0.000 C 
ATOM     28  C   UNL     1       7.533   6.676  17.204  0.00  0.00    +0.000 C 
ATOM     29  C   UNL     1       8.105   7.055  18.580  0.00  0.00    +0.000 C 
ATOM     30  C   UNL     1       7.757   5.645  19.082  0.00  0.00    +0.000 C 
ENDBRANCH  25  27
ENDBRANCH   4  25
TORSDOF 4
ENDMDL
MODEL 6
REMARK VINA RESULT:      -8.8      1.155      1.171
REMARK  Name = 
REMARK  6 active torsions:
REMARK  status: ('A' for Active; 'I' for Inactive)
REMARK    1  A    between atoms: C_1  and  C_2
REMARK    2  A    between atoms: C_4  and  C_5
REMARK    3  A    between atoms: C_7  and  N_8
REMARK    4  A    between atoms: C_11  and  N_12
REMARK    5  A    between atoms: N_12  and  C_13
REMARK    6  A    between atoms: C_20  and  C_21
REMARK                            x       y       z     vdW  Elec       q    Type
REMARK                         _______ _______ _______ _____ _____    ______ ____
ROOT
ATOM      1  N   UNL     1       2.693   8.196  18.192  0.00  0.00    +0.000 N 
ATOM      2  C   UNL     1       3.119   6.878  18.139  0.00  0.00    +0.000 A 
ATOM      3  C   UNL     1       4.505   6.640  17.598  0.00  0.00    +0.000 A 
ATOM      4  C   UNL     1       5.016   5.401  17.545  0.00  0.00    +0.000 A 
ATOM      5  C   UNL     1       4.171   4.333  17.967  0.00  0.00    +0.000 A 
ATOM      6  N   UNL     1       4.372   3.029  17.949  0.00  0.00    +0.000 NA
ATOM      7  C   UNL     1       3.204   2.493  18.419  0.00  0.00    +0.000 A 
ATOM      8  C   UNL     1       2.291   3.471  18.769  0.00  0.00    +0.000 A 
ATOM      9  N   UNL     1       2.918   4.652  18.444  0.00  0.00    +0.000 N 
ATOM     10  N   UNL     1       2.375   5.892  18.560  0.00  0.00    +0.000 NA
ATOM     11  H   UNL     1       3.356   8.902  17.898  0.00  0.00    +0.000 HD
ENDROOT
BRANCH   1  18
ATOM     12  C   UNL     1       0.242   9.219  22.415  0.00  0.00    +0.000 C 
ATOM     13  C   UNL     1       0.355   9.308  20.921  0.00  0.00    +0.000 A 
ATOM     14  C   UNL     1      -0.555  10.056  20.170  0.00  0.00    +0.000 A 
ATOM     15  C   UNL     1      -0.430  10.130  18.780  0.00  0.00    +0.000 A 
ATOM     16  C   UNL     1      -1.409  10.916  17.958  0.00  0.00    +0.000 C 
ATOM     17  C   UNL     1       0.638   9.474  18.150  0.00  0.00    +0.000 A 
ATOM     18  C   UNL     1       1.586   8.739  18.878  0.00  0.00    +0.000 A 
ATOM     19  C   UNL     1       1.398   8.639  20.263  0.00  0.00    +0.000 A 
ENDBRANCH   1  18
BRANCH   8  20
ATOM     20  C   UNL     1       0.977   3.288  19.314  0.00  0.00    +0.000 C 
ATOM     21  N   UNL     1       0.667   4.038  20.409  0.00  0.00    +0.000 N 
ATOM     22  O   UNL     1       0.160   2.482  18.880  0.00  0.00    +0.000 OA
ATOM     23  H   UNL     1       1.309   4.736  20.766  0.00  0.00    +0.000 HD
ATOM     24  H   UNL     1      -0.256   3.952  20.806  0.00  0.00    +0.000 HD
ENDBRANCH   8  20
BRANCH   4  25
ATOM     25  N   UNL     1       6.320   5.114  17.142  0.00  0.00    +0.000 N 
ATOM     26  H   UNL     1       6.645   4.304  17.685  0.00  0.00    +0.000 HD
BRANCH  25  27
ATOM     27  C   UNL     1       6.700   4.994  15.759  0.00  0.00    +0.000 C 
ATOM     28  C   UNL     1       6.436   3.574  15.215  0.00  0.00    +0.000 C 
ATOM     29  C   UNL     1       5.713   4.202  14.012  0.00  0.00    +0.000 C 
ATOM     30  C   UNL     1       5.607   5.518  14.801  0.00  0.00    +0.000 C 
ENDBRANCH  25  27
ENDBRANCH   4  25
TORSDOF 4
ENDMDL
MODEL 7
REMARK VINA RESULT:      -8.7      1.579      2.585
REMARK  Name = 
REMARK  6 active torsions:
REMARK  status: ('A' for Active; 'I' for Inactive)
REMARK    1  A    between atoms: C_1  and  C_2
REMARK    2  A    between atoms: C_4  and  C_5
REMARK    3  A    between atoms: C_7  and  N_8
REMARK    4  A    between atoms: C_11  and  N_12
REMARK    5  A    between atoms: N_12  and  C_13
REMARK    6  A    between atoms: C_20  and  C_21
REMARK                            x       y       z     vdW  Elec       q    Type
REMARK                         _______ _______ _______ _____ _____    ______ ____
ROOT
ATOM      1  N   UNL     1       2.618   8.381  17.735  0.00  0.00    +0.000 N 
ATOM      2  C   UNL     1       3.035   7.061  17.667  0.00  0.00    +0.000 A 
ATOM      3  C   UNL     1       4.323   6.799  16.928  0.00  0.00    +0.000 A 
ATOM      4  C   UNL     1       4.824   5.557  16.844  0.00  0.00    +0.000 A 
ATOM      5  C   UNL     1       4.056   4.508  17.431  0.00  0.00    +0.000 A 
ATOM      6  N   UNL     1       4.257   3.204  17.432  0.00  0.00    +0.000 NA
ATOM      7  C   UNL     1       3.176   2.690  18.096  0.00  0.00    +0.000 A 
ATOM      8  C   UNL     1       2.324   3.683  18.545  0.00  0.00    +0.000 A 
ATOM      9  N   UNL     1       2.891   4.849  18.083  0.00  0.00    +0.000 N 
ATOM     10  N   UNL     1       2.369   6.094  18.234  0.00  0.00    +0.000 NA
ATOM     11  H   UNL     1       3.226   9.074  17.317  0.00  0.00    +0.000 HD
ENDROOT
BRANCH   1  18
ATOM     12  C   UNL     1      -1.719  10.767  18.354  0.00  0.00    +0.000 C 
ATOM     13  C   UNL     1      -0.515  10.083  18.933  0.00  0.00    +0.000 A 
ATOM     14  C   UNL     1      -0.401   9.861  20.307  0.00  0.00    +0.000 A 
ATOM     15  C   UNL     1       0.727   9.218  20.827  0.00  0.00    +0.000 A 
ATOM     16  C   UNL     1       0.872   8.987  22.302  0.00  0.00    +0.000 C 
ATOM     17  C   UNL     1       1.727   8.770  19.951  0.00  0.00    +0.000 A 
ATOM     18  C   UNL     1       1.629   8.952  18.563  0.00  0.00    +0.000 A 
ATOM     19  C   UNL     1       0.513   9.649  18.083  0.00  0.00    +0.000 A 
ENDBRANCH   1  18
BRANCH   8  20
ATOM     20  C   UNL     1       1.111   3.524  19.292  0.00  0.00    +0.000 C 
ATOM     21  N   UNL     1       0.948   4.350  20.364  0.00  0.00    +0.000 N 
ATOM     22  O   UNL     1       0.258   2.677  19.045  0.00  0.00    +0.000 OA
ATOM     23  H   UNL     1       1.618   5.082  20.569  0.00  0.00    +0.000 HD
ATOM     24  H   UNL     1       0.096   4.282  20.899  0.00  0.00    +0.000 HD
ENDBRANCH   8  20
BRANCH   4  25
ATOM     25  N   UNL     1       6.050   5.252  16.257  0.00  0.00    +0.000 N 
ATOM     26  H   UNL     1       6.058   5.664  15.315  0.00  0.00    +0.000 HD
BRANCH  25  27
ATOM     27  C   UNL     1       7.309   5.464  16.922  0.00  0.00    +0.000 C 
ATOM     28  C   UNL     1       7.469   6.926  17.389  0.00  0.00    +0.000 C 
ATOM     29  C   UNL     1       7.863   6.406  18.781  0.00  0.00    +0.000 C 
ATOM     30  C   UNL     1       7.267   5.039  18.407  0.00  0.00    +0.000 C 
ENDBRANCH  25  27
ENDBRANCH   4  25
TORSDOF 4
ENDMDL
MODEL 8
REMARK VINA RESULT:      -8.6      1.079      2.003
REMARK  Name = 
REMARK  6 active torsions:
REMARK  status: ('A' for Active; 'I' for Inactive)
REMARK    1  A    between atoms: C_1  and  C_2
REMARK    2  A    between atoms: C_4  and  C_5
REMARK    3  A    between atoms: C_7  and  N_8
REMARK    4  A    between atoms: C_11  and  N_12
REMARK    5  A    between atoms: N_12  and  C_13
REMARK    6  A    between atoms: C_20  and  C_21
REMARK                            x       y       z     vdW  Elec       q    Type
REMARK                         _______ _______ _______ _____ _____    ______ ____
ROOT
ATOM      1  N   UNL     1       2.850   8.105  17.952  0.00  0.00    +0.000 N 
ATOM      2  C   UNL     1       3.217   6.769  17.991  0.00  0.00    +0.000 A 
ATOM      3  C   UNL     1       4.584   6.430  17.453  0.00  0.00    +0.000 A 
ATOM      4  C   UNL     1       5.039   5.169  17.486  0.00  0.00    +0.000 A 
ATOM      5  C   UNL     1       4.154   4.173  17.995  0.00  0.00    +0.000 A 
ATOM      6  N   UNL     1       4.298   2.864  18.071  0.00  0.00    +0.000 NA
ATOM      7  C   UNL     1       3.115   2.417  18.593  0.00  0.00    +0.000 A 
ATOM      8  C   UNL     1       2.250   3.458  18.880  0.00  0.00    +0.000 A 
ATOM      9  N   UNL     1       2.924   4.582  18.462  0.00  0.00    +0.000 N 
ATOM     10  N   UNL     1       2.438   5.851  18.493  0.00  0.00    +0.000 NA
ATOM     11  H   UNL     1       3.539   8.757  17.599  0.00  0.00    +0.000 HD
ENDROOT
BRANCH   1  18
ATOM     12  C   UNL     1      -1.458  10.620  17.863  0.00  0.00    +0.000 C 
ATOM     13  C   UNL     1      -0.361   9.944  18.631  0.00  0.00    +0.000 A 
ATOM     14  C   UNL     1      -0.433   9.799  20.019  0.00  0.00    +0.000 A 
ATOM     15  C   UNL     1       0.597   9.162  20.717  0.00  0.00    +0.000 A 
ATOM     16  C   UNL     1       0.541   9.013  22.209  0.00  0.00    +0.000 C 
ATOM     17  C   UNL     1       1.689   8.641  20.006  0.00  0.00    +0.000 A 
ATOM     18  C   UNL     1       1.778   8.745  18.609  0.00  0.00    +0.000 A 
ATOM     19  C   UNL     1       0.756   9.438  17.949  0.00  0.00    +0.000 A 
ENDBRANCH   1  18
BRANCH   8  20
ATOM     20  C   UNL     1       0.939   3.374  19.453  0.00  0.00    +0.000 C 
ATOM     21  N   UNL     1       0.681   4.206  20.501  0.00  0.00    +0.000 N 
ATOM     22  O   UNL     1       0.077   2.582  19.082  0.00  0.00    +0.000 OA
ATOM     23  H   UNL     1       1.361   4.894  20.804  0.00  0.00    +0.000 HD
ATOM     24  H   UNL     1      -0.239   4.191  20.914  0.00  0.00    +0.000 HD
ENDBRANCH   8  20
BRANCH   4  25
ATOM     25  N   UNL     1       6.323   4.796  17.090  0.00  0.00    +0.000 N 
ATOM     26  H   UNL     1       6.775   4.332  17.888  0.00  0.00    +0.000 HD
BRANCH  25  27
ATOM     27  C   UNL     1       6.586   4.088  15.865  0.00  0.00    +0.000 C 
ATOM     28  C   UNL     1       5.394   4.174  14.887  0.00  0.00    +0.000 C 
ATOM     29  C   UNL     1       6.373   4.599  13.780  0.00  0.00    +0.000 C 
ATOM     30  C   UNL     1       7.412   4.928  14.865  0.00  0.00    +0.000 C 
ENDBRANCH  25  27
ENDBRANCH   4  25
TORSDOF 4
ENDMDL
MODEL 9
REMARK VINA RESULT:      -8.4      0.979      2.017
REMARK  Name = 
REMARK  6 active torsions:
REMARK  status: ('A' for Active; 'I' for Inactive)
REMARK    1  A    between atoms: C_1  and  C_2
REMARK    2  A    between atoms: C_4  and  C_5
REMARK    3  A    between atoms: C_7  and  N_8
REMARK    4  A    between atoms: C_11  and  N_12
REMARK    5  A    between atoms: N_12  and  C_13
REMARK    6  A    between atoms: C_20  and  C_21
REMARK                            x       y       z     vdW  Elec       q    Type
REMARK                         _______ _______ _______ _____ _____    ______ ____
ROOT
ATOM      1  N   UNL     1       2.356   8.416  17.914  0.00  0.00    +0.000 N 
ATOM      2  C   UNL     1       2.959   7.179  18.078  0.00  0.00    +0.000 A 
ATOM      3  C   UNL     1       4.159   6.895  17.210  0.00  0.00    +0.000 A 
ATOM      4  C   UNL     1       4.829   5.739  17.326  0.00  0.00    +0.000 A 
ATOM      5  C   UNL     1       4.321   4.786  18.257  0.00  0.00    +0.000 A 
ATOM      6  N   UNL     1       4.718   3.555  18.519  0.00  0.00    +0.000 NA
ATOM      7  C   UNL     1       3.831   3.099  19.456  0.00  0.00    +0.000 A 
ATOM      8  C   UNL     1       2.905   4.065  19.806  0.00  0.00    +0.000 A 
ATOM      9  N   UNL     1       3.216   5.138  19.003  0.00  0.00    +0.000 N 
ATOM     10  N   UNL     1       2.533   6.312  18.954  0.00  0.00    +0.000 NA
ATOM     11  H   UNL     1       2.787   9.050  17.253  0.00  0.00    +0.000 HD
ENDROOT
BRANCH   1  18
ATOM     12  C   UNL     1      -1.826  11.061  18.555  0.00  0.00    +0.000 C 
ATOM     13  C   UNL     1      -0.657  10.315  19.128  0.00  0.00    +0.000 A 
ATOM     14  C   UNL     1      -0.538  10.103  20.504  0.00  0.00    +0.000 A 
ATOM     15  C   UNL     1       0.557   9.401  21.018  0.00  0.00    +0.000 A 
ATOM     16  C   UNL     1       0.707   9.180  22.494  0.00  0.00    +0.000 C 
ATOM     17  C   UNL     1       1.518   8.884  20.136  0.00  0.00    +0.000 A 
ATOM     18  C   UNL     1       1.412   9.055  18.747  0.00  0.00    +0.000 A 
ATOM     19  C   UNL     1       0.333   9.811  18.271  0.00  0.00    +0.000 A 
ENDBRANCH   1  18
BRANCH   8  20
ATOM     20  C   UNL     1       1.845   3.955  20.764  0.00  0.00    +0.000 C 
ATOM     21  N   UNL     1       2.170   3.400  21.966  0.00  0.00    +0.000 N 
ATOM     22  O   UNL     1       0.684   4.288  20.545  0.00  0.00    +0.000 OA
ATOM     23  H   UNL     1       3.127   3.150  22.186  0.00  0.00    +0.000 HD
ATOM     24  H   UNL     1       1.454   3.327  22.672  0.00  0.00    +0.000 HD
ENDBRANCH   8  20
BRANCH   4  25
ATOM     25  N   UNL     1       5.996   5.444  16.624  0.00  0.00    +0.000 N 
ATOM     26  H   UNL     1       6.372   4.562  16.995  0.00  0.00    +0.000 HD
BRANCH  25  27
ATOM     27  C   UNL     1       6.070   5.471  15.187  0.00  0.00    +0.000 C 
ATOM     28  C   UNL     1       7.333   4.751  14.666  0.00  0.00    +0.000 C 
ATOM     29  C   UNL     1       6.443   3.962  13.692  0.00  0.00    +0.000 C 
ATOM     30  C   UNL     1       5.219   4.360  14.533  0.00  0.00    +0.000 C 
ENDBRANCH  25  27
ENDBRANCH   4  25
TORSDOF 4
ENDMDL
