MODEL 1
REMARK VINA RESULT:      -6.8      0.000      0.000
REMARK  Name = 
REMARK  5 active torsions:
REMARK  status: ('A' for Active; 'I' for Inactive)
REMARK    1  A    between atoms: C_1  and  O_2
REMARK    2  A    between atoms: O_2  and  C_3
REMARK    3  A    between atoms: C_6  and  N_7
REMARK    4  A    between atoms: C_11  and  N_12
REMARK    5  A    between atoms: C_13  and  C_14
REMARK                            x       y       z     vdW  Elec       q    Type
REMARK                         _______ _______ _______ _____ _____    ______ ____
ROOT
ATOM      1  N   UNL     1       4.637   3.540  15.982  0.00  0.00    +0.000 N 
ATOM      2  C   UNL     1       5.753   4.261  15.685  0.00  0.00    +0.000 A 
ATOM      3  N   UNL     1       6.462   5.024  16.528  0.00  0.00    +0.000 NA
ATOM      4  N   UNL     1       7.424   5.568  15.773  0.00  0.00    +0.000 N 
ATOM      5  C   UNL     1       7.382   5.191  14.461  0.00  0.00    +0.000 A 
ATOM      6  C   UNL     1       6.311   4.327  14.377  0.00  0.00    +0.000 A 
ATOM      7  H   UNL     1       4.233   2.960  15.253  0.00  0.00    +0.000 HD
ATOM      8  H   UNL     1       8.077   6.202  16.215  0.00  0.00    +0.000 HD
ENDROOT
BRANCH   1  12
ATOM      9  C   UNL     1       2.008   3.488  19.313  0.00  0.00    +0.000 A 
ATOM     10  C   UNL     1       2.703   2.346  18.924  0.00  0.00    +0.000 A 
ATOM     11  C   UNL     1       3.600   2.390  17.850  0.00  0.00    +0.000 A 
ATOM     12  C   UNL     1       3.803   3.576  17.124  0.00  0.00    +0.000 A 
ATOM     13  C   UNL     1       3.096   4.711  17.532  0.00  0.00    +0.000 A 
ATOM     14  C   UNL     1       2.204   4.673  18.612  0.00  0.00    +0.000 A 
BRANCH   9  16
ATOM     15  C   UNL     1       1.728   2.844  21.565  0.00  0.00    +0.000 C 
ATOM     16  O   UNL     1       1.143   3.324  20.359  0.00  0.00    +0.000 OA
ENDBRANCH   9  16
ENDBRANCH   1  12
BRANCH   5  17
ATOM     17  N   UNL     1       8.267   5.664  13.562  0.00  0.00    +0.000 N 
ATOM     18  H   UNL     1       8.951   6.390  13.763  0.00  0.00    +0.000 HD
ATOM     19  H   UNL     1       8.263   5.367  12.586  0.00  0.00    +0.000 HD
ENDBRANCH   5  17
BRANCH   6  20
ATOM     20  C   UNL     1       5.846   3.682  13.199  0.00  0.00    +0.000 C 
ATOM     21  N   UNL     1       5.463   3.175  12.225  0.00  0.00    +0.000 NA
ENDBRANCH   6  20
TORSDOF 4
ENDMDL
MODEL 2
REMARK VINA RESULT:      -6.6      4.062      6.777
REMARK  Name = 
REMARK  5 active torsions:
REMARK  status: ('A' for Active; 'I' for Inactive)
REMARK    1  A    between atoms: C_1  and  O_2
REMARK    2  A    between atoms: O_2  and  C_3
REMARK    3  A    between atoms: C_6  and  N_7
REMARK    4  A    between atoms: C_11  and  N_12
REMARK    5  A    between atoms: C_13  and  C_14
REMARK                            x       y       z     vdW  Elec       q    Type
REMARK                         _______ _______ _______ _____ _____    ______ ____
ROOT
ATOM      1  N   UNL     1       4.577   4.406  19.316  0.00  0.00    +0.000 N 
ATOM      2  C   UNL     1       3.662   3.548  18.789  0.00  0.00    +0.000 A 
ATOM      3  N   UNL     1       3.538   3.199  17.502  0.00  0.00    +0.000 NA
ATOM      4  N   UNL     1       2.476   2.386  17.466  0.00  0.00    +0.000 N 
ATOM      5  C   UNL     1       1.892   2.180  18.682  0.00  0.00    +0.000 A 
ATOM      6  C   UNL     1       2.652   2.914  19.568  0.00  0.00    +0.000 A 
ATOM      7  H   UNL     1       4.589   4.536  20.324  0.00  0.00    +0.000 HD
ATOM      8  H   UNL     1       2.192   2.010  16.569  0.00  0.00    +0.000 HD
ENDROOT
BRANCH   1  12
ATOM      9  C   UNL     1       7.232   7.236  17.597  0.00  0.00    +0.000 A 
ATOM     10  C   UNL     1       7.653   6.369  18.603  0.00  0.00    +0.000 A 
ATOM     11  C   UNL     1       6.777   5.412  19.129  0.00  0.00    +0.000 A 
ATOM     12  C   UNL     1       5.451   5.318  18.677  0.00  0.00    +0.000 A 
ATOM     13  C   UNL     1       5.048   6.197  17.667  0.00  0.00    +0.000 A 
ATOM     14  C   UNL     1       5.924   7.150  17.132  0.00  0.00    +0.000 A 
BRANCH   9  16
ATOM     15  C   UNL     1       8.313   9.294  18.000  0.00  0.00    +0.000 C 
ATOM     16  O   UNL     1       8.163   8.144  17.174  0.00  0.00    +0.000 OA
ENDBRANCH   9  16
ENDBRANCH   1  12
BRANCH   5  17
ATOM     17  N   UNL     1       0.798   1.403  18.818  0.00  0.00    +0.000 N 
ATOM     18  H   UNL     1       0.558   0.901  19.670  0.00  0.00    +0.000 HD
ATOM     19  H   UNL     1       0.167   1.213  18.041  0.00  0.00    +0.000 HD
ENDBRANCH   5  17
BRANCH   6  20
ATOM     20  C   UNL     1       2.425   3.037  20.965  0.00  0.00    +0.000 C 
ATOM     21  N   UNL     1       2.220   3.125  22.106  0.00  0.00    +0.000 NA
ENDBRANCH   6  20
TORSDOF 4
ENDMDL
MODEL 3
REMARK VINA RESULT:      -6.6      0.329      1.207
REMARK  Name = 
REMARK  5 active torsions:
REMARK  status: ('A' for Active; 'I' for Inactive)
REMARK    1  A    between atoms: C_1  and  O_2
REMARK    2  A    between atoms: O_2  and  C_3
REMARK    3  A    between atoms: C_6  and  N_7
REMARK    4  A    between atoms: C_11  and  N_12
REMARK    5  A    between atoms: C_13  and  C_14
REMARK                            x       y       z     vdW  Elec       q    Type
REMARK                         _______ _______ _______ _____ _____    ______ ____
ROOT
ATOM      1  N   UNL     1       4.625   3.531  16.013  0.00  0.00    +0.000 N 
ATOM      2  C   UNL     1       5.745   4.235  15.694  0.00  0.00    +0.000 A 
ATOM      3  N   UNL     1       6.507   4.953  16.531  0.00  0.00    +0.000 NA
ATOM      4  N   UNL     1       7.450   5.500  15.755  0.00  0.00    +0.000 N 
ATOM      5  C   UNL     1       7.345   5.169  14.435  0.00  0.00    +0.000 A 
ATOM      6  C   UNL     1       6.250   4.334  14.366  0.00  0.00    +0.000 A 
ATOM      7  H   UNL     1       4.177   2.986  15.283  0.00  0.00    +0.000 HD
ATOM      8  H   UNL     1       8.136   6.103  16.191  0.00  0.00    +0.000 HD
ENDROOT
BRANCH   1  12
ATOM      9  C   UNL     1       2.392   3.747  19.616  0.00  0.00    +0.000 A 
ATOM     10  C   UNL     1       2.471   4.835  18.748  0.00  0.00    +0.000 A 
ATOM     11  C   UNL     1       3.176   4.733  17.543  0.00  0.00    +0.000 A 
ATOM     12  C   UNL     1       3.840   3.546  17.190  0.00  0.00    +0.000 A 
ATOM     13  C   UNL     1       3.747   2.467  18.074  0.00  0.00    +0.000 A 
ATOM     14  C   UNL     1       3.036   2.562  19.277  0.00  0.00    +0.000 A 
BRANCH   9  16
ATOM     15  C   UNL     1       1.478   2.814  21.581  0.00  0.00    +0.000 C 
ATOM     16  O   UNL     1       1.698   3.966  20.773  0.00  0.00    +0.000 OA
ENDBRANCH   9  16
ENDBRANCH   1  12
BRANCH   5  17
ATOM     17  N   UNL     1       8.203   5.652  13.515  0.00  0.00    +0.000 N 
ATOM     18  H   UNL     1       8.002   6.443  12.908  0.00  0.00    +0.000 HD
ATOM     19  H   UNL     1       9.099   5.206  13.319  0.00  0.00    +0.000 HD
ENDBRANCH   5  17
BRANCH   6  20
ATOM     20  C   UNL     1       5.721   3.740  13.188  0.00  0.00    +0.000 C 
ATOM     21  N   UNL     1       5.273   3.271  12.224  0.00  0.00    +0.000 NA
ENDBRANCH   6  20
TORSDOF 4
ENDMDL
MODEL 4
REMARK VINA RESULT:      -6.5      4.505      6.398
REMARK  Name = 
REMARK  5 active torsions:
REMARK  status: ('A' for Active; 'I' for Inactive)
REMARK    1  A    between atoms: C_1  and  O_2
REMARK    2  A    between atoms: O_2  and  C_3
REMARK    3  A    between atoms: C_6  and  N_7
REMARK    4  A    between atoms: C_11  and  N_12
REMARK    5  A    between atoms: C_13  and  C_14
REMARK                            x       y       z     vdW  Elec       q    Type
REMARK                         _______ _______ _______ _____ _____    ______ ____
ROOT
ATOM      1  N   UNL     1       7.228   5.735  15.272  0.00  0.00    +0.000 N 
ATOM      2  C   UNL     1       7.506   5.375  16.554  0.00  0.00    +0.000 A 
ATOM      3  N   UNL     1       7.639   4.128  17.027  0.00  0.00    +0.000 NA
ATOM      4  N   UNL     1       7.854   4.278  18.339  0.00  0.00    +0.000 N 
ATOM      5  C   UNL     1       7.871   5.578  18.755  0.00  0.00    +0.000 A 
ATOM      6  C   UNL     1       7.661   6.318  17.611  0.00  0.00    +0.000 A 
ATOM      7  H   UNL     1       7.210   6.725  15.044  0.00  0.00    +0.000 HD
ATOM      8  H   UNL     1       7.970   3.445  18.902  0.00  0.00    +0.000 HD
ENDROOT
BRANCH   1  12
ATOM      9  C   UNL     1       5.870   3.220  12.135  0.00  0.00    +0.000 A 
ATOM     10  C   UNL     1       5.111   3.411  13.288  0.00  0.00    +0.000 A 
ATOM     11  C   UNL     1       5.552   4.278  14.294  0.00  0.00    +0.000 A 
ATOM     12  C   UNL     1       6.778   4.955  14.181  0.00  0.00    +0.000 A 
ATOM     13  C   UNL     1       7.524   4.749  13.016  0.00  0.00    +0.000 A 
ATOM     14  C   UNL     1       7.081   3.890  12.003  0.00  0.00    +0.000 A 
BRANCH   9  16
ATOM     15  C   UNL     1       6.116   1.150  11.031  0.00  0.00    +0.000 C 
ATOM     16  O   UNL     1       5.353   2.335  11.230  0.00  0.00    +0.000 OA
ENDBRANCH   9  16
ENDBRANCH   1  12
BRANCH   5  17
ATOM     17  N   UNL     1       8.054   5.903  20.051  0.00  0.00    +0.000 N 
ATOM     18  H   UNL     1       7.569   5.454  20.824  0.00  0.00    +0.000 HD
ATOM     19  H   UNL     1       8.650   6.678  20.338  0.00  0.00    +0.000 HD
ENDBRANCH   5  17
BRANCH   6  20
ATOM     20  C   UNL     1       7.573   7.734  17.533  0.00  0.00    +0.000 C 
ATOM     21  N   UNL     1       7.492   8.893  17.491  0.00  0.00    +0.000 NA
ENDBRANCH   6  20
TORSDOF 4
ENDMDL
MODEL 5
REMARK VINA RESULT:      -6.5      4.064      6.804
REMARK  Name = 
REMARK  5 active torsions:
REMARK  status: ('A' for Active; 'I' for Inactive)
REMARK    1  A    between atoms: C_1  and  O_2
REMARK    2  A    between atoms: O_2  and  C_3
REMARK    3  A    between atoms: C_6  and  N_7
REMARK    4  A    between atoms: C_11  and  N_12
REMARK    5  A    between atoms: C_13  and  C_14
REMARK                            x       y       z     vdW  Elec       q    Type
REMARK                         _______ _______ _______ _____ _____    ______ ____
ROOT
ATOM      1  N   UNL     1       4.713   4.307  19.466  0.00  0.00    +0.000 N 
ATOM      2  C   UNL     1       3.755   3.572  18.840  0.00  0.00    +0.000 A 
ATOM      3  N   UNL     1       3.574   3.449  17.518  0.00  0.00    +0.000 NA
ATOM      4  N   UNL     1       2.489   2.677  17.389  0.00  0.00    +0.000 N 
ATOM      5  C   UNL     1       1.944   2.280  18.576  0.00  0.00    +0.000 A 
ATOM      6  C   UNL     1       2.757   2.836  19.541  0.00  0.00    +0.000 A 
ATOM      7  H   UNL     1       4.766   4.264  20.479  0.00  0.00    +0.000 HD
ATOM      8  H   UNL     1       2.161   2.466  16.455  0.00  0.00    +0.000 HD
ENDROOT
BRANCH   1  12
ATOM      9  C   UNL     1       7.304   7.185  17.728  0.00  0.00    +0.000 A 
ATOM     10  C   UNL     1       5.971   7.082  17.336  0.00  0.00    +0.000 A 
ATOM     11  C   UNL     1       5.118   6.158  17.949  0.00  0.00    +0.000 A 
ATOM     12  C   UNL     1       5.587   5.295  18.954  0.00  0.00    +0.000 A 
ATOM     13  C   UNL     1       6.928   5.415  19.334  0.00  0.00    +0.000 A 
ATOM     14  C   UNL     1       7.782   6.345  18.728  0.00  0.00    +0.000 A 
BRANCH   9  16
ATOM     15  C   UNL     1       8.293   9.327  17.736  0.00  0.00    +0.000 C 
ATOM     16  O   UNL     1       8.050   8.105  17.046  0.00  0.00    +0.000 OA
ENDBRANCH   9  16
ENDBRANCH   1  12
BRANCH   5  17
ATOM     17  N   UNL     1       0.835   1.515  18.624  0.00  0.00    +0.000 N 
ATOM     18  H   UNL     1       0.104   1.526  17.916  0.00  0.00    +0.000 HD
ATOM     19  H   UNL     1       0.621   0.916  19.420  0.00  0.00    +0.000 HD
ENDBRANCH   5  17
BRANCH   6  20
ATOM     20  C   UNL     1       2.586   2.724  20.947  0.00  0.00    +0.000 C 
ATOM     21  N   UNL     1       2.424   2.624  22.094  0.00  0.00    +0.000 NA
ENDBRANCH   6  20
TORSDOF 4
ENDMDL
MODEL 6
REMARK VINA RESULT:      -6.4      4.533      6.632
REMARK  Name = 
REMARK  5 active torsions:
REMARK  status: ('A' for Active; 'I' for Inactive)
REMARK    1  A    between atoms: C_1  and  O_2
REMARK    2  A    between atoms: O_2  and  C_3
REMARK    3  A    between atoms: C_6  and  N_7
REMARK    4  A    between atoms: C_11  and  N_12
REMARK    5  A    between atoms: C_13  and  C_14
REMARK                            x       y       z     vdW  Elec       q    Type
REMARK                         _______ _______ _______ _____ _____    ______ ____
ROOT
ATOM      1  N   UNL     1       2.487   5.857  20.293  0.00  0.00    +0.000 N 
ATOM      2  C   UNL     1       3.403   4.938  19.884  0.00  0.00    +0.000 A 
ATOM      3  N   UNL     1       4.395   5.131  19.004  0.00  0.00    +0.000 NA
ATOM      4  N   UNL     1       4.988   3.938  18.886  0.00  0.00    +0.000 N 
ATOM      5  C   UNL     1       4.429   2.960  19.658  0.00  0.00    +0.000 A 
ATOM      6  C   UNL     1       3.401   3.586  20.331  0.00  0.00    +0.000 A 
ATOM      7  H   UNL     1       1.822   5.585  21.011  0.00  0.00    +0.000 HD
ATOM      8  H   UNL     1       5.769   3.853  18.248  0.00  0.00    +0.000 HD
ENDROOT
BRANCH   1  12
ATOM      9  C   UNL     1       1.321   9.637  18.754  0.00  0.00    +0.000 A 
ATOM     10  C   UNL     1       1.076   9.290  20.081  0.00  0.00    +0.000 A 
ATOM     11  C   UNL     1       1.506   8.057  20.585  0.00  0.00    +0.000 A 
ATOM     12  C   UNL     1       2.170   7.131  19.764  0.00  0.00    +0.000 A 
ATOM     13  C   UNL     1       2.407   7.498  18.436  0.00  0.00    +0.000 A 
ATOM     14  C   UNL     1       1.986   8.735  17.930  0.00  0.00    +0.000 A 
BRANCH   9  16
ATOM     15  C   UNL     1       1.033  11.915  19.294  0.00  0.00    +0.000 C 
ATOM     16  O   UNL     1       0.838  10.855  18.364  0.00  0.00    +0.000 OA
ENDBRANCH   9  16
ENDBRANCH   1  12
BRANCH   5  17
ATOM     17  N   UNL     1       4.893   1.695  19.641  0.00  0.00    +0.000 N 
ATOM     18  H   UNL     1       4.591   0.985  18.977  0.00  0.00    +0.000 HD
ATOM     19  H   UNL     1       5.539   1.343  20.347  0.00  0.00    +0.000 HD
ENDBRANCH   5  17
BRANCH   6  20
ATOM     20  C   UNL     1       2.503   2.973  21.246  0.00  0.00    +0.000 C 
ATOM     21  N   UNL     1       1.752   2.475  21.980  0.00  0.00    +0.000 NA
ENDBRANCH   6  20
TORSDOF 4
ENDMDL
MODEL 7
REMARK VINA RESULT:      -6.3      4.214      6.666
REMARK  Name = 
REMARK  5 active torsions:
REMARK  status: ('A' for Active; 'I' for Inactive)
REMARK    1  A    between atoms: C_1  and  O_2
REMARK    2  A    between atoms: O_2  and  C_3
REMARK    3  A    between atoms: C_6  and  N_7
REMARK    4  A    between atoms: C_11  and  N_12
REMARK    5  A    between atoms: C_13  and  C_14
REMARK                            x       y       z     vdW  Elec       q    Type
REMARK                         _______ _______ _______ _____ _____    ______ ____
ROOT
ATOM      1  N   UNL     1       5.910   4.172  18.820  0.00  0.00    +0.000 N 
ATOM      2  C   UNL     1       4.682   3.652  18.552  0.00  0.00    +0.000 A 
ATOM      3  N   UNL     1       3.822   4.069  17.613  0.00  0.00    +0.000 NA
ATOM      4  N   UNL     1       2.742   3.295  17.767  0.00  0.00    +0.000 N 
ATOM      5  C   UNL     1       2.854   2.376  18.771  0.00  0.00    +0.000 A 
ATOM      6  C   UNL     1       4.114   2.576  19.293  0.00  0.00    +0.000 A 
ATOM      7  H   UNL     1       6.480   3.718  19.528  0.00  0.00    +0.000 HD
ATOM      8  H   UNL     1       1.950   3.452  17.156  0.00  0.00    +0.000 HD
ENDROOT
BRANCH   1  12
ATOM      9  C   UNL     1       7.674   7.878  17.738  0.00  0.00    +0.000 A 
ATOM     10  C   UNL     1       8.242   7.066  18.719  0.00  0.00    +0.000 A 
ATOM     11  C   UNL     1       7.672   5.827  19.033  0.00  0.00    +0.000 A 
ATOM     12  C   UNL     1       6.505   5.382  18.390  0.00  0.00    +0.000 A 
ATOM     13  C   UNL     1       5.952   6.210  17.409  0.00  0.00    +0.000 A 
ATOM     14  C   UNL     1       6.524   7.447  17.085  0.00  0.00    +0.000 A 
BRANCH   9  16
ATOM     15  C   UNL     1       8.839   9.693  18.693  0.00  0.00    +0.000 C 
ATOM     16  O   UNL     1       8.301   9.075  17.530  0.00  0.00    +0.000 OA
ENDBRANCH   9  16
ENDBRANCH   1  12
BRANCH   5  17
ATOM     17  N   UNL     1       1.847   1.532  19.072  0.00  0.00    +0.000 N 
ATOM     18  H   UNL     1       1.333   0.990  18.382  0.00  0.00    +0.000 HD
ATOM     19  H   UNL     1       1.485   1.432  20.020  0.00  0.00    +0.000 HD
ENDBRANCH   5  17
BRANCH   6  20
ATOM     20  C   UNL     1       4.692   1.870  20.383  0.00  0.00    +0.000 C 
ATOM     21  N   UNL     1       5.165   1.311  21.286  0.00  0.00    +0.000 NA
ENDBRANCH   6  20
TORSDOF 4
ENDMDL
MODEL 8
REMARK VINA RESULT:      -6.3      3.880      7.041
REMARK  Name = 
REMARK  5 active torsions:
REMARK  status: ('A' for Active; 'I' for Inactive)
REMARK    1  A    between atoms: C_1  and  O_2
REMARK    2  A    between atoms: O_2  and  C_3
REMARK    3  A    between atoms: C_6  and  N_7
REMARK    4  A    between atoms: C_11  and  N_12
REMARK    5  A    between atoms: C_13  and  C_14
REMARK                            x       y       z     vdW  Elec       q    Type
REMARK                         _______ _______ _______ _____ _____    ______ ____
ROOT
ATOM      1  N   UNL     1       4.225   5.186  18.795  0.00  0.00    +0.000 N 
ATOM      2  C   UNL     1       3.780   4.202  19.624  0.00  0.00    +0.000 A 
ATOM      3  N   UNL     1       4.259   2.955  19.718  0.00  0.00    +0.000 NA
ATOM      4  N   UNL     1       3.475   2.351  20.617  0.00  0.00    +0.000 N 
ATOM      5  C   UNL     1       2.494   3.152  21.127  0.00  0.00    +0.000 A 
ATOM      6  C   UNL     1       2.676   4.371  20.508  0.00  0.00    +0.000 A 
ATOM      7  H   UNL     1       3.800   6.105  18.870  0.00  0.00    +0.000 HD
ATOM      8  H   UNL     1       3.656   1.379  20.834  0.00  0.00    +0.000 HD
ENDROOT
BRANCH   1  12
ATOM      9  C   UNL     1       6.842   5.210  15.454  0.00  0.00    +0.000 A 
ATOM     10  C   UNL     1       7.187   5.843  16.647  0.00  0.00    +0.000 A 
ATOM     11  C   UNL     1       6.332   5.788  17.754  0.00  0.00    +0.000 A 
ATOM     12  C   UNL     1       5.098   5.119  17.684  0.00  0.00    +0.000 A 
ATOM     13  C   UNL     1       4.772   4.491  16.479  0.00  0.00    +0.000 A 
ATOM     14  C   UNL     1       5.629   4.536  15.371  0.00  0.00    +0.000 A 
BRANCH   9  16
ATOM     15  C   UNL     1       7.320   4.830  13.176  0.00  0.00    +0.000 C 
ATOM     16  O   UNL     1       7.741   5.348  14.434  0.00  0.00    +0.000 OA
ENDBRANCH   9  16
ENDBRANCH   1  12
BRANCH   5  17
ATOM     17  N   UNL     1       1.604   2.693  22.030  0.00  0.00    +0.000 N 
ATOM     18  H   UNL     1       1.328   1.717  22.112  0.00  0.00    +0.000 HD
ATOM     19  H   UNL     1       1.091   3.315  22.653  0.00  0.00    +0.000 HD
ENDBRANCH   5  17
BRANCH   6  20
ATOM     20  C   UNL     1       1.880   5.533  20.695  0.00  0.00    +0.000 C 
ATOM     21  N   UNL     1       1.228   6.479  20.871  0.00  0.00    +0.000 NA
ENDBRANCH   6  20
TORSDOF 4
ENDMDL
MODEL 9
REMARK VINA RESULT:      -6.3      3.889      7.052
REMARK  Name = 
REMARK  5 active torsions:
REMARK  status: ('A' for Active; 'I' for Inactive)
REMARK    1  A    between atoms: C_1  and  O_2
REMARK    2  A    between atoms: O_2  and  C_3
REMARK    3  A    between atoms: C_6  and  N_7
REMARK    4  A    between atoms: C_11  and  N_12
REMARK    5  A    between atoms: C_13  and  C_14
REMARK                            x       y       z     vdW  Elec       q    Type
REMARK                         _______ _______ _______ _____ _____    ______ ____
ROOT
ATOM      1  N   UNL     1       4.218   5.390  18.976  0.00  0.00    +0.000 N 
ATOM      2  C   UNL     1       3.564   4.362  19.580  0.00  0.00    +0.000 A 
ATOM      3  N   UNL     1       3.849   3.057  19.475  0.00  0.00    +0.000 NA
ATOM      4  N   UNL     1       2.908   2.439  20.197  0.00  0.00    +0.000 N 
ATOM      5  C   UNL     1       2.009   3.284  20.781  0.00  0.00    +0.000 A 
ATOM      6  C   UNL     1       2.419   4.547  20.408  0.00  0.00    +0.000 A 
ATOM      7  H   UNL     1       3.923   6.339  19.191  0.00  0.00    +0.000 HD
ATOM      8  H   UNL     1       2.928   1.428  20.243  0.00  0.00    +0.000 HD
ENDROOT
BRANCH   1  12
ATOM      9  C   UNL     1       6.937   5.225  15.722  0.00  0.00    +0.000 A 
ATOM     10  C   UNL     1       5.644   5.717  15.559  0.00  0.00    +0.000 A 
ATOM     11  C   UNL     1       4.773   5.805  16.651  0.00  0.00    +0.000 A 
ATOM     12  C   UNL     1       5.170   5.380  17.930  0.00  0.00    +0.000 A 
ATOM     13  C   UNL     1       6.472   4.890  18.073  0.00  0.00    +0.000 A 
ATOM     14  C   UNL     1       7.349   4.808  16.984  0.00  0.00    +0.000 A 
BRANCH   9  16
ATOM     15  C   UNL     1       7.062   4.546  13.466  0.00  0.00    +0.000 C 
ATOM     16  O   UNL     1       7.692   5.162  14.584  0.00  0.00    +0.000 OA
ENDBRANCH   9  16
ENDBRANCH   1  12
BRANCH   5  17
ATOM     17  N   UNL     1       0.985   2.822  21.525  0.00  0.00    +0.000 N 
ATOM     18  H   UNL     1       0.787   3.128  22.475  0.00  0.00    +0.000 HD
ATOM     19  H   UNL     1       0.372   2.074  21.202  0.00  0.00    +0.000 HD
ENDBRANCH   5  17
BRANCH   6  20
ATOM     20  C   UNL     1       1.783   5.770  20.753  0.00  0.00    +0.000 C 
ATOM     21  N   UNL     1       1.281   6.782  21.027  0.00  0.00    +0.000 NA
ENDBRANCH   6  20
TORSDOF 4
ENDMDL
