MODEL 1
REMARK VINA RESULT:      -7.7      0.000      0.000
REMARK  Name = 
REMARK  6 active torsions:
REMARK  status: ('A' for Active; 'I' for Inactive)
REMARK    1  A    between atoms: C_1  and  O_2
REMARK    2  A    between atoms: O_2  and  C_3
REMARK    3  A    between atoms: C_6  and  S_7
REMARK    4  A    between atoms: S_7  and  N_10
REMARK    5  A    between atoms: C_13  and  N_14
REMARK    6  A    between atoms: C_16  and  C_17
REMARK                            x       y       z     vdW  Elec       q    Type
REMARK                         _______ _______ _______ _____ _____    ______ ____
ROOT
ATOM      1  N   UNL     1       0.552  10.270  20.219  0.00  0.00    +0.000 NA
ATOM      2  C   UNL     1      -0.758  10.258  19.532  0.00  0.00    +0.000 C 
ATOM      3  C   UNL     1      -0.927  11.431  18.580  0.00  0.00    +0.000 C 
ATOM      4  C   UNL     1      -0.677  12.764  19.298  0.00  0.00    +0.000 C 
ATOM      5  C   UNL     1       0.794  12.726  19.744  0.00  0.00    +0.000 C 
ATOM      6  C   UNL     1       1.069  11.580  20.706  0.00  0.00    +0.000 C 
ENDROOT
BRANCH   4   7
ATOM      7  N   UNL     1      -1.644  13.073  20.363  0.00  0.00    +0.000 N 
ATOM      8  C   UNL     1      -2.935  12.626  20.485  0.00  0.00    +0.000 A 
ATOM      9  C   UNL     1      -3.478  13.167  21.643  0.00  0.00    +0.000 A 
ATOM     10  C   UNL     1      -2.463  14.059  22.060  0.00  0.00    +0.000 A 
ATOM     11  N   UNL     1      -1.350  13.991  21.309  0.00  0.00    +0.000 NA
BRANCH   9  12
ATOM     12  C   UNL     1      -4.885  13.014  22.011  0.00  0.00    +0.000 A 
ATOM     13  N   UNL     1      -5.222  13.496  23.242  0.00  0.00    +0.000 NA
ATOM     14  C   UNL     1      -6.377  13.086  23.792  0.00  0.00    +0.000 A 
ATOM     15  N   UNL     1      -7.198  12.128  23.344  0.00  0.00    +0.000 NA
ATOM     16  C   UNL     1      -6.929  11.835  22.069  0.00  0.00    +0.000 A 
ATOM     17  N   UNL     1      -7.713  11.035  21.288  0.00  0.00    +0.000 N 
ATOM     18  C   UNL     1      -7.528  11.429  19.987  0.00  0.00    +0.000 A 
ATOM     19  C   UNL     1      -6.354  12.169  19.946  0.00  0.00    +0.000 A 
ATOM     20  C   UNL     1      -5.890  12.340  21.289  0.00  0.00    +0.000 A 
ATOM     21  H   UNL     1      -8.474  10.473  21.645  0.00  0.00    +0.000 HD
ENDBRANCH   9  12
ENDBRANCH   4   7
BRANCH   1  22
ATOM     22  S   UNL     1       0.807   8.944  21.323  0.00  0.00    +0.000 S 
ATOM     23  O   UNL     1      -0.500   8.393  21.603  0.00  0.00    +0.000 OA
ATOM     24  O   UNL     1       1.700   9.366  22.359  0.00  0.00    +0.000 OA
BRANCH  22  28
ATOM     25  C   UNL     1       2.582   5.768  18.563  0.00  0.00    +0.000 A 
ATOM     26  C   UNL     1       2.609   7.109  18.180  0.00  0.00    +0.000 A 
ATOM     27  C   UNL     1       2.170   8.107  19.053  0.00  0.00    +0.000 A 
ATOM     28  C   UNL     1       1.670   7.747  20.302  0.00  0.00    +0.000 A 
ATOM     29  C   UNL     1       1.726   6.418  20.735  0.00  0.00    +0.000 A 
ATOM     30  C   UNL     1       2.176   5.427  19.859  0.00  0.00    +0.000 A 
BRANCH  25  32
ATOM     31  C   UNL     1       2.283   3.631  17.568  0.00  0.00    +0.000 C 
ATOM     32  O   UNL     1       2.959   4.883  17.591  0.00  0.00    +0.000 OA
ENDBRANCH  25  32
ENDBRANCH  22  28
ENDBRANCH   1  22
TORSDOF 5
ENDMDL
MODEL 2
REMARK VINA RESULT:      -7.6      3.383      4.740
REMARK  Name = 
REMARK  6 active torsions:
REMARK  status: ('A' for Active; 'I' for Inactive)
REMARK    1  A    between atoms: C_1  and  O_2
REMARK    2  A    between atoms: O_2  and  C_3
REMARK    3  A    between atoms: C_6  and  S_7
REMARK    4  A    between atoms: S_7  and  N_10
REMARK    5  A    between atoms: C_13  and  N_14
REMARK    6  A    between atoms: C_16  and  C_17
REMARK                            x       y       z     vdW  Elec       q    Type
REMARK                         _______ _______ _______ _____ _____    ______ ____
ROOT
ATOM      1  N   UNL     1       0.064  12.759  21.221  0.00  0.00    +0.000 NA
ATOM      2  C   UNL     1      -0.347  14.134  21.581  0.00  0.00    +0.000 C 
ATOM      3  C   UNL     1      -0.836  14.238  23.018  0.00  0.00    +0.000 C 
ATOM      4  C   UNL     1      -1.952  13.222  23.295  0.00  0.00    +0.000 C 
ATOM      5  C   UNL     1      -1.307  11.837  23.115  0.00  0.00    +0.000 C 
ATOM      6  C   UNL     1      -0.783  11.632  21.701  0.00  0.00    +0.000 C 
ENDROOT
BRANCH   4   7
ATOM      7  N   UNL     1      -3.183  13.442  22.521  0.00  0.00    +0.000 N 
ATOM      8  C   UNL     1      -3.928  12.513  21.841  0.00  0.00    +0.000 A 
ATOM      9  C   UNL     1      -5.007  13.162  21.255  0.00  0.00    +0.000 A 
ATOM     10  C   UNL     1      -4.719  14.521  21.522  0.00  0.00    +0.000 A 
ATOM     11  N   UNL     1      -3.638  14.694  22.302  0.00  0.00    +0.000 NA
BRANCH   9  12
ATOM     12  C   UNL     1      -5.933  12.500  20.336  0.00  0.00    +0.000 A 
ATOM     13  N   UNL     1      -6.462  11.326  20.786  0.00  0.00    +0.000 NA
ATOM     14  C   UNL     1      -7.022  10.496  19.891  0.00  0.00    +0.000 A 
ATOM     15  N   UNL     1      -7.003  10.603  18.556  0.00  0.00    +0.000 NA
ATOM     16  C   UNL     1      -6.652  11.838  18.188  0.00  0.00    +0.000 A 
ATOM     17  N   UNL     1      -6.722  12.301  16.905  0.00  0.00    +0.000 N 
ATOM     18  C   UNL     1      -6.895  13.661  16.971  0.00  0.00    +0.000 A 
ATOM     19  C   UNL     1      -6.525  14.059  18.249  0.00  0.00    +0.000 A 
ATOM     20  C   UNL     1      -6.249  12.883  19.017  0.00  0.00    +0.000 A 
ATOM     21  H   UNL     1      -6.895  11.710  16.103  0.00  0.00    +0.000 HD
ENDBRANCH   9  12
ENDBRANCH   4   7
BRANCH   1  22
ATOM     22  S   UNL     1       0.639  12.577  19.584  0.00  0.00    +0.000 S 
ATOM     23  O   UNL     1       1.792  11.707  19.654  0.00  0.00    +0.000 OA
ATOM     24  O   UNL     1       0.686  13.866  18.963  0.00  0.00    +0.000 OA
BRANCH  22  28
ATOM     25  C   UNL     1      -2.621  10.424  17.220  0.00  0.00    +0.000 A 
ATOM     26  C   UNL     1      -1.400   9.789  17.449  0.00  0.00    +0.000 A 
ATOM     27  C   UNL     1      -0.430  10.384  18.259  0.00  0.00    +0.000 A 
ATOM     28  C   UNL     1      -0.679  11.638  18.811  0.00  0.00    +0.000 A 
ATOM     29  C   UNL     1      -1.934  12.242  18.668  0.00  0.00    +0.000 A 
ATOM     30  C   UNL     1      -2.902  11.634  17.864  0.00  0.00    +0.000 A 
BRANCH  25  32
ATOM     31  C   UNL     1      -3.561  10.334  15.040  0.00  0.00    +0.000 C 
ATOM     32  O   UNL     1      -3.452   9.780  16.345  0.00  0.00    +0.000 OA
ENDBRANCH  25  32
ENDBRANCH  22  28
ENDBRANCH   1  22
TORSDOF 5
ENDMDL
MODEL 3
REMARK VINA RESULT:      -7.5      3.200      9.369
REMARK  Name = 
REMARK  6 active torsions:
REMARK  status: ('A' for Active; 'I' for Inactive)
REMARK    1  A    between atoms: C_1  and  O_2
REMARK    2  A    between atoms: O_2  and  C_3
REMARK    3  A    between atoms: C_6  and  S_7
REMARK    4  A    between atoms: S_7  and  N_10
REMARK    5  A    between atoms: C_13  and  N_14
REMARK    6  A    between atoms: C_16  and  C_17
REMARK                            x       y       z     vdW  Elec       q    Type
REMARK                         _______ _______ _______ _____ _____    ______ ____
ROOT
ATOM      1  N   UNL     1      -0.023  11.858  20.387  0.00  0.00    +0.000 NA
ATOM      2  C   UNL     1       1.415  11.803  20.041  0.00  0.00    +0.000 C 
ATOM      3  C   UNL     1       1.651  11.389  18.597  0.00  0.00    +0.000 C 
ATOM      4  C   UNL     1       0.941  10.065  18.280  0.00  0.00    +0.000 C 
ATOM      5  C   UNL     1      -0.561  10.349  18.451  0.00  0.00    +0.000 C 
ATOM      6  C   UNL     1      -0.903  10.772  19.872  0.00  0.00    +0.000 C 
ENDROOT
BRANCH   4   7
ATOM      7  N   UNL     1       1.447   8.907  19.033  0.00  0.00    +0.000 N 
ATOM      8  C   UNL     1       2.119   7.814  18.546  0.00  0.00    +0.000 A 
ATOM      9  C   UNL     1       2.407   6.969  19.610  0.00  0.00    +0.000 A 
ATOM     10  C   UNL     1       1.715   7.587  20.678  0.00  0.00    +0.000 A 
ATOM     11  N   UNL     1       1.157   8.763  20.343  0.00  0.00    +0.000 NA
BRANCH   9  12
ATOM     12  C   UNL     1       2.993   5.640  19.437  0.00  0.00    +0.000 A 
ATOM     13  N   UNL     1       4.356   5.597  19.459  0.00  0.00    +0.000 NA
ATOM     14  C   UNL     1       4.966   4.508  18.962  0.00  0.00    +0.000 A 
ATOM     15  N   UNL     1       4.404   3.491  18.297  0.00  0.00    +0.000 NA
ATOM     16  C   UNL     1       3.080   3.488  18.472  0.00  0.00    +0.000 A 
ATOM     17  N   UNL     1       2.259   2.472  18.073  0.00  0.00    +0.000 N 
ATOM     18  C   UNL     1       1.165   2.484  18.901  0.00  0.00    +0.000 A 
ATOM     19  C   UNL     1       1.130   3.728  19.516  0.00  0.00    +0.000 A 
ATOM     20  C   UNL     1       2.317   4.438  19.149  0.00  0.00    +0.000 A 
ATOM     21  H   UNL     1       2.556   1.711  17.477  0.00  0.00    +0.000 HD
ENDBRANCH   9  12
ENDBRANCH   4   7
BRANCH   1  22
ATOM     22  S   UNL     1      -0.357  12.332  22.032  0.00  0.00    +0.000 S 
ATOM     23  O   UNL     1       0.443  13.509  22.285  0.00  0.00    +0.000 OA
ATOM     24  O   UNL     1      -0.303  11.172  22.870  0.00  0.00    +0.000 OA
BRANCH  22  28
ATOM     25  C   UNL     1      -4.780  13.342  21.512  0.00  0.00    +0.000 A 
ATOM     26  C   UNL     1      -4.354  12.673  22.660  0.00  0.00    +0.000 A 
ATOM     27  C   UNL     1      -2.995  12.450  22.890  0.00  0.00    +0.000 A 
ATOM     28  C   UNL     1      -2.066  12.870  21.942  0.00  0.00    +0.000 A 
ATOM     29  C   UNL     1      -2.471  13.625  20.835  0.00  0.00    +0.000 A 
ATOM     30  C   UNL     1      -3.832  13.853  20.619  0.00  0.00    +0.000 A 
BRANCH  25  32
ATOM     31  C   UNL     1      -6.840  12.198  21.204  0.00  0.00    +0.000 C 
ATOM     32  O   UNL     1      -6.137  13.425  21.363  0.00  0.00    +0.000 OA
ENDBRANCH  25  32
ENDBRANCH  22  28
ENDBRANCH   1  22
TORSDOF 5
ENDMDL
MODEL 4
REMARK VINA RESULT:      -7.5      3.588      9.520
REMARK  Name = 
REMARK  6 active torsions:
REMARK  status: ('A' for Active; 'I' for Inactive)
REMARK    1  A    between atoms: C_1  and  O_2
REMARK    2  A    between atoms: O_2  and  C_3
REMARK    3  A    between atoms: C_6  and  S_7
REMARK    4  A    between atoms: S_7  and  N_10
REMARK    5  A    between atoms: C_13  and  N_14
REMARK    6  A    between atoms: C_16  and  C_17
REMARK                            x       y       z     vdW  Elec       q    Type
REMARK                         _______ _______ _______ _____ _____    ______ ____
ROOT
ATOM      1  N   UNL     1      -1.714  11.057  18.691  0.00  0.00    +0.000 NA
ATOM      2  C   UNL     1      -1.518   9.975  19.681  0.00  0.00    +0.000 C 
ATOM      3  C   UNL     1      -0.432  10.303  20.694  0.00  0.00    +0.000 C 
ATOM      4  C   UNL     1       0.882  10.673  19.992  0.00  0.00    +0.000 C 
ATOM      5  C   UNL     1       0.579  11.952  19.193  0.00  0.00    +0.000 C 
ATOM      6  C   UNL     1      -0.501  11.728  18.146  0.00  0.00    +0.000 C 
ENDROOT
BRANCH   4   7
ATOM      7  N   UNL     1       1.487   9.580  19.215  0.00  0.00    +0.000 N 
ATOM      8  C   UNL     1       1.698   8.283  19.608  0.00  0.00    +0.000 A 
ATOM      9  C   UNL     1       2.292   7.599  18.556  0.00  0.00    +0.000 A 
ATOM     10  C   UNL     1       2.537   8.636  17.625  0.00  0.00    +0.000 A 
ATOM     11  N   UNL     1       2.034   9.823  18.005  0.00  0.00    +0.000 NA
BRANCH   9  12
ATOM     12  C   UNL     1       2.787   6.227  18.675  0.00  0.00    +0.000 A 
ATOM     13  N   UNL     1       3.921   5.953  17.969  0.00  0.00    +0.000 NA
ATOM     14  C   UNL     1       4.232   4.667  17.738  0.00  0.00    +0.000 A 
ATOM     15  N   UNL     1       3.480   3.588  17.992  0.00  0.00    +0.000 NA
ATOM     16  C   UNL     1       2.492   3.892  18.839  0.00  0.00    +0.000 A 
ATOM     17  N   UNL     1       1.678   2.965  19.425  0.00  0.00    +0.000 N 
ATOM     18  C   UNL     1       1.248   3.496  20.615  0.00  0.00    +0.000 A 
ATOM     19  C   UNL     1       1.463   4.866  20.554  0.00  0.00    +0.000 A 
ATOM     20  C   UNL     1       2.170   5.150  19.342  0.00  0.00    +0.000 A 
ATOM     21  H   UNL     1       1.648   1.991  19.154  0.00  0.00    +0.000 HD
ENDBRANCH   9  12
ENDBRANCH   4   7
BRANCH   1  22
ATOM     22  S   UNL     1      -2.953  10.740  17.504  0.00  0.00    +0.000 S 
ATOM     23  O   UNL     1      -3.337   9.357  17.678  0.00  0.00    +0.000 OA
ATOM     24  O   UNL     1      -2.532  11.267  16.241  0.00  0.00    +0.000 OA
BRANCH  22  28
ATOM     25  C   UNL     1      -6.646  12.884  19.123  0.00  0.00    +0.000 A 
ATOM     26  C   UNL     1      -5.487  12.823  19.898  0.00  0.00    +0.000 A 
ATOM     27  C   UNL     1      -4.315  12.267  19.381  0.00  0.00    +0.000 A 
ATOM     28  C   UNL     1      -4.321  11.741  18.092  0.00  0.00    +0.000 A 
ATOM     29  C   UNL     1      -5.445  11.882  17.271  0.00  0.00    +0.000 A 
ATOM     30  C   UNL     1      -6.611  12.448  17.793  0.00  0.00    +0.000 A 
BRANCH  25  32
ATOM     31  C   UNL     1      -7.589  14.610  20.456  0.00  0.00    +0.000 C 
ATOM     32  O   UNL     1      -7.747  13.374  19.769  0.00  0.00    +0.000 OA
ENDBRANCH  25  32
ENDBRANCH  22  28
ENDBRANCH   1  22
TORSDOF 5
ENDMDL
MODEL 5
REMARK VINA RESULT:      -7.5      3.343      9.467
REMARK  Name = 
REMARK  6 active torsions:
REMARK  status: ('A' for Active; 'I' for Inactive)
REMARK    1  A    between atoms: C_1  and  O_2
REMARK    2  A    between atoms: O_2  and  C_3
REMARK    3  A    between atoms: C_6  and  S_7
REMARK    4  A    between atoms: S_7  and  N_10
REMARK    5  A    between atoms: C_13  and  N_14
REMARK    6  A    between atoms: C_16  and  C_17
REMARK                            x       y       z     vdW  Elec       q    Type
REMARK                         _______ _______ _______ _____ _____    ______ ____
ROOT
ATOM      1  N   UNL     1      -0.173  12.044  20.585  0.00  0.00    +0.000 NA
ATOM      2  C   UNL     1       1.276  11.980  20.297  0.00  0.00    +0.000 C 
ATOM      3  C   UNL     1       1.566  11.597  18.854  0.00  0.00    +0.000 C 
ATOM      4  C   UNL     1       0.856  10.290  18.477  0.00  0.00    +0.000 C 
ATOM      5  C   UNL     1      -0.649  10.587  18.594  0.00  0.00    +0.000 C 
ATOM      6  C   UNL     1      -1.044  10.982  20.009  0.00  0.00    +0.000 C 
ENDROOT
BRANCH   4   7
ATOM      7  N   UNL     1       1.318   9.108  19.222  0.00  0.00    +0.000 N 
ATOM      8  C   UNL     1       2.006   8.024  18.739  0.00  0.00    +0.000 A 
ATOM      9  C   UNL     1       2.237   7.149  19.792  0.00  0.00    +0.000 A 
ATOM     10  C   UNL     1       1.498   7.744  20.842  0.00  0.00    +0.000 A 
ATOM     11  N   UNL     1       0.964   8.932  20.513  0.00  0.00    +0.000 NA
BRANCH   9  12
ATOM     12  C   UNL     1       2.823   5.821  19.612  0.00  0.00    +0.000 A 
ATOM     13  N   UNL     1       4.171   5.802  19.403  0.00  0.00    +0.000 NA
ATOM     14  C   UNL     1       4.718   4.690  18.885  0.00  0.00    +0.000 A 
ATOM     15  N   UNL     1       4.081   3.618  18.397  0.00  0.00    +0.000 NA
ATOM     16  C   UNL     1       2.806   3.607  18.796  0.00  0.00    +0.000 A 
ATOM     17  N   UNL     1       1.959   2.551  18.613  0.00  0.00    +0.000 N 
ATOM     18  C   UNL     1       1.021   2.604  19.614  0.00  0.00    +0.000 A 
ATOM     19  C   UNL     1       1.056   3.889  20.140  0.00  0.00    +0.000 A 
ATOM     20  C   UNL     1       2.143   4.590  19.527  0.00  0.00    +0.000 A 
ATOM     21  H   UNL     1       2.172   1.754  18.029  0.00  0.00    +0.000 HD
ENDBRANCH   9  12
ENDBRANCH   4   7
BRANCH   1  22
ATOM     22  S   UNL     1      -0.569  12.484  22.226  0.00  0.00    +0.000 S 
ATOM     23  O   UNL     1       0.195  13.675  22.522  0.00  0.00    +0.000 OA
ATOM     24  O   UNL     1      -0.515  11.312  23.047  0.00  0.00    +0.000 OA
BRANCH  22  28
ATOM     25  C   UNL     1      -4.861  14.044  22.249  0.00  0.00    +0.000 A 
ATOM     26  C   UNL     1      -3.949  14.543  21.318  0.00  0.00    +0.000 A 
ATOM     27  C   UNL     1      -2.664  14.005  21.222  0.00  0.00    +0.000 A 
ATOM     28  C   UNL     1      -2.287  12.985  22.091  0.00  0.00    +0.000 A 
ATOM     29  C   UNL     1      -3.219  12.411  22.963  0.00  0.00    +0.000 A 
ATOM     30  C   UNL     1      -4.506  12.949  23.045  0.00  0.00    +0.000 A 
BRANCH  25  32
ATOM     31  C   UNL     1      -6.340  15.421  23.499  0.00  0.00    +0.000 C 
ATOM     32  O   UNL     1      -6.055  14.709  22.301  0.00  0.00    +0.000 OA
ENDBRANCH  25  32
ENDBRANCH  22  28
ENDBRANCH   1  22
TORSDOF 5
ENDMDL
MODEL 6
REMARK VINA RESULT:      -7.5      5.019      8.139
REMARK  Name = 
REMARK  6 active torsions:
REMARK  status: ('A' for Active; 'I' for Inactive)
REMARK    1  A    between atoms: C_1  and  O_2
REMARK    2  A    between atoms: O_2  and  C_3
REMARK    3  A    between atoms: C_6  and  S_7
REMARK    4  A    between atoms: S_7  and  N_10
REMARK    5  A    between atoms: C_13  and  N_14
REMARK    6  A    between atoms: C_16  and  C_17
REMARK                            x       y       z     vdW  Elec       q    Type
REMARK                         _______ _______ _______ _____ _____    ______ ____
ROOT
ATOM      1  N   UNL     1       5.658   4.285  17.674  0.00  0.00    +0.000 NA
ATOM      2  C   UNL     1       5.499   4.764  19.065  0.00  0.00    +0.000 C 
ATOM      3  C   UNL     1       4.197   4.296  19.696  0.00  0.00    +0.000 C 
ATOM      4  C   UNL     1       2.993   4.679  18.824  0.00  0.00    +0.000 C 
ATOM      5  C   UNL     1       3.179   3.914  17.503  0.00  0.00    +0.000 C 
ATOM      6  C   UNL     1       4.461   4.314  16.788  0.00  0.00    +0.000 C 
ENDROOT
BRANCH   4   7
ATOM      7  N   UNL     1       2.779   6.127  18.683  0.00  0.00    +0.000 N 
ATOM      8  C   UNL     1       2.027   6.950  19.482  0.00  0.00    +0.000 A 
ATOM      9  C   UNL     1       2.109   8.242  18.979  0.00  0.00    +0.000 A 
ATOM     10  C   UNL     1       2.818   8.047  17.771  0.00  0.00    +0.000 A 
ATOM     11  N   UNL     1       3.243   6.784  17.598  0.00  0.00    +0.000 NA
BRANCH   9  12
ATOM     12  C   UNL     1       1.315   9.353  19.503  0.00  0.00    +0.000 A 
ATOM     13  N   UNL     1       1.311  10.480  18.735  0.00  0.00    +0.000 NA
ATOM     14  C   UNL     1       0.917  11.633  19.300  0.00  0.00    +0.000 A 
ATOM     15  N   UNL     1       0.655  11.861  20.593  0.00  0.00    +0.000 NA
ATOM     16  C   UNL     1       0.488  10.709  21.249  0.00  0.00    +0.000 A 
ATOM     17  N   UNL     1       0.031  10.621  22.533  0.00  0.00    +0.000 N 
ATOM     18  C   UNL     1      -0.583   9.401  22.664  0.00  0.00    +0.000 A 
ATOM     19  C   UNL     1      -0.146   8.608  21.612  0.00  0.00    +0.000 A 
ATOM     20  C   UNL     1       0.652   9.420  20.745  0.00  0.00    +0.000 A 
ATOM     21  H   UNL     1      -0.072  11.417  23.148  0.00  0.00    +0.000 HD
ENDBRANCH   9  12
ENDBRANCH   4   7
BRANCH   1  22
ATOM     22  S   UNL     1       7.137   4.786  16.898  0.00  0.00    +0.000 S 
ATOM     23  O   UNL     1       6.828   4.931  15.493  0.00  0.00    +0.000 OA
ATOM     24  O   UNL     1       8.211   3.963  17.367  0.00  0.00    +0.000 OA
BRANCH  22  28
ATOM     25  C   UNL     1       8.161   9.001  18.325  0.00  0.00    +0.000 A 
ATOM     26  C   UNL     1       7.239   8.826  17.292  0.00  0.00    +0.000 A 
ATOM     27  C   UNL     1       6.831   7.546  16.913  0.00  0.00    +0.000 A 
ATOM     28  C   UNL     1       7.381   6.438  17.553  0.00  0.00    +0.000 A 
ATOM     29  C   UNL     1       8.231   6.601  18.652  0.00  0.00    +0.000 A 
ATOM     30  C   UNL     1       8.626   7.887  19.032  0.00  0.00    +0.000 A 
BRANCH  25  32
ATOM     31  C   UNL     1       9.407  10.530  19.651  0.00  0.00    +0.000 C 
ATOM     32  O   UNL     1       8.541  10.296  18.546  0.00  0.00    +0.000 OA
ENDBRANCH  25  32
ENDBRANCH  22  28
ENDBRANCH   1  22
TORSDOF 5
ENDMDL
MODEL 7
REMARK VINA RESULT:      -7.5      3.307      9.772
REMARK  Name = 
REMARK  6 active torsions:
REMARK  status: ('A' for Active; 'I' for Inactive)
REMARK    1  A    between atoms: C_1  and  O_2
REMARK    2  A    between atoms: O_2  and  C_3
REMARK    3  A    between atoms: C_6  and  S_7
REMARK    4  A    between atoms: S_7  and  N_10
REMARK    5  A    between atoms: C_13  and  N_14
REMARK    6  A    between atoms: C_16  and  C_17
REMARK                            x       y       z     vdW  Elec       q    Type
REMARK                         _______ _______ _______ _____ _____    ______ ____
ROOT
ATOM      1  N   UNL     1      -0.046  11.757  20.375  0.00  0.00    +0.000 NA
ATOM      2  C   UNL     1       1.387  11.769  20.007  0.00  0.00    +0.000 C 
ATOM      3  C   UNL     1       1.616  11.414  18.546  0.00  0.00    +0.000 C 
ATOM      4  C   UNL     1       0.953  10.076  18.194  0.00  0.00    +0.000 C 
ATOM      5  C   UNL     1      -0.556  10.295  18.396  0.00  0.00    +0.000 C 
ATOM      6  C   UNL     1      -0.892  10.656  19.835  0.00  0.00    +0.000 C 
ENDROOT
BRANCH   4   7
ATOM      7  N   UNL     1       1.515   8.913  18.898  0.00  0.00    +0.000 N 
ATOM      8  C   UNL     1       2.215   7.862  18.364  0.00  0.00    +0.000 A 
ATOM      9  C   UNL     1       2.554   6.994  19.393  0.00  0.00    +0.000 A 
ATOM     10  C   UNL     1       1.861   7.551  20.494  0.00  0.00    +0.000 A 
ATOM     11  N   UNL     1       1.255   8.716  20.208  0.00  0.00    +0.000 NA
BRANCH   9  12
ATOM     12  C   UNL     1       3.184   5.693  19.166  0.00  0.00    +0.000 A 
ATOM     13  N   UNL     1       2.487   4.618  19.632  0.00  0.00    +0.000 NA
ATOM     14  C   UNL     1       3.140   3.454  19.784  0.00  0.00    +0.000 A 
ATOM     15  N   UNL     1       4.456   3.236  19.672  0.00  0.00    +0.000 NA
ATOM     16  C   UNL     1       5.049   4.253  19.039  0.00  0.00    +0.000 A 
ATOM     17  N   UNL     1       6.347   4.235  18.614  0.00  0.00    +0.000 N 
ATOM     18  C   UNL     1       6.435   5.081  17.538  0.00  0.00    +0.000 A 
ATOM     19  C   UNL     1       5.316   5.902  17.570  0.00  0.00    +0.000 A 
ATOM     20  C   UNL     1       4.460   5.444  18.622  0.00  0.00    +0.000 A 
ATOM     21  H   UNL     1       7.013   3.521  18.876  0.00  0.00    +0.000 HD
ENDBRANCH   9  12
ENDBRANCH   4   7
BRANCH   1  22
ATOM     22  S   UNL     1      -0.373  12.161  22.040  0.00  0.00    +0.000 S 
ATOM     23  O   UNL     1       0.389  13.356  22.324  0.00  0.00    +0.000 OA
ATOM     24  O   UNL     1      -0.266  10.975  22.836  0.00  0.00    +0.000 OA
BRANCH  22  28
ATOM     25  C   UNL     1      -4.863  12.949  21.765  0.00  0.00    +0.000 A 
ATOM     26  C   UNL     1      -4.283  12.677  23.005  0.00  0.00    +0.000 A 
ATOM     27  C   UNL     1      -2.899  12.540  23.128  0.00  0.00    +0.000 A 
ATOM     28  C   UNL     1      -2.101  12.641  21.992  0.00  0.00    +0.000 A 
ATOM     29  C   UNL     1      -2.657  13.008  20.762  0.00  0.00    +0.000 A 
ATOM     30  C   UNL     1      -4.042  13.154  20.650  0.00  0.00    +0.000 A 
BRANCH  25  32
ATOM     31  C   UNL     1      -6.863  13.434  22.951  0.00  0.00    +0.000 C 
ATOM     32  O   UNL     1      -6.230  12.979  21.761  0.00  0.00    +0.000 OA
ENDBRANCH  25  32
ENDBRANCH  22  28
ENDBRANCH   1  22
TORSDOF 5
ENDMDL
MODEL 8
REMARK VINA RESULT:      -7.4      4.453      7.389
REMARK  Name = 
REMARK  6 active torsions:
REMARK  status: ('A' for Active; 'I' for Inactive)
REMARK    1  A    between atoms: C_1  and  O_2
REMARK    2  A    between atoms: O_2  and  C_3
REMARK    3  A    between atoms: C_6  and  S_7
REMARK    4  A    between atoms: S_7  and  N_10
REMARK    5  A    between atoms: C_13  and  N_14
REMARK    6  A    between atoms: C_16  and  C_17
REMARK                            x       y       z     vdW  Elec       q    Type
REMARK                         _______ _______ _______ _____ _____    ______ ____
ROOT
ATOM      1  N   UNL     1       4.843   4.760  18.247  0.00  0.00    +0.000 NA
ATOM      2  C   UNL     1       4.585   4.857  19.701  0.00  0.00    +0.000 C 
ATOM      3  C   UNL     1       3.210   4.334  20.084  0.00  0.00    +0.000 C 
ATOM      4  C   UNL     1       2.109   5.023  19.266  0.00  0.00    +0.000 C 
ATOM      5  C   UNL     1       2.374   4.631  17.802  0.00  0.00    +0.000 C 
ATOM      6  C   UNL     1       3.733   5.113  17.319  0.00  0.00    +0.000 C 
ENDROOT
BRANCH   4   7
ATOM      7  N   UNL     1       1.983   6.468  19.512  0.00  0.00    +0.000 N 
ATOM      8  C   UNL     1       1.517   7.093  20.641  0.00  0.00    +0.000 A 
ATOM      9  C   UNL     1       1.575   8.465  20.436  0.00  0.00    +0.000 A 
ATOM     10  C   UNL     1       1.948   8.548  19.074  0.00  0.00    +0.000 A 
ATOM     11  N   UNL     1       2.217   7.354  18.520  0.00  0.00    +0.000 NA
BRANCH   9  12
ATOM     12  C   UNL     1       1.024   9.437  21.381  0.00  0.00    +0.000 A 
ATOM     13  N   UNL     1       0.768   8.954  22.631  0.00  0.00    +0.000 NA
ATOM     14  C   UNL     1      -0.049   9.660  23.430  0.00  0.00    +0.000 A 
ATOM     15  N   UNL     1      -0.782  10.733  23.105  0.00  0.00    +0.000 NA
ATOM     16  C   UNL     1      -0.353  11.264  21.956  0.00  0.00    +0.000 A 
ATOM     17  N   UNL     1      -0.780  12.465  21.466  0.00  0.00    +0.000 N 
ATOM     18  C   UNL     1       0.232  12.970  20.689  0.00  0.00    +0.000 A 
ATOM     19  C   UNL     1       1.081  11.915  20.385  0.00  0.00    +0.000 A 
ATOM     20  C   UNL     1       0.638  10.765  21.114  0.00  0.00    +0.000 A 
ATOM     21  H   UNL     1      -1.564  12.980  21.843  0.00  0.00    +0.000 HD
ENDBRANCH   9  12
ENDBRANCH   4   7
BRANCH   1  22
ATOM     22  S   UNL     1       6.409   5.342  17.747  0.00  0.00    +0.000 S 
ATOM     23  O   UNL     1       7.380   4.648  18.563  0.00  0.00    +0.000 OA
ATOM     24  O   UNL     1       6.366   6.770  17.653  0.00  0.00    +0.000 OA
BRANCH  22  28
ATOM     25  C   UNL     1       6.413   3.930  13.403  0.00  0.00    +0.000 A 
ATOM     26  C   UNL     1       7.322   4.906  13.814  0.00  0.00    +0.000 A 
ATOM     27  C   UNL     1       7.411   5.274  15.158  0.00  0.00    +0.000 A 
ATOM     28  C   UNL     1       6.557   4.683  16.084  0.00  0.00    +0.000 A 
ATOM     29  C   UNL     1       5.708   3.637  15.704  0.00  0.00    +0.000 A 
ATOM     30  C   UNL     1       5.633   3.268  14.358  0.00  0.00    +0.000 A 
BRANCH  25  32
ATOM     31  C   UNL     1       5.828   2.473  11.620  0.00  0.00    +0.000 C 
ATOM     32  O   UNL     1       6.364   3.718  12.053  0.00  0.00    +0.000 OA
ENDBRANCH  25  32
ENDBRANCH  22  28
ENDBRANCH   1  22
TORSDOF 5
ENDMDL
MODEL 9
REMARK VINA RESULT:      -7.4      3.375      9.810
REMARK  Name = 
REMARK  6 active torsions:
REMARK  status: ('A' for Active; 'I' for Inactive)
REMARK    1  A    between atoms: C_1  and  O_2
REMARK    2  A    between atoms: O_2  and  C_3
REMARK    3  A    between atoms: C_6  and  S_7
REMARK    4  A    between atoms: S_7  and  N_10
REMARK    5  A    between atoms: C_13  and  N_14
REMARK    6  A    between atoms: C_16  and  C_17
REMARK                            x       y       z     vdW  Elec       q    Type
REMARK                         _______ _______ _______ _____ _____    ______ ____
ROOT
ATOM      1  N   UNL     1      -0.083  11.850  20.432  0.00  0.00    +0.000 NA
ATOM      2  C   UNL     1       1.353  11.853  20.077  0.00  0.00    +0.000 C 
ATOM      3  C   UNL     1       1.592  11.513  18.613  0.00  0.00    +0.000 C 
ATOM      4  C   UNL     1       0.919  10.185  18.240  0.00  0.00    +0.000 C 
ATOM      5  C   UNL     1      -0.589  10.415  18.432  0.00  0.00    +0.000 C 
ATOM      6  C   UNL     1      -0.934  10.763  19.873  0.00  0.00    +0.000 C 
ENDROOT
BRANCH   4   7
ATOM      7  N   UNL     1       1.465   9.009  18.936  0.00  0.00    +0.000 N 
ATOM      8  C   UNL     1       2.139   7.945  18.392  0.00  0.00    +0.000 A 
ATOM      9  C   UNL     1       2.470   7.068  19.416  0.00  0.00    +0.000 A 
ATOM     10  C   UNL     1       1.800   7.636  20.525  0.00  0.00    +0.000 A 
ATOM     11  N   UNL     1       1.214   8.814  20.249  0.00  0.00    +0.000 NA
BRANCH   9  12
ATOM     12  C   UNL     1       3.073   5.756  19.179  0.00  0.00    +0.000 A 
ATOM     13  N   UNL     1       2.304   4.688  19.538  0.00  0.00    +0.000 NA
ATOM     14  C   UNL     1       2.903   3.495  19.687  0.00  0.00    +0.000 A 
ATOM     15  N   UNL     1       4.216   3.234  19.670  0.00  0.00    +0.000 NA
ATOM     16  C   UNL     1       4.892   4.254  19.133  0.00  0.00    +0.000 A 
ATOM     17  N   UNL     1       6.219   4.206  18.813  0.00  0.00    +0.000 N 
ATOM     18  C   UNL     1       6.422   5.094  17.787  0.00  0.00    +0.000 A 
ATOM     19  C   UNL     1       5.333   5.954  17.769  0.00  0.00    +0.000 A 
ATOM     20  C   UNL     1       4.379   5.484  18.727  0.00  0.00    +0.000 A 
ATOM     21  H   UNL     1       6.838   3.457  19.093  0.00  0.00    +0.000 HD
ENDBRANCH   9  12
ENDBRANCH   4   7
BRANCH   1  22
ATOM     22  S   UNL     1      -0.420  12.238  22.099  0.00  0.00    +0.000 S 
ATOM     23  O   UNL     1       0.313  13.451  22.388  0.00  0.00    +0.000 OA
ATOM     24  O   UNL     1      -0.284  11.052  22.889  0.00  0.00    +0.000 OA
BRANCH  22  28
ATOM     25  C   UNL     1      -4.739  13.710  22.269  0.00  0.00    +0.000 A 
ATOM     26  C   UNL     1      -3.949  14.012  21.158  0.00  0.00    +0.000 A 
ATOM     27  C   UNL     1      -2.663  13.482  21.036  0.00  0.00    +0.000 A 
ATOM     28  C   UNL     1      -2.159  12.676  22.053  0.00  0.00    +0.000 A 
ATOM     29  C   UNL     1      -2.973  12.288  23.123  0.00  0.00    +0.000 A 
ATOM     30  C   UNL     1      -4.263  12.814  23.232  0.00  0.00    +0.000 A 
BRANCH  25  32
ATOM     31  C   UNL     1      -5.987  15.669  21.771  0.00  0.00    +0.000 C 
ATOM     32  O   UNL     1      -5.945  14.354  22.311  0.00  0.00    +0.000 OA
ENDBRANCH  25  32
ENDBRANCH  22  28
ENDBRANCH   1  22
TORSDOF 5
ENDMDL
