MODEL 1
REMARK VINA RESULT:      -7.6      0.000      0.000
REMARK  Name = 
REMARK  7 active torsions:
REMARK  status: ('A' for Active; 'I' for Inactive)
REMARK    1  A    between atoms: C_1  and  C_2
REMARK    2  A    between atoms: C_2  and  C_3
REMARK    3  A    between atoms: C_6  and  C_7
REMARK    4  A    between atoms: C_12  and  O_13
REMARK    5  A    between atoms: C_14  and  O_15
REMARK    6  A    between atoms: C_16  and  O_17
REMARK    7  A    between atoms: C_18  and  C_19
REMARK                            x       y       z     vdW  Elec       q    Type
REMARK                         _______ _______ _______ _____ _____    ______ ____
ROOT
ATOM      1  C   UNL     1       1.188   5.257  20.827  0.00  0.00    +0.000 C 
ATOM      2  C   UNL     1       1.636   3.986  20.143  0.00  0.00    +0.000 C 
ATOM      3  C   UNL     1       1.279   2.715  20.871  0.00  0.00    +0.000 C 
ATOM      4  C   UNL     1       2.307   4.013  18.966  0.00  0.00    +0.000 C 
ATOM      5  C   UNL     1       2.653   5.272  18.222  0.00  0.00    +0.000 C 
ATOM      6  C   UNL     1       4.152   5.377  17.814  0.00  0.00    +0.000 C 
ATOM      7  C   UNL     1       5.010   5.541  19.091  0.00  0.00    +0.000 C 
ATOM      8  C   UNL     1       4.592   4.075  17.144  0.00  0.00    +0.000 C 
ATOM      9  C   UNL     1       3.910   2.923  17.326  0.00  0.00    +0.000 C 
ATOM     10  C   UNL     1       2.741   2.777  18.241  0.00  0.00    +0.000 C 
ATOM     11  O   UNL     1       2.191   1.689  18.358  0.00  0.00    +0.000 OA
ATOM     12  C   UNL     1       5.893   4.139  16.362  0.00  0.00    +0.000 C 
ATOM     13  C   UNL     1       5.958   5.316  15.368  0.00  0.00    +0.000 C 
ATOM     14  C   UNL     1       5.565   6.657  16.002  0.00  0.00    +0.000 C 
ATOM     15  C   UNL     1       4.262   6.588  16.817  0.00  0.00    +0.000 C 
ATOM     16  C   UNL     1       3.971   7.949  17.474  0.00  0.00    +0.000 C 
ENDROOT
BRANCH  12  17
ATOM     17  O   UNL     1       6.115   2.892  15.701  0.00  0.00    +0.000 OA
ATOM     18  H   UNL     1       6.173   3.058  14.745  0.00  0.00    +0.000 HD
ENDBRANCH  12  17
BRANCH  13  19
ATOM     19  O   UNL     1       7.280   5.427  14.819  0.00  0.00    +0.000 OA
ATOM     20  H   UNL     1       7.787   6.033  15.402  0.00  0.00    +0.000 HD
ENDBRANCH  13  19
BRANCH  14  21
ATOM     21  O   UNL     1       6.656   7.214  16.751  0.00  0.00    +0.000 OA
ATOM     22  H   UNL     1       7.481   7.097  16.258  0.00  0.00    +0.000 HD
ENDBRANCH  14  21
TORSDOF 3
ENDMDL
MODEL 2
REMARK VINA RESULT:      -7.0      2.023      5.570
REMARK  Name = 
REMARK  7 active torsions:
REMARK  status: ('A' for Active; 'I' for Inactive)
REMARK    1  A    between atoms: C_1  and  C_2
REMARK    2  A    between atoms: C_2  and  C_3
REMARK    3  A    between atoms: C_6  and  C_7
REMARK    4  A    between atoms: C_12  and  O_13
REMARK    5  A    between atoms: C_14  and  O_15
REMARK    6  A    between atoms: C_16  and  O_17
REMARK    7  A    between atoms: C_18  and  C_19
REMARK                            x       y       z     vdW  Elec       q    Type
REMARK                         _______ _______ _______ _____ _____    ______ ____
ROOT
ATOM      1  C   UNL     1       7.967   5.779  19.214  0.00  0.00    +0.000 C 
ATOM      2  C   UNL     1       7.001   6.189  18.127  0.00  0.00    +0.000 C 
ATOM      3  C   UNL     1       7.320   7.501  17.457  0.00  0.00    +0.000 C 
ATOM      4  C   UNL     1       5.934   5.420  17.800  0.00  0.00    +0.000 C 
ATOM      5  C   UNL     1       5.615   4.102  18.448  0.00  0.00    +0.000 C 
ATOM      6  C   UNL     1       4.147   3.984  18.956  0.00  0.00    +0.000 C 
ATOM      7  C   UNL     1       3.947   4.956  20.143  0.00  0.00    +0.000 C 
ATOM      8  C   UNL     1       3.186   4.423  17.850  0.00  0.00    +0.000 C 
ATOM      9  C   UNL     1       3.598   5.202  16.826  0.00  0.00    +0.000 C 
ATOM     10  C   UNL     1       4.971   5.775  16.709  0.00  0.00    +0.000 C 
ATOM     11  O   UNL     1       5.255   6.485  15.752  0.00  0.00    +0.000 OA
ATOM     12  C   UNL     1       1.732   4.024  18.040  0.00  0.00    +0.000 C 
ATOM     13  C   UNL     1       1.540   2.530  18.370  0.00  0.00    +0.000 C 
ATOM     14  C   UNL     1       2.455   2.047  19.504  0.00  0.00    +0.000 C 
ATOM     15  C   UNL     1       3.922   2.473  19.329  0.00  0.00    +0.000 C 
ATOM     16  C   UNL     1       4.759   2.010  20.534  0.00  0.00    +0.000 C 
ENDROOT
BRANCH  12  17
ATOM     17  O   UNL     1       0.981   4.398  16.884  0.00  0.00    +0.000 OA
ATOM     18  H   UNL     1       0.642   3.590  16.463  0.00  0.00    +0.000 HD
ENDBRANCH  12  17
BRANCH  13  19
ATOM     19  O   UNL     1       0.174   2.276  18.729  0.00  0.00    +0.000 OA
ATOM     20  H   UNL     1       0.086   1.308  18.872  0.00  0.00    +0.000 HD
ENDBRANCH  13  19
BRANCH  14  21
ATOM     21  O   UNL     1       1.923   2.411  20.787  0.00  0.00    +0.000 OA
ATOM     22  H   UNL     1       2.237   1.787  21.458  0.00  0.00    +0.000 HD
ENDBRANCH  14  21
TORSDOF 3
ENDMDL
MODEL 3
REMARK VINA RESULT:      -6.9      1.651      4.824
REMARK  Name = 
REMARK  7 active torsions:
REMARK  status: ('A' for Active; 'I' for Inactive)
REMARK    1  A    between atoms: C_1  and  C_2
REMARK    2  A    between atoms: C_2  and  C_3
REMARK    3  A    between atoms: C_6  and  C_7
REMARK    4  A    between atoms: C_12  and  O_13
REMARK    5  A    between atoms: C_14  and  O_15
REMARK    6  A    between atoms: C_16  and  O_17
REMARK    7  A    between atoms: C_18  and  C_19
REMARK                            x       y       z     vdW  Elec       q    Type
REMARK                         _______ _______ _______ _____ _____    ______ ____
ROOT
ATOM      1  C   UNL     1       0.942   8.582  19.320  0.00  0.00    +0.000 C 
ATOM      2  C   UNL     1       2.157   8.346  18.452  0.00  0.00    +0.000 C 
ATOM      3  C   UNL     1       2.490   9.473  17.508  0.00  0.00    +0.000 C 
ATOM      4  C   UNL     1       2.875   7.200  18.533  0.00  0.00    +0.000 C 
ATOM      5  C   UNL     1       2.564   6.077  19.482  0.00  0.00    +0.000 C 
ATOM      6  C   UNL     1       2.482   4.678  18.804  0.00  0.00    +0.000 C 
ATOM      7  C   UNL     1       1.240   4.639  17.881  0.00  0.00    +0.000 C 
ATOM      8  C   UNL     1       3.707   4.466  17.914  0.00  0.00    +0.000 C 
ATOM      9  C   UNL     1       4.442   5.509  17.468  0.00  0.00    +0.000 C 
ATOM     10  C   UNL     1       4.101   6.940  17.714  0.00  0.00    +0.000 C 
ATOM     11  O   UNL     1       4.817   7.824  17.258  0.00  0.00    +0.000 OA
ATOM     12  C   UNL     1       3.971   3.035  17.478  0.00  0.00    +0.000 C 
ATOM     13  C   UNL     1       3.960   2.024  18.643  0.00  0.00    +0.000 C 
ATOM     14  C   UNL     1       2.726   2.166  19.545  0.00  0.00    +0.000 C 
ATOM     15  C   UNL     1       2.440   3.618  19.965  0.00  0.00    +0.000 C 
ATOM     16  C   UNL     1       1.156   3.686  20.810  0.00  0.00    +0.000 C 
ENDROOT
BRANCH  12  17
ATOM     17  O   UNL     1       5.202   2.976  16.756  0.00  0.00    +0.000 OA
ATOM     18  H   UNL     1       5.265   3.764  16.192  0.00  0.00    +0.000 HD
ENDBRANCH  12  17
BRANCH  13  19
ATOM     19  O   UNL     1       4.016   0.683  18.133  0.00  0.00    +0.000 OA
ATOM     20  H   UNL     1       4.851   0.283  18.459  0.00  0.00    +0.000 HD
ENDBRANCH  13  19
BRANCH  14  21
ATOM     21  O   UNL     1       1.582   1.525  18.962  0.00  0.00    +0.000 OA
ATOM     22  H   UNL     1       1.021   2.187  18.533  0.00  0.00    +0.000 HD
ENDBRANCH  14  21
TORSDOF 3
ENDMDL
MODEL 4
REMARK VINA RESULT:      -6.6      2.069      5.476
REMARK  Name = 
REMARK  7 active torsions:
REMARK  status: ('A' for Active; 'I' for Inactive)
REMARK    1  A    between atoms: C_1  and  C_2
REMARK    2  A    between atoms: C_2  and  C_3
REMARK    3  A    between atoms: C_6  and  C_7
REMARK    4  A    between atoms: C_12  and  O_13
REMARK    5  A    between atoms: C_14  and  O_15
REMARK    6  A    between atoms: C_16  and  O_17
REMARK    7  A    between atoms: C_18  and  C_19
REMARK                            x       y       z     vdW  Elec       q    Type
REMARK                         _______ _______ _______ _____ _____    ______ ____
ROOT
ATOM      1  C   UNL     1       4.893   6.930  15.487  0.00  0.00    +0.000 C 
ATOM      2  C   UNL     1       5.717   5.875  16.188  0.00  0.00    +0.000 C 
ATOM      3  C   UNL     1       6.885   5.351  15.394  0.00  0.00    +0.000 C 
ATOM      4  C   UNL     1       5.406   5.446  17.436  0.00  0.00    +0.000 C 
ATOM      5  C   UNL     1       4.255   5.973  18.245  0.00  0.00    +0.000 C 
ATOM      6  C   UNL     1       3.330   4.865  18.830  0.00  0.00    +0.000 C 
ATOM      7  C   UNL     1       2.583   4.170  17.667  0.00  0.00    +0.000 C 
ATOM      8  C   UNL     1       4.182   3.796  19.516  0.00  0.00    +0.000 C 
ATOM      9  C   UNL     1       5.494   3.648  19.227  0.00  0.00    +0.000 C 
ATOM     10  C   UNL     1       6.214   4.426  18.178  0.00  0.00    +0.000 C 
ATOM     11  O   UNL     1       7.403   4.215  17.971  0.00  0.00    +0.000 OA
ATOM     12  C   UNL     1       3.439   2.853  20.447  0.00  0.00    +0.000 C 
ATOM     13  C   UNL     1       2.540   3.577  21.469  0.00  0.00    +0.000 C 
ATOM     14  C   UNL     1       1.633   4.634  20.825  0.00  0.00    +0.000 C 
ATOM     15  C   UNL     1       2.378   5.573  19.861  0.00  0.00    +0.000 C 
ATOM     16  C   UNL     1       1.392   6.558  19.208  0.00  0.00    +0.000 C 
ENDROOT
BRANCH  12  17
ATOM     17  O   UNL     1       4.373   1.992  21.099  0.00  0.00    +0.000 OA
ATOM     18  H   UNL     1       4.354   1.127  20.657  0.00  0.00    +0.000 HD
ENDBRANCH  12  17
BRANCH  13  19
ATOM     19  O   UNL     1       1.726   2.625  22.172  0.00  0.00    +0.000 OA
ATOM     20  H   UNL     1       1.080   2.265  21.527  0.00  0.00    +0.000 HD
ENDBRANCH  13  19
BRANCH  14  21
ATOM     21  O   UNL     1       0.479   4.027  20.224  0.00  0.00    +0.000 OA
ATOM     22  H   UNL     1      -0.236   4.678  20.163  0.00  0.00    +0.000 HD
ENDBRANCH  14  21
TORSDOF 3
ENDMDL
MODEL 5
REMARK VINA RESULT:      -6.5      1.800      2.104
REMARK  Name = 
REMARK  7 active torsions:
REMARK  status: ('A' for Active; 'I' for Inactive)
REMARK    1  A    between atoms: C_1  and  C_2
REMARK    2  A    between atoms: C_2  and  C_3
REMARK    3  A    between atoms: C_6  and  C_7
REMARK    4  A    between atoms: C_12  and  O_13
REMARK    5  A    between atoms: C_14  and  O_15
REMARK    6  A    between atoms: C_16  and  O_17
REMARK    7  A    between atoms: C_18  and  C_19
REMARK                            x       y       z     vdW  Elec       q    Type
REMARK                         _______ _______ _______ _____ _____    ______ ____
ROOT
ATOM      1  C   UNL     1       2.396   4.024  21.582  0.00  0.00    +0.000 C 
ATOM      2  C   UNL     1       1.888   3.896  20.164  0.00  0.00    +0.000 C 
ATOM      3  C   UNL     1       0.543   3.228  20.031  0.00  0.00    +0.000 C 
ATOM      4  C   UNL     1       2.606   4.352  19.109  0.00  0.00    +0.000 C 
ATOM      5  C   UNL     1       3.940   5.035  19.231  0.00  0.00    +0.000 C 
ATOM      6  C   UNL     1       5.045   4.436  18.312  0.00  0.00    +0.000 C 
ATOM      7  C   UNL     1       5.394   3.013  18.808  0.00  0.00    +0.000 C 
ATOM      8  C   UNL     1       4.506   4.294  16.888  0.00  0.00    +0.000 C 
ATOM      9  C   UNL     1       3.179   4.261  16.637  0.00  0.00    +0.000 C 
ATOM     10  C   UNL     1       2.126   4.272  17.694  0.00  0.00    +0.000 C 
ATOM     11  O   UNL     1       0.943   4.224  17.376  0.00  0.00    +0.000 OA
ATOM     12  C   UNL     1       5.548   4.081  15.803  0.00  0.00    +0.000 C 
ATOM     13  C   UNL     1       6.706   5.099  15.851  0.00  0.00    +0.000 C 
ATOM     14  C   UNL     1       7.311   5.249  17.253  0.00  0.00    +0.000 C 
ATOM     15  C   UNL     1       6.257   5.437  18.357  0.00  0.00    +0.000 C 
ATOM     16  C   UNL     1       6.936   5.514  19.735  0.00  0.00    +0.000 C 
ENDROOT
BRANCH  12  17
ATOM     17  O   UNL     1       4.912   4.082  14.524  0.00  0.00    +0.000 OA
ATOM     18  H   UNL     1       5.600   4.047  13.839  0.00  0.00    +0.000 HD
ENDBRANCH  12  17
BRANCH  13  19
ATOM     19  O   UNL     1       7.739   4.714  14.932  0.00  0.00    +0.000 OA
ATOM     20  H   UNL     1       8.429   4.245  15.450  0.00  0.00    +0.000 HD
ENDBRANCH  13  19
BRANCH  14  21
ATOM     21  O   UNL     1       8.225   4.179  17.539  0.00  0.00    +0.000 OA
ATOM     22  H   UNL     1       8.756   3.986  16.752  0.00  0.00    +0.000 HD
ENDBRANCH  14  21
TORSDOF 3
ENDMDL
MODEL 6
REMARK VINA RESULT:      -6.3      9.474     10.884
REMARK  Name = 
REMARK  7 active torsions:
REMARK  status: ('A' for Active; 'I' for Inactive)
REMARK    1  A    between atoms: C_1  and  C_2
REMARK    2  A    between atoms: C_2  and  C_3
REMARK    3  A    between atoms: C_6  and  C_7
REMARK    4  A    between atoms: C_12  and  O_13
REMARK    5  A    between atoms: C_14  and  O_15
REMARK    6  A    between atoms: C_16  and  O_17
REMARK    7  A    between atoms: C_18  and  C_19
REMARK                            x       y       z     vdW  Elec       q    Type
REMARK                         _______ _______ _______ _____ _____    ______ ____
ROOT
ATOM      1  C   UNL     1       8.468  11.502  23.506  0.00  0.00    +0.000 C 
ATOM      2  C   UNL     1       7.751  12.608  22.768  0.00  0.00    +0.000 C 
ATOM      3  C   UNL     1       6.325  12.839  23.202  0.00  0.00    +0.000 C 
ATOM      4  C   UNL     1       8.362  13.323  21.792  0.00  0.00    +0.000 C 
ATOM      5  C   UNL     1       9.787  13.114  21.363  0.00  0.00    +0.000 C 
ATOM      6  C   UNL     1       9.968  12.944  19.826  0.00  0.00    +0.000 C 
ATOM      7  C   UNL     1       9.327  11.606  19.389  0.00  0.00    +0.000 C 
ATOM      8  C   UNL     1       9.218  14.059  19.095  0.00  0.00    +0.000 C 
ATOM      9  C   UNL     1       8.220  14.746  19.694  0.00  0.00    +0.000 C 
ATOM     10  C   UNL     1       7.697  14.446  21.058  0.00  0.00    +0.000 C 
ATOM     11  O   UNL     1       6.777  15.111  21.518  0.00  0.00    +0.000 OA
ATOM     12  C   UNL     1       9.588  14.262  17.636  0.00  0.00    +0.000 C 
ATOM     13  C   UNL     1      11.107  14.375  17.395  0.00  0.00    +0.000 C 
ATOM     14  C   UNL     1      11.905  13.254  18.074  0.00  0.00    +0.000 C 
ATOM     15  C   UNL     1      11.513  13.028  19.544  0.00  0.00    +0.000 C 
ATOM     16  C   UNL     1      12.307  11.849  20.133  0.00  0.00    +0.000 C 
ENDROOT
BRANCH  12  17
ATOM     17  O   UNL     1       8.897  15.401  17.122  0.00  0.00    +0.000 OA
ATOM     18  H   UNL     1       8.390  15.126  16.340  0.00  0.00    +0.000 HD
ENDBRANCH  12  17
BRANCH  13  19
ATOM     19  O   UNL     1      11.386  14.363  15.987  0.00  0.00    +0.000 OA
ATOM     20  H   UNL     1      11.112  15.236  15.630  0.00  0.00    +0.000 HD
ENDBRANCH  13  19
BRANCH  14  21
ATOM     21  O   UNL     1      11.861  12.046  17.299  0.00  0.00    +0.000 OA
ATOM     22  H   UNL     1      12.055  11.287  17.869  0.00  0.00    +0.000 HD
ENDBRANCH  14  21
TORSDOF 3
ENDMDL
MODEL 7
REMARK VINA RESULT:      -6.2      2.057      2.726
REMARK  Name = 
REMARK  7 active torsions:
REMARK  status: ('A' for Active; 'I' for Inactive)
REMARK    1  A    between atoms: C_1  and  C_2
REMARK    2  A    between atoms: C_2  and  C_3
REMARK    3  A    between atoms: C_6  and  C_7
REMARK    4  A    between atoms: C_12  and  O_13
REMARK    5  A    between atoms: C_14  and  O_15
REMARK    6  A    between atoms: C_16  and  O_17
REMARK    7  A    between atoms: C_18  and  C_19
REMARK                            x       y       z     vdW  Elec       q    Type
REMARK                         _______ _______ _______ _____ _____    ______ ____
ROOT
ATOM      1  C   UNL     1       0.896   4.039  17.097  0.00  0.00    +0.000 C 
ATOM      2  C   UNL     1       1.709   3.520  18.261  0.00  0.00    +0.000 C 
ATOM      3  C   UNL     1       0.915   2.787  19.312  0.00  0.00    +0.000 C 
ATOM      4  C   UNL     1       3.048   3.714  18.333  0.00  0.00    +0.000 C 
ATOM      5  C   UNL     1       3.853   4.427  17.284  0.00  0.00    +0.000 C 
ATOM      6  C   UNL     1       4.773   5.552  17.845  0.00  0.00    +0.000 C 
ATOM      7  C   UNL     1       3.889   6.705  18.376  0.00  0.00    +0.000 C 
ATOM      8  C   UNL     1       5.570   5.015  19.035  0.00  0.00    +0.000 C 
ATOM      9  C   UNL     1       5.167   3.922  19.718  0.00  0.00    +0.000 C 
ATOM     10  C   UNL     1       3.893   3.191  19.452  0.00  0.00    +0.000 C 
ATOM     11  O   UNL     1       3.598   2.215  20.133  0.00  0.00    +0.000 OA
ATOM     12  C   UNL     1       6.767   5.848  19.460  0.00  0.00    +0.000 C 
ATOM     13  C   UNL     1       7.706   6.219  18.293  0.00  0.00    +0.000 C 
ATOM     14  C   UNL     1       6.958   6.803  17.087  0.00  0.00    +0.000 C 
ATOM     15  C   UNL     1       5.730   5.976  16.671  0.00  0.00    +0.000 C 
ATOM     16  C   UNL     1       4.999   6.658  15.502  0.00  0.00    +0.000 C 
ENDROOT
BRANCH  12  17
ATOM     17  O   UNL     1       7.477   5.170  20.497  0.00  0.00    +0.000 OA
ATOM     18  H   UNL     1       8.296   5.659  20.680  0.00  0.00    +0.000 HD
ENDBRANCH  12  17
BRANCH  13  19
ATOM     19  O   UNL     1       8.693   7.164  18.736  0.00  0.00    +0.000 OA
ATOM     20  H   UNL     1       9.394   6.656  19.198  0.00  0.00    +0.000 HD
ENDBRANCH  13  19
BRANCH  14  21
ATOM     21  O   UNL     1       6.647   8.189  17.293  0.00  0.00    +0.000 OA
ATOM     22  H   UNL     1       6.647   8.652  16.442  0.00  0.00    +0.000 HD
ENDBRANCH  14  21
TORSDOF 3
ENDMDL
MODEL 8
REMARK VINA RESULT:      -6.2      2.085      4.784
REMARK  Name = 
REMARK  7 active torsions:
REMARK  status: ('A' for Active; 'I' for Inactive)
REMARK    1  A    between atoms: C_1  and  C_2
REMARK    2  A    between atoms: C_2  and  C_3
REMARK    3  A    between atoms: C_6  and  C_7
REMARK    4  A    between atoms: C_12  and  O_13
REMARK    5  A    between atoms: C_14  and  O_15
REMARK    6  A    between atoms: C_16  and  O_17
REMARK    7  A    between atoms: C_18  and  C_19
REMARK                            x       y       z     vdW  Elec       q    Type
REMARK                         _______ _______ _______ _____ _____    ______ ____
ROOT
ATOM      1  C   UNL     1       0.586   8.123  21.321  0.00  0.00    +0.000 C 
ATOM      2  C   UNL     1       1.354   8.244  20.025  0.00  0.00    +0.000 C 
ATOM      3  C   UNL     1       1.083   9.505  19.244  0.00  0.00    +0.000 C 
ATOM      4  C   UNL     1       2.214   7.279  19.617  0.00  0.00    +0.000 C 
ATOM      5  C   UNL     1       2.506   6.028  20.396  0.00  0.00    +0.000 C 
ATOM      6  C   UNL     1       2.374   4.718  19.564  0.00  0.00    +0.000 C 
ATOM      7  C   UNL     1       0.886   4.501  19.200  0.00  0.00    +0.000 C 
ATOM      8  C   UNL     1       3.139   4.868  18.248  0.00  0.00    +0.000 C 
ATOM      9  C   UNL     1       3.448   6.084  17.747  0.00  0.00    +0.000 C 
ATOM     10  C   UNL     1       3.016   7.376  18.357  0.00  0.00    +0.000 C 
ATOM     11  O   UNL     1       3.329   8.435  17.826  0.00  0.00    +0.000 OA
ATOM     12  C   UNL     1       3.424   3.579  17.496  0.00  0.00    +0.000 C 
ATOM     13  C   UNL     1       4.055   2.479  18.375  0.00  0.00    +0.000 C 
ATOM     14  C   UNL     1       3.299   2.260  19.692  0.00  0.00    +0.000 C 
ATOM     15  C   UNL     1       2.985   3.565  20.442  0.00  0.00    +0.000 C 
ATOM     16  C   UNL     1       2.172   3.268  21.713  0.00  0.00    +0.000 C 
ENDROOT
BRANCH  12  17
ATOM     17  O   UNL     1       4.238   3.860  16.357  0.00  0.00    +0.000 OA
ATOM     18  H   UNL     1       3.744   4.452  15.765  0.00  0.00    +0.000 HD
ENDBRANCH  12  17
BRANCH  13  19
ATOM     19  O   UNL     1       4.108   1.240  17.651  0.00  0.00    +0.000 OA
ATOM     20  H   UNL     1       3.676   0.559  18.211  0.00  0.00    +0.000 HD
ENDBRANCH  13  19
BRANCH  14  21
ATOM     21  O   UNL     1       2.134   1.445  19.490  0.00  0.00    +0.000 OA
ATOM     22  H   UNL     1       1.727   1.242  20.345  0.00  0.00    +0.000 HD
ENDBRANCH  14  21
TORSDOF 3
ENDMDL
MODEL 9
REMARK VINA RESULT:      -6.1      1.934      5.575
REMARK  Name = 
REMARK  7 active torsions:
REMARK  status: ('A' for Active; 'I' for Inactive)
REMARK    1  A    between atoms: C_1  and  C_2
REMARK    2  A    between atoms: C_2  and  C_3
REMARK    3  A    between atoms: C_6  and  C_7
REMARK    4  A    between atoms: C_12  and  O_13
REMARK    5  A    between atoms: C_14  and  O_15
REMARK    6  A    between atoms: C_16  and  O_17
REMARK    7  A    between atoms: C_18  and  C_19
REMARK                            x       y       z     vdW  Elec       q    Type
REMARK                         _______ _______ _______ _____ _____    ______ ____
ROOT
ATOM      1  C   UNL     1       5.174   5.734  14.690  0.00  0.00    +0.000 C 
ATOM      2  C   UNL     1       6.065   5.152  15.763  0.00  0.00    +0.000 C 
ATOM      3  C   UNL     1       7.473   4.847  15.321  0.00  0.00    +0.000 C 
ATOM      4  C   UNL     1       5.608   4.928  17.019  0.00  0.00    +0.000 C 
ATOM      5  C   UNL     1       4.212   5.244  17.477  0.00  0.00    +0.000 C 
ATOM      6  C   UNL     1       3.495   4.060  18.191  0.00  0.00    +0.000 C 
ATOM      7  C   UNL     1       3.223   2.941  17.159  0.00  0.00    +0.000 C 
ATOM      8  C   UNL     1       4.420   3.470  19.258  0.00  0.00    +0.000 C 
ATOM      9  C   UNL     1       5.756   3.666  19.218  0.00  0.00    +0.000 C 
ATOM     10  C   UNL     1       6.466   4.381  18.118  0.00  0.00    +0.000 C 
ATOM     11  O   UNL     1       7.685   4.499  18.155  0.00  0.00    +0.000 OA
ATOM     12  C   UNL     1       3.756   2.569  20.285  0.00  0.00    +0.000 C 
ATOM     13  C   UNL     1       2.501   3.190  20.931  0.00  0.00    +0.000 C 
ATOM     14  C   UNL     1       1.518   3.761  19.900  0.00  0.00    +0.000 C 
ATOM     15  C   UNL     1       2.192   4.652  18.842  0.00  0.00    +0.000 C 
ATOM     16  C   UNL     1       1.156   5.130  17.810  0.00  0.00    +0.000 C 
ENDROOT
BRANCH  12  17
ATOM     17  O   UNL     1       4.712   2.190  21.276  0.00  0.00    +0.000 OA
ATOM     18  H   UNL     1       4.509   2.667  22.097  0.00  0.00    +0.000 HD
ENDBRANCH  12  17
BRANCH  13  19
ATOM     19  O   UNL     1       1.823   2.211  21.733  0.00  0.00    +0.000 OA
ATOM     20  H   UNL     1       2.130   2.331  22.658  0.00  0.00    +0.000 HD
ENDBRANCH  13  19
BRANCH  14  21
ATOM     21  O   UNL     1       0.718   2.721  19.317  0.00  0.00    +0.000 OA
ATOM     22  H   UNL     1      -0.213   2.862  19.545  0.00  0.00    +0.000 HD
ENDBRANCH  14  21
TORSDOF 3
ENDMDL
