MODEL 1
REMARK VINA RESULT:      -7.9      0.000      0.000
REMARK  Name = 
REMARK  5 active torsions:
REMARK  status: ('A' for Active; 'I' for Inactive)
REMARK    1  A    between atoms: C_1  and  C_2
REMARK    2  A    between atoms: C_6  and  C_7
REMARK    3  A    between atoms: C_7  and  C_9
REMARK    4  A    between atoms: C_16  and  C_17
REMARK    5  A    between atoms: C_17  and  O_19
REMARK                            x       y       z     vdW  Elec       q    Type
REMARK                         _______ _______ _______ _____ _____    ______ ____
ROOT
ATOM      1  C   UNL     1       5.637   5.358  16.648  0.00  0.00    +0.000 A 
ATOM      2  C   UNL     1       5.279   6.695  16.835  0.00  0.00    +0.000 A 
ATOM      3  C   UNL     1       4.010   6.753  17.476  0.00  0.00    +0.000 A 
ATOM      4  C   UNL     1       3.632   5.452  17.666  0.00  0.00    +0.000 A 
ATOM      5  N   UNL     1       4.579   4.644  17.113  0.00  0.00    +0.000 N 
ATOM      6  C   UNL     1       4.284   3.228  17.239  0.00  0.00    +0.000 C 
ATOM      7  C   UNL     1       3.089   3.212  18.212  0.00  0.00    +0.000 C 
ATOM      8  C   UNL     1       2.526   4.656  18.261  0.00  0.00    +0.000 C 
ENDROOT
BRANCH   1   9
ATOM      9  C   UNL     1       6.837   4.781  16.066  0.00  0.00    +0.000 C 
ATOM     10  O   UNL     1       7.800   4.433  16.745  0.00  0.00    +0.000 OA
BRANCH   9  16
ATOM     11  C   UNL     1       5.313   2.578  11.822  0.00  0.00    +0.000 C 
ATOM     12  C   UNL     1       6.178   3.590  12.513  0.00  0.00    +0.000 A 
ATOM     13  C   UNL     1       7.080   4.389  11.802  0.00  0.00    +0.000 A 
ATOM     14  C   UNL     1       7.884   5.315  12.471  0.00  0.00    +0.000 A 
ATOM     15  C   UNL     1       7.806   5.443  13.859  0.00  0.00    +0.000 A 
ATOM     16  C   UNL     1       6.920   4.639  14.583  0.00  0.00    +0.000 A 
ATOM     17  C   UNL     1       6.094   3.732  13.902  0.00  0.00    +0.000 A 
ENDBRANCH   9  16
ENDBRANCH   1   9
BRANCH   8  18
ATOM     18  C   UNL     1       2.187   5.048  19.690  0.00  0.00    +0.000 C 
ATOM     19  O   UNL     1       1.125   4.745  20.222  0.00  0.00    +0.000 OA
BRANCH  18  20
ATOM     20  O   UNL     1       3.164   5.682  20.381  0.00  0.00    +0.000 OA
ATOM     21  H   UNL     1       3.065   6.653  20.401  0.00  0.00    +0.000 HD
ENDBRANCH  18  20
ENDBRANCH   8  18
TORSDOF 4
ENDMDL
MODEL 2
REMARK VINA RESULT:      -7.9      2.264      3.819
REMARK  Name = 
REMARK  5 active torsions:
REMARK  status: ('A' for Active; 'I' for Inactive)
REMARK    1  A    between atoms: C_1  and  C_2
REMARK    2  A    between atoms: C_6  and  C_7
REMARK    3  A    between atoms: C_7  and  C_9
REMARK    4  A    between atoms: C_16  and  C_17
REMARK    5  A    between atoms: C_17  and  O_19
REMARK                            x       y       z     vdW  Elec       q    Type
REMARK                         _______ _______ _______ _____ _____    ______ ____
ROOT
ATOM      1  C   UNL     1       2.888   6.141  18.841  0.00  0.00    +0.000 A 
ATOM      2  C   UNL     1       2.376   6.796  19.963  0.00  0.00    +0.000 A 
ATOM      3  C   UNL     1       1.666   5.861  20.767  0.00  0.00    +0.000 A 
ATOM      4  C   UNL     1       1.769   4.662  20.116  0.00  0.00    +0.000 A 
ATOM      5  N   UNL     1       2.442   4.862  18.949  0.00  0.00    +0.000 N 
ATOM      6  C   UNL     1       2.606   3.656  18.157  0.00  0.00    +0.000 C 
ATOM      7  C   UNL     1       2.150   2.546  19.123  0.00  0.00    +0.000 C 
ATOM      8  C   UNL     1       1.371   3.239  20.272  0.00  0.00    +0.000 C 
ENDROOT
BRANCH   1   9
ATOM      9  C   UNL     1       3.697   6.648  17.746  0.00  0.00    +0.000 C 
ATOM     10  O   UNL     1       3.378   7.636  17.090  0.00  0.00    +0.000 OA
BRANCH   9  16
ATOM     11  C   UNL     1       6.514   4.321  14.305  0.00  0.00    +0.000 C 
ATOM     12  C   UNL     1       6.333   4.803  15.713  0.00  0.00    +0.000 A 
ATOM     13  C   UNL     1       7.297   4.566  16.698  0.00  0.00    +0.000 A 
ATOM     14  C   UNL     1       7.098   5.014  18.006  0.00  0.00    +0.000 A 
ATOM     15  C   UNL     1       5.927   5.691  18.349  0.00  0.00    +0.000 A 
ATOM     16  C   UNL     1       4.946   5.920  17.377  0.00  0.00    +0.000 A 
ATOM     17  C   UNL     1       5.167   5.494  16.058  0.00  0.00    +0.000 A 
ENDBRANCH   9  16
ENDBRANCH   1   9
BRANCH   8  18
ATOM     18  C   UNL     1       1.755   2.636  21.614  0.00  0.00    +0.000 C 
ATOM     19  O   UNL     1       2.921   2.453  21.944  0.00  0.00    +0.000 OA
BRANCH  18  20
ATOM     20  O   UNL     1       0.735   2.388  22.469  0.00  0.00    +0.000 OA
ATOM     21  H   UNL     1       0.723   2.975  23.248  0.00  0.00    +0.000 HD
ENDBRANCH  18  20
ENDBRANCH   8  18
TORSDOF 4
ENDMDL
MODEL 3
REMARK VINA RESULT:      -7.7      2.180      6.546
REMARK  Name = 
REMARK  5 active torsions:
REMARK  status: ('A' for Active; 'I' for Inactive)
REMARK    1  A    between atoms: C_1  and  C_2
REMARK    2  A    between atoms: C_6  and  C_7
REMARK    3  A    between atoms: C_7  and  C_9
REMARK    4  A    between atoms: C_16  and  C_17
REMARK    5  A    between atoms: C_17  and  O_19
REMARK                            x       y       z     vdW  Elec       q    Type
REMARK                         _______ _______ _______ _____ _____    ______ ____
ROOT
ATOM      1  C   UNL     1       3.729   6.520  18.059  0.00  0.00    +0.000 A 
ATOM      2  C   UNL     1       3.646   7.340  16.931  0.00  0.00    +0.000 A 
ATOM      3  C   UNL     1       4.828   7.184  16.154  0.00  0.00    +0.000 A 
ATOM      4  C   UNL     1       5.595   6.272  16.826  0.00  0.00    +0.000 A 
ATOM      5  N   UNL     1       4.954   5.939  17.981  0.00  0.00    +0.000 N 
ATOM      6  C   UNL     1       5.679   4.979  18.794  0.00  0.00    +0.000 C 
ATOM      7  C   UNL     1       6.810   4.520  17.855  0.00  0.00    +0.000 C 
ATOM      8  C   UNL     1       6.890   5.554  16.702  0.00  0.00    +0.000 C 
ENDROOT
BRANCH   1   9
ATOM      9  C   UNL     1       2.775   6.306  19.135  0.00  0.00    +0.000 C 
ATOM     10  O   UNL     1       2.474   7.187  19.937  0.00  0.00    +0.000 OA
BRANCH   9  16
ATOM     11  C   UNL     1       1.388   2.489  22.083  0.00  0.00    +0.000 C 
ATOM     12  C   UNL     1       1.468   3.102  20.716  0.00  0.00    +0.000 A 
ATOM     13  C   UNL     1       1.005   2.426  19.582  0.00  0.00    +0.000 A 
ATOM     14  C   UNL     1       1.104   3.013  18.319  0.00  0.00    +0.000 A 
ATOM     15  C   UNL     1       1.680   4.276  18.171  0.00  0.00    +0.000 A 
ATOM     16  C   UNL     1       2.163   4.955  19.295  0.00  0.00    +0.000 A 
ATOM     17  C   UNL     1       2.033   4.372  20.565  0.00  0.00    +0.000 A 
ENDBRANCH   9  16
ENDBRANCH   1   9
BRANCH   8  18
ATOM     18  C   UNL     1       7.079   4.851  15.367  0.00  0.00    +0.000 C 
ATOM     19  O   UNL     1       6.493   3.814  15.081  0.00  0.00    +0.000 OA
BRANCH  18  20
ATOM     20  O   UNL     1       7.871   5.482  14.469  0.00  0.00    +0.000 OA
ATOM     21  H   UNL     1       7.978   6.437  14.642  0.00  0.00    +0.000 HD
ENDBRANCH  18  20
ENDBRANCH   8  18
TORSDOF 4
ENDMDL
MODEL 4
REMARK VINA RESULT:      -7.6      2.407      6.531
REMARK  Name = 
REMARK  5 active torsions:
REMARK  status: ('A' for Active; 'I' for Inactive)
REMARK    1  A    between atoms: C_1  and  C_2
REMARK    2  A    between atoms: C_6  and  C_7
REMARK    3  A    between atoms: C_7  and  C_9
REMARK    4  A    between atoms: C_16  and  C_17
REMARK    5  A    between atoms: C_17  and  O_19
REMARK                            x       y       z     vdW  Elec       q    Type
REMARK                         _______ _______ _______ _____ _____    ______ ____
ROOT
ATOM      1  C   UNL     1       3.566   6.637  18.387  0.00  0.00    +0.000 A 
ATOM      2  C   UNL     1       3.459   7.345  17.188  0.00  0.00    +0.000 A 
ATOM      3  C   UNL     1       4.633   7.132  16.414  0.00  0.00    +0.000 A 
ATOM      4  C   UNL     1       5.421   6.298  17.159  0.00  0.00    +0.000 A 
ATOM      5  N   UNL     1       4.799   6.067  18.348  0.00  0.00    +0.000 N 
ATOM      6  C   UNL     1       5.546   5.198  19.239  0.00  0.00    +0.000 C 
ATOM      7  C   UNL     1       6.674   4.667  18.333  0.00  0.00    +0.000 C 
ATOM      8  C   UNL     1       6.725   5.589  17.087  0.00  0.00    +0.000 C 
ENDROOT
BRANCH   1   9
ATOM      9  C   UNL     1       2.628   6.513  19.491  0.00  0.00    +0.000 C 
ATOM     10  O   UNL     1       2.178   7.487  20.089  0.00  0.00    +0.000 OA
BRANCH   9  16
ATOM     11  C   UNL     1       0.611   2.028  18.484  0.00  0.00    +0.000 C 
ATOM     12  C   UNL     1       1.262   2.962  19.462  0.00  0.00    +0.000 A 
ATOM     13  C   UNL     1       1.477   2.593  20.794  0.00  0.00    +0.000 A 
ATOM     14  C   UNL     1       2.072   3.485  21.688  0.00  0.00    +0.000 A 
ATOM     15  C   UNL     1       2.447   4.761  21.265  0.00  0.00    +0.000 A 
ATOM     16  C   UNL     1       2.223   5.149  19.940  0.00  0.00    +0.000 A 
ATOM     17  C   UNL     1       1.652   4.237  19.040  0.00  0.00    +0.000 A 
ENDBRANCH   9  16
ENDBRANCH   1   9
BRANCH   8  18
ATOM     18  C   UNL     1       6.908   4.765  15.822  0.00  0.00    +0.000 C 
ATOM     19  O   UNL     1       7.539   5.174  14.855  0.00  0.00    +0.000 OA
BRANCH  18  20
ATOM     20  O   UNL     1       6.405   3.508  15.853  0.00  0.00    +0.000 OA
ATOM     21  H   UNL     1       5.455   3.459  15.636  0.00  0.00    +0.000 HD
ENDBRANCH  18  20
ENDBRANCH   8  18
TORSDOF 4
ENDMDL
MODEL 5
REMARK VINA RESULT:      -7.5      2.992      4.338
REMARK  Name = 
REMARK  5 active torsions:
REMARK  status: ('A' for Active; 'I' for Inactive)
REMARK    1  A    between atoms: C_1  and  C_2
REMARK    2  A    between atoms: C_6  and  C_7
REMARK    3  A    between atoms: C_7  and  C_9
REMARK    4  A    between atoms: C_16  and  C_17
REMARK    5  A    between atoms: C_17  and  O_19
REMARK                            x       y       z     vdW  Elec       q    Type
REMARK                         _______ _______ _______ _____ _____    ______ ____
ROOT
ATOM      1  C   UNL     1       3.937   5.252  17.314  0.00  0.00    +0.000 A 
ATOM      2  C   UNL     1       2.896   6.094  17.710  0.00  0.00    +0.000 A 
ATOM      3  C   UNL     1       1.897   5.323  18.367  0.00  0.00    +0.000 A 
ATOM      4  C   UNL     1       2.359   4.035  18.358  0.00  0.00    +0.000 A 
ATOM      5  N   UNL     1       3.537   4.006  17.676  0.00  0.00    +0.000 N 
ATOM      6  C   UNL     1       4.126   2.681  17.585  0.00  0.00    +0.000 C 
ATOM      7  C   UNL     1       3.263   1.855  18.558  0.00  0.00    +0.000 C 
ATOM      8  C   UNL     1       1.979   2.680  18.836  0.00  0.00    +0.000 C 
ENDROOT
BRANCH   1   9
ATOM      9  C   UNL     1       5.185   5.559  16.635  0.00  0.00    +0.000 C 
ATOM     10  O   UNL     1       5.350   5.366  15.433  0.00  0.00    +0.000 OA
BRANCH   9  16
ATOM     11  C   UNL     1       8.292   9.333  17.776  0.00  0.00    +0.000 C 
ATOM     12  C   UNL     1       7.829   7.925  18.011  0.00  0.00    +0.000 A 
ATOM     13  C   UNL     1       8.456   7.094  18.945  0.00  0.00    +0.000 A 
ATOM     14  C   UNL     1       8.015   5.783  19.136  0.00  0.00    +0.000 A 
ATOM     15  C   UNL     1       6.950   5.282  18.384  0.00  0.00    +0.000 A 
ATOM     16  C   UNL     1       6.325   6.097  17.434  0.00  0.00    +0.000 A 
ATOM     17  C   UNL     1       6.755   7.423  17.270  0.00  0.00    +0.000 A 
ENDBRANCH   9  16
ENDBRANCH   1   9
BRANCH   8  18
ATOM     18  C   UNL     1       1.621   2.627  20.313  0.00  0.00    +0.000 C 
ATOM     19  O   UNL     1       2.431   2.312  21.176  0.00  0.00    +0.000 OA
BRANCH  18  20
ATOM     20  O   UNL     1       0.370   3.031  20.637  0.00  0.00    +0.000 OA
ATOM     21  H   UNL     1      -0.288   2.876  19.933  0.00  0.00    +0.000 HD
ENDBRANCH  18  20
ENDBRANCH   8  18
TORSDOF 4
ENDMDL
MODEL 6
REMARK VINA RESULT:      -7.5      2.854      4.362
REMARK  Name = 
REMARK  5 active torsions:
REMARK  status: ('A' for Active; 'I' for Inactive)
REMARK    1  A    between atoms: C_1  and  C_2
REMARK    2  A    between atoms: C_6  and  C_7
REMARK    3  A    between atoms: C_7  and  C_9
REMARK    4  A    between atoms: C_16  and  C_17
REMARK    5  A    between atoms: C_17  and  O_19
REMARK                            x       y       z     vdW  Elec       q    Type
REMARK                         _______ _______ _______ _____ _____    ______ ____
ROOT
ATOM      1  C   UNL     1       2.679   6.370  18.889  0.00  0.00    +0.000 A 
ATOM      2  C   UNL     1       2.197   6.959  20.059  0.00  0.00    +0.000 A 
ATOM      3  C   UNL     1       1.553   5.967  20.851  0.00  0.00    +0.000 A 
ATOM      4  C   UNL     1       1.665   4.801  20.144  0.00  0.00    +0.000 A 
ATOM      5  N   UNL     1       2.279   5.073  18.959  0.00  0.00    +0.000 N 
ATOM      6  C   UNL     1       2.447   3.909  18.108  0.00  0.00    +0.000 C 
ATOM      7  C   UNL     1       2.070   2.744  19.042  0.00  0.00    +0.000 C 
ATOM      8  C   UNL     1       1.321   3.359  20.253  0.00  0.00    +0.000 C 
ENDROOT
BRANCH   1   9
ATOM      9  C   UNL     1       3.422   6.951  17.783  0.00  0.00    +0.000 C 
ATOM     10  O   UNL     1       2.988   7.883  17.111  0.00  0.00    +0.000 OA
BRANCH   9  16
ATOM     11  C   UNL     1       8.062   5.572  19.113  0.00  0.00    +0.000 C 
ATOM     12  C   UNL     1       6.998   5.681  18.060  0.00  0.00    +0.000 A 
ATOM     13  C   UNL     1       7.229   5.273  16.742  0.00  0.00    +0.000 A 
ATOM     14  C   UNL     1       6.227   5.397  15.777  0.00  0.00    +0.000 A 
ATOM     15  C   UNL     1       4.987   5.943  16.114  0.00  0.00    +0.000 A 
ATOM     16  C   UNL     1       4.749   6.371  17.425  0.00  0.00    +0.000 A 
ATOM     17  C   UNL     1       5.750   6.215  18.396  0.00  0.00    +0.000 A 
ENDBRANCH   9  16
ENDBRANCH   1   9
BRANCH   8  18
ATOM     18  C   UNL     1       1.784   2.712  21.550  0.00  0.00    +0.000 C 
ATOM     19  O   UNL     1       2.967   2.536  21.811  0.00  0.00    +0.000 OA
BRANCH  18  20
ATOM     20  O   UNL     1       0.813   2.416  22.446  0.00  0.00    +0.000 OA
ATOM     21  H   UNL     1       1.022   2.693  23.358  0.00  0.00    +0.000 HD
ENDBRANCH  18  20
ENDBRANCH   8  18
TORSDOF 4
ENDMDL
MODEL 7
REMARK VINA RESULT:      -7.3      4.961      6.974
REMARK  Name = 
REMARK  5 active torsions:
REMARK  status: ('A' for Active; 'I' for Inactive)
REMARK    1  A    between atoms: C_1  and  C_2
REMARK    2  A    between atoms: C_6  and  C_7
REMARK    3  A    between atoms: C_7  and  C_9
REMARK    4  A    between atoms: C_16  and  C_17
REMARK    5  A    between atoms: C_17  and  O_19
REMARK                            x       y       z     vdW  Elec       q    Type
REMARK                         _______ _______ _______ _____ _____    ______ ____
ROOT
ATOM      1  C   UNL     1       2.435   7.611  18.812  0.00  0.00    +0.000 A 
ATOM      2  C   UNL     1       2.324   8.375  17.649  0.00  0.00    +0.000 A 
ATOM      3  C   UNL     1       1.521   9.518  17.915  0.00  0.00    +0.000 A 
ATOM      4  C   UNL     1       1.168   9.423  19.233  0.00  0.00    +0.000 A 
ATOM      5  N   UNL     1       1.667   8.256  19.728  0.00  0.00    +0.000 N 
ATOM      6  C   UNL     1       1.347   8.032  21.127  0.00  0.00    +0.000 C 
ATOM      7  C   UNL     1       0.760   9.387  21.566  0.00  0.00    +0.000 C 
ATOM      8  C   UNL     1       0.413  10.170  20.273  0.00  0.00    +0.000 C 
ENDROOT
BRANCH   1   9
ATOM      9  C   UNL     1       3.161   6.377  19.059  0.00  0.00    +0.000 C 
ATOM     10  O   UNL     1       4.385   6.338  19.157  0.00  0.00    +0.000 OA
BRANCH   9  16
ATOM     11  C   UNL     1       1.312   2.632  21.844  0.00  0.00    +0.000 C 
ATOM     12  C   UNL     1       1.478   3.285  20.503  0.00  0.00    +0.000 A 
ATOM     13  C   UNL     1       0.952   2.712  19.340  0.00  0.00    +0.000 A 
ATOM     14  C   UNL     1       1.131   3.332  18.102  0.00  0.00    +0.000 A 
ATOM     15  C   UNL     1       1.851   4.525  18.009  0.00  0.00    +0.000 A 
ATOM     16  C   UNL     1       2.396   5.100  19.161  0.00  0.00    +0.000 A 
ATOM     17  C   UNL     1       2.186   4.487  20.406  0.00  0.00    +0.000 A 
ENDBRANCH   9  16
ENDBRANCH   1   9
BRANCH   8  18
ATOM     18  C   UNL     1       0.826  11.627  20.406  0.00  0.00    +0.000 C 
ATOM     19  O   UNL     1       1.267  12.094  21.449  0.00  0.00    +0.000 OA
BRANCH  18  20
ATOM     20  O   UNL     1       0.761  12.369  19.275  0.00  0.00    +0.000 OA
ATOM     21  H   UNL     1       0.289  11.930  18.542  0.00  0.00    +0.000 HD
ENDBRANCH  18  20
ENDBRANCH   8  18
TORSDOF 4
ENDMDL
MODEL 8
REMARK VINA RESULT:      -7.2      3.076      4.295
REMARK  Name = 
REMARK  5 active torsions:
REMARK  status: ('A' for Active; 'I' for Inactive)
REMARK    1  A    between atoms: C_1  and  C_2
REMARK    2  A    between atoms: C_6  and  C_7
REMARK    3  A    between atoms: C_7  and  C_9
REMARK    4  A    between atoms: C_16  and  C_17
REMARK    5  A    between atoms: C_17  and  O_19
REMARK                            x       y       z     vdW  Elec       q    Type
REMARK                         _______ _______ _______ _____ _____    ______ ____
ROOT
ATOM      1  C   UNL     1       3.735   4.971  17.558  0.00  0.00    +0.000 A 
ATOM      2  C   UNL     1       2.638   5.746  17.942  0.00  0.00    +0.000 A 
ATOM      3  C   UNL     1       1.784   4.968  18.772  0.00  0.00    +0.000 A 
ATOM      4  C   UNL     1       2.384   3.743  18.876  0.00  0.00    +0.000 A 
ATOM      5  N   UNL     1       3.504   3.746  18.100  0.00  0.00    +0.000 N 
ATOM      6  C   UNL     1       4.229   2.488  18.117  0.00  0.00    +0.000 C 
ATOM      7  C   UNL     1       3.539   1.710  19.254  0.00  0.00    +0.000 C 
ATOM      8  C   UNL     1       2.195   2.429  19.544  0.00  0.00    +0.000 C 
ENDROOT
BRANCH   1   9
ATOM      9  C   UNL     1       4.886   5.313  16.740  0.00  0.00    +0.000 C 
ATOM     10  O   UNL     1       4.950   5.047  15.543  0.00  0.00    +0.000 OA
BRANCH   9  16
ATOM     11  C   UNL     1       8.462   5.364  20.262  0.00  0.00    +0.000 C 
ATOM     12  C   UNL     1       7.805   6.012  19.079  0.00  0.00    +0.000 A 
ATOM     13  C   UNL     1       8.245   7.242  18.580  0.00  0.00    +0.000 A 
ATOM     14  C   UNL     1       7.608   7.831  17.485  0.00  0.00    +0.000 A 
ATOM     15  C   UNL     1       6.514   7.204  16.885  0.00  0.00    +0.000 A 
ATOM     16  C   UNL     1       6.053   5.982  17.386  0.00  0.00    +0.000 A 
ATOM     17  C   UNL     1       6.717   5.382  18.466  0.00  0.00    +0.000 A 
ENDBRANCH   9  16
ENDBRANCH   1   9
BRANCH   8  18
ATOM     18  C   UNL     1       1.958   2.529  21.043  0.00  0.00    +0.000 C 
ATOM     19  O   UNL     1       2.865   2.442  21.861  0.00  0.00    +0.000 OA
BRANCH  18  20
ATOM     20  O   UNL     1       0.689   2.808  21.426  0.00  0.00    +0.000 OA
ATOM     21  H   UNL     1       0.576   3.709  21.784  0.00  0.00    +0.000 HD
ENDBRANCH  18  20
ENDBRANCH   8  18
TORSDOF 4
ENDMDL
MODEL 9
REMARK VINA RESULT:      -7.2      1.051      2.040
REMARK  Name = 
REMARK  5 active torsions:
REMARK  status: ('A' for Active; 'I' for Inactive)
REMARK    1  A    between atoms: C_1  and  C_2
REMARK    2  A    between atoms: C_6  and  C_7
REMARK    3  A    between atoms: C_7  and  C_9
REMARK    4  A    between atoms: C_16  and  C_17
REMARK    5  A    between atoms: C_17  and  O_19
REMARK                            x       y       z     vdW  Elec       q    Type
REMARK                         _______ _______ _______ _____ _____    ______ ____
ROOT
ATOM      1  C   UNL     1       4.755   4.900  17.206  0.00  0.00    +0.000 A 
ATOM      2  C   UNL     1       4.142   6.145  17.365  0.00  0.00    +0.000 A 
ATOM      3  C   UNL     1       2.833   5.956  17.890  0.00  0.00    +0.000 A 
ATOM      4  C   UNL     1       2.687   4.604  18.041  0.00  0.00    +0.000 A 
ATOM      5  N   UNL     1       3.811   3.995  17.573  0.00  0.00    +0.000 N 
ATOM      6  C   UNL     1       3.772   2.547  17.668  0.00  0.00    +0.000 C 
ATOM      7  C   UNL     1       2.521   2.293  18.530  0.00  0.00    +0.000 C 
ATOM      8  C   UNL     1       1.699   3.608  18.533  0.00  0.00    +0.000 C 
ENDROOT
BRANCH   1   9
ATOM      9  C   UNL     1       6.088   4.565  16.732  0.00  0.00    +0.000 C 
ATOM     10  O   UNL     1       7.039   4.401  17.492  0.00  0.00    +0.000 OA
BRANCH   9  16
ATOM     11  C   UNL     1       8.604   5.939  12.612  0.00  0.00    +0.000 C 
ATOM     12  C   UNL     1       7.545   5.094  13.257  0.00  0.00    +0.000 A 
ATOM     13  C   UNL     1       6.752   4.216  12.510  0.00  0.00    +0.000 A 
ATOM     14  C   UNL     1       5.764   3.450  13.132  0.00  0.00    +0.000 A 
ATOM     15  C   UNL     1       5.546   3.563  14.507  0.00  0.00    +0.000 A 
ATOM     16  C   UNL     1       6.320   4.449  15.263  0.00  0.00    +0.000 A 
ATOM     17  C   UNL     1       7.332   5.193  14.636  0.00  0.00    +0.000 A 
ENDBRANCH   9  16
ENDBRANCH   1   9
BRANCH   8  18
ATOM     18  C   UNL     1       1.170   3.903  19.928  0.00  0.00    +0.000 C 
ATOM     19  O   UNL     1       1.439   4.935  20.529  0.00  0.00    +0.000 OA
BRANCH  18  20
ATOM     20  O   UNL     1       0.307   2.994  20.440  0.00  0.00    +0.000 OA
ATOM     21  H   UNL     1       0.281   2.153  19.945  0.00  0.00    +0.000 HD
ENDBRANCH  18  20
ENDBRANCH   8  18
TORSDOF 4
ENDMDL
