MODEL 1
REMARK VINA RESULT:      -5.8      0.000      0.000
REMARK  Name = 
REMARK  6 active torsions:
REMARK  status: ('A' for Active; 'I' for Inactive)
REMARK    1  A    between atoms: C_1  and  C_2
REMARK    2  A    between atoms: C_5  and  O_6
REMARK    3  A    between atoms: C_8  and  N_9
REMARK    4  A    between atoms: N_9  and  C_10
REMARK    5  A    between atoms: N_9  and  C_11
REMARK    6  A    between atoms: N_9  and  C_12
REMARK                            x       y       z     vdW  Elec       q    Type
REMARK                         _______ _______ _______ _____ _____    ______ ____
ROOT
ATOM      1  C   UNL     1       5.115   6.629  15.930  0.00  0.00    +0.000 C 
ATOM      2  C   UNL     1       5.806   6.274  17.220  0.00  0.00    +0.000 A 
ATOM      3  C   UNL     1       7.092   6.850  17.374  0.00  0.00    +0.000 A 
ATOM      4  C   UNL     1       7.888   6.590  18.487  0.00  0.00    +0.000 A 
ATOM      5  C   UNL     1       7.403   5.739  19.456  0.00  0.00    +0.000 A 
ATOM      6  C   UNL     1       6.137   5.169  19.342  0.00  0.00    +0.000 A 
ATOM      7  C   UNL     1       5.286   5.454  18.253  0.00  0.00    +0.000 A 
ENDROOT
BRANCH   7   8
ATOM      8  N   UNL     1       3.888   4.800  18.234  0.00  0.00    +0.000 NA
ATOM      9  C   UNL     1       3.605   4.067  19.556  0.00  0.00    +0.000 C 
ATOM     10  C   UNL     1       2.773   5.830  18.094  0.00  0.00    +0.000 C 
ATOM     11  C   UNL     1       3.856   3.793  17.094  0.00  0.00    +0.000 C 
ENDBRANCH   7   8
BRANCH   5  12
ATOM     12  O   UNL     1       8.134   5.415  20.559  0.00  0.00    +0.000 OA
ATOM     13  H   UNL     1       8.595   4.571  20.411  0.00  0.00    +0.000 HD
ENDBRANCH   5  12
TORSDOF 2
ENDMDL
MODEL 2
REMARK VINA RESULT:      -5.8      0.071      1.228
REMARK  Name = 
REMARK  6 active torsions:
REMARK  status: ('A' for Active; 'I' for Inactive)
REMARK    1  A    between atoms: C_1  and  C_2
REMARK    2  A    between atoms: C_5  and  O_6
REMARK    3  A    between atoms: C_8  and  N_9
REMARK    4  A    between atoms: N_9  and  C_10
REMARK    5  A    between atoms: N_9  and  C_11
REMARK    6  A    between atoms: N_9  and  C_12
REMARK                            x       y       z     vdW  Elec       q    Type
REMARK                         _______ _______ _______ _____ _____    ______ ____
ROOT
ATOM      1  C   UNL     1       5.113   6.537  15.897  0.00  0.00    +0.000 C 
ATOM      2  C   UNL     1       5.798   6.214  17.197  0.00  0.00    +0.000 A 
ATOM      3  C   UNL     1       7.079   6.803  17.348  0.00  0.00    +0.000 A 
ATOM      4  C   UNL     1       7.870   6.572  18.471  0.00  0.00    +0.000 A 
ATOM      5  C   UNL     1       7.386   5.737  19.454  0.00  0.00    +0.000 A 
ATOM      6  C   UNL     1       6.125   5.155  19.344  0.00  0.00    +0.000 A 
ATOM      7  C   UNL     1       5.278   5.411  18.244  0.00  0.00    +0.000 A 
ENDROOT
BRANCH   7   8
ATOM      8  N   UNL     1       3.886   4.746  18.229  0.00  0.00    +0.000 NA
ATOM      9  C   UNL     1       2.774   5.800  18.079  0.00  0.00    +0.000 C 
ATOM     10  C   UNL     1       3.711   3.802  17.045  0.00  0.00    +0.000 C 
ATOM     11  C   UNL     1       3.698   4.017  19.550  0.00  0.00    +0.000 C 
ENDBRANCH   7   8
BRANCH   5  12
ATOM     12  O   UNL     1       8.112   5.442  20.568  0.00  0.00    +0.000 OA
ATOM     13  H   UNL     1       8.717   4.704  20.378  0.00  0.00    +0.000 HD
ENDBRANCH   5  12
TORSDOF 2
ENDMDL
MODEL 3
REMARK VINA RESULT:      -5.8      0.069      1.260
REMARK  Name = 
REMARK  6 active torsions:
REMARK  status: ('A' for Active; 'I' for Inactive)
REMARK    1  A    between atoms: C_1  and  C_2
REMARK    2  A    between atoms: C_5  and  O_6
REMARK    3  A    between atoms: C_8  and  N_9
REMARK    4  A    between atoms: N_9  and  C_10
REMARK    5  A    between atoms: N_9  and  C_11
REMARK    6  A    between atoms: N_9  and  C_12
REMARK                            x       y       z     vdW  Elec       q    Type
REMARK                         _______ _______ _______ _____ _____    ______ ____
ROOT
ATOM      1  C   UNL     1       5.074   6.600  15.936  0.00  0.00    +0.000 C 
ATOM      2  C   UNL     1       5.770   6.256  17.226  0.00  0.00    +0.000 A 
ATOM      3  C   UNL     1       7.054   6.839  17.373  0.00  0.00    +0.000 A 
ATOM      4  C   UNL     1       7.855   6.588  18.485  0.00  0.00    +0.000 A 
ATOM      5  C   UNL     1       7.377   5.740  19.460  0.00  0.00    +0.000 A 
ATOM      6  C   UNL     1       6.114   5.164  19.353  0.00  0.00    +0.000 A 
ATOM      7  C   UNL     1       5.257   5.439  18.265  0.00  0.00    +0.000 A 
ENDROOT
BRANCH   7   8
ATOM      8  N   UNL     1       3.863   4.779  18.254  0.00  0.00    +0.000 NA
ATOM      9  C   UNL     1       3.722   3.811  17.065  0.00  0.00    +0.000 C 
ATOM     10  C   UNL     1       3.616   3.933  19.497  0.00  0.00    +0.000 C 
ATOM     11  C   UNL     1       2.822   5.880  18.118  0.00  0.00    +0.000 C 
ENDBRANCH   7   8
BRANCH   5  12
ATOM     12  O   UNL     1       8.113   5.427  20.563  0.00  0.00    +0.000 OA
ATOM     13  H   UNL     1       7.989   6.111  21.244  0.00  0.00    +0.000 HD
ENDBRANCH   5  12
TORSDOF 2
ENDMDL
MODEL 4
REMARK VINA RESULT:      -5.4      1.597      1.791
REMARK  Name = 
REMARK  6 active torsions:
REMARK  status: ('A' for Active; 'I' for Inactive)
REMARK    1  A    between atoms: C_1  and  C_2
REMARK    2  A    between atoms: C_5  and  O_6
REMARK    3  A    between atoms: C_8  and  N_9
REMARK    4  A    between atoms: N_9  and  C_10
REMARK    5  A    between atoms: N_9  and  C_11
REMARK    6  A    between atoms: N_9  and  C_12
REMARK                            x       y       z     vdW  Elec       q    Type
REMARK                         _______ _______ _______ _____ _____    ______ ____
ROOT
ATOM      1  C   UNL     1       3.583   7.317  17.578  0.00  0.00    +0.000 C 
ATOM      2  C   UNL     1       4.758   6.382  17.683  0.00  0.00    +0.000 A 
ATOM      3  C   UNL     1       5.980   6.920  17.204  0.00  0.00    +0.000 A 
ATOM      4  C   UNL     1       7.157   6.175  17.185  0.00  0.00    +0.000 A 
ATOM      5  C   UNL     1       7.117   4.875  17.639  0.00  0.00    +0.000 A 
ATOM      6  C   UNL     1       5.937   4.322  18.130  0.00  0.00    +0.000 A 
ATOM      7  C   UNL     1       4.741   5.066  18.212  0.00  0.00    +0.000 A 
ENDROOT
BRANCH   7   8
ATOM      8  N   UNL     1       3.494   4.377  18.803  0.00  0.00    +0.000 NA
ATOM      9  C   UNL     1       2.925   5.185  19.983  0.00  0.00    +0.000 C 
ATOM     10  C   UNL     1       2.357   4.279  17.793  0.00  0.00    +0.000 C 
ATOM     11  C   UNL     1       3.910   3.001  19.302  0.00  0.00    +0.000 C 
ENDBRANCH   7   8
BRANCH   5  12
ATOM     12  O   UNL     1       8.221   4.076  17.627  0.00  0.00    +0.000 OA
ATOM     13  H   UNL     1       8.789   4.313  16.873  0.00  0.00    +0.000 HD
ENDBRANCH   5  12
TORSDOF 2
ENDMDL
MODEL 5
REMARK VINA RESULT:      -5.4      1.685      1.901
REMARK  Name = 
REMARK  6 active torsions:
REMARK  status: ('A' for Active; 'I' for Inactive)
REMARK    1  A    between atoms: C_1  and  C_2
REMARK    2  A    between atoms: C_5  and  O_6
REMARK    3  A    between atoms: C_8  and  N_9
REMARK    4  A    between atoms: N_9  and  C_10
REMARK    5  A    between atoms: N_9  and  C_11
REMARK    6  A    between atoms: N_9  and  C_12
REMARK                            x       y       z     vdW  Elec       q    Type
REMARK                         _______ _______ _______ _____ _____    ______ ____
ROOT
ATOM      1  C   UNL     1       3.389   7.216  17.734  0.00  0.00    +0.000 C 
ATOM      2  C   UNL     1       4.599   6.320  17.713  0.00  0.00    +0.000 A 
ATOM      3  C   UNL     1       5.755   6.909  17.142  0.00  0.00    +0.000 A 
ATOM      4  C   UNL     1       6.950   6.205  17.002  0.00  0.00    +0.000 A 
ATOM      5  C   UNL     1       6.992   4.895  17.426  0.00  0.00    +0.000 A 
ATOM      6  C   UNL     1       5.878   4.292  18.005  0.00  0.00    +0.000 A 
ATOM      7  C   UNL     1       4.671   4.993  18.209  0.00  0.00    +0.000 A 
ENDROOT
BRANCH   7   8
ATOM      8  N   UNL     1       3.503   4.248  18.889  0.00  0.00    +0.000 NA
ATOM      9  C   UNL     1       3.974   2.906  19.476  0.00  0.00    +0.000 C 
ATOM     10  C   UNL     1       2.931   5.028  20.067  0.00  0.00    +0.000 C 
ATOM     11  C   UNL     1       2.439   3.980  17.836  0.00  0.00    +0.000 C 
ENDBRANCH   7   8
BRANCH   5  12
ATOM     12  O   UNL     1       8.115   4.134  17.297  0.00  0.00    +0.000 OA
ATOM     13  H   UNL     1       7.893   3.296  16.856  0.00  0.00    +0.000 HD
ENDBRANCH   5  12
TORSDOF 2
ENDMDL
MODEL 6
REMARK VINA RESULT:      -5.3      3.532      4.195
REMARK  Name = 
REMARK  6 active torsions:
REMARK  status: ('A' for Active; 'I' for Inactive)
REMARK    1  A    between atoms: C_1  and  C_2
REMARK    2  A    between atoms: C_5  and  O_6
REMARK    3  A    between atoms: C_8  and  N_9
REMARK    4  A    between atoms: N_9  and  C_10
REMARK    5  A    between atoms: N_9  and  C_11
REMARK    6  A    between atoms: N_9  and  C_12
REMARK                            x       y       z     vdW  Elec       q    Type
REMARK                         _______ _______ _______ _____ _____    ______ ____
ROOT
ATOM      1  C   UNL     1       3.694   3.911  17.193  0.00  0.00    +0.000 C 
ATOM      2  C   UNL     1       3.118   4.796  18.266  0.00  0.00    +0.000 A 
ATOM      3  C   UNL     1       3.032   6.166  17.912  0.00  0.00    +0.000 A 
ATOM      4  C   UNL     1       2.564   7.130  18.803  0.00  0.00    +0.000 A 
ATOM      5  C   UNL     1       2.186   6.729  20.065  0.00  0.00    +0.000 A 
ATOM      6  C   UNL     1       2.244   5.388  20.439  0.00  0.00    +0.000 A 
ATOM      7  C   UNL     1       2.662   4.381  19.543  0.00  0.00    +0.000 A 
ENDROOT
BRANCH   7   8
ATOM      8  N   UNL     1       2.660   2.920  20.040  0.00  0.00    +0.000 NA
ATOM      9  C   UNL     1       2.089   2.825  21.466  0.00  0.00    +0.000 C 
ATOM     10  C   UNL     1       1.770   2.024  19.187  0.00  0.00    +0.000 C 
ATOM     11  C   UNL     1       4.097   2.424  20.049  0.00  0.00    +0.000 C 
ENDBRANCH   7   8
BRANCH   5  12
ATOM     12  O   UNL     1       1.744   7.617  20.999  0.00  0.00    +0.000 OA
ATOM     13  H   UNL     1       2.332   8.392  21.018  0.00  0.00    +0.000 HD
ENDBRANCH   5  12
TORSDOF 2
ENDMDL
MODEL 7
REMARK VINA RESULT:      -5.3      2.593      4.541
REMARK  Name = 
REMARK  6 active torsions:
REMARK  status: ('A' for Active; 'I' for Inactive)
REMARK    1  A    between atoms: C_1  and  C_2
REMARK    2  A    between atoms: C_5  and  O_6
REMARK    3  A    between atoms: C_8  and  N_9
REMARK    4  A    between atoms: N_9  and  C_10
REMARK    5  A    between atoms: N_9  and  C_11
REMARK    6  A    between atoms: N_9  and  C_12
REMARK                            x       y       z     vdW  Elec       q    Type
REMARK                         _______ _______ _______ _____ _____    ______ ____
ROOT
ATOM      1  C   UNL     1       3.152   7.184  17.967  0.00  0.00    +0.000 C 
ATOM      2  C   UNL     1       3.051   5.690  17.814  0.00  0.00    +0.000 A 
ATOM      3  C   UNL     1       1.813   5.140  18.231  0.00  0.00    +0.000 A 
ATOM      4  C   UNL     1       1.566   3.769  18.200  0.00  0.00    +0.000 A 
ATOM      5  C   UNL     1       2.567   2.932  17.757  0.00  0.00    +0.000 A 
ATOM      6  C   UNL     1       3.790   3.442  17.325  0.00  0.00    +0.000 A 
ATOM      7  C   UNL     1       4.051   4.829  17.295  0.00  0.00    +0.000 A 
ENDROOT
BRANCH   7   8
ATOM      8  N   UNL     1       5.423   5.298  16.768  0.00  0.00    +0.000 NA
ATOM      9  C   UNL     1       5.260   6.436  15.745  0.00  0.00    +0.000 C 
ATOM     10  C   UNL     1       6.300   5.871  17.875  0.00  0.00    +0.000 C 
ATOM     11  C   UNL     1       6.095   4.116  16.086  0.00  0.00    +0.000 C 
ENDBRANCH   7   8
BRANCH   5  12
ATOM     12  O   UNL     1       2.411   1.580  17.723  0.00  0.00    +0.000 OA
ATOM     13  H   UNL     1       3.096   1.185  17.155  0.00  0.00    +0.000 HD
ENDBRANCH   5  12
TORSDOF 2
ENDMDL
MODEL 8
REMARK VINA RESULT:      -5.3      2.585      4.552
REMARK  Name = 
REMARK  6 active torsions:
REMARK  status: ('A' for Active; 'I' for Inactive)
REMARK    1  A    between atoms: C_1  and  C_2
REMARK    2  A    between atoms: C_5  and  O_6
REMARK    3  A    between atoms: C_8  and  N_9
REMARK    4  A    between atoms: N_9  and  C_10
REMARK    5  A    between atoms: N_9  and  C_11
REMARK    6  A    between atoms: N_9  and  C_12
REMARK                            x       y       z     vdW  Elec       q    Type
REMARK                         _______ _______ _______ _____ _____    ______ ____
ROOT
ATOM      1  C   UNL     1       3.033   7.170  18.037  0.00  0.00    +0.000 C 
ATOM      2  C   UNL     1       2.973   5.676  17.865  0.00  0.00    +0.000 A 
ATOM      3  C   UNL     1       1.740   5.090  18.249  0.00  0.00    +0.000 A 
ATOM      4  C   UNL     1       1.529   3.714  18.198  0.00  0.00    +0.000 A 
ATOM      5  C   UNL     1       2.561   2.908  17.768  0.00  0.00    +0.000 A 
ATOM      6  C   UNL     1       3.779   3.453  17.368  0.00  0.00    +0.000 A 
ATOM      7  C   UNL     1       4.006   4.846  17.359  0.00  0.00    +0.000 A 
ENDROOT
BRANCH   7   8
ATOM      8  N   UNL     1       5.376   5.356  16.867  0.00  0.00    +0.000 NA
ATOM      9  C   UNL     1       6.182   4.221  16.209  0.00  0.00    +0.000 C 
ATOM     10  C   UNL     1       5.240   6.431  15.795  0.00  0.00    +0.000 C 
ATOM     11  C   UNL     1       6.147   5.872  18.072  0.00  0.00    +0.000 C 
ENDBRANCH   7   8
BRANCH   5  12
ATOM     12  O   UNL     1       2.439   1.552  17.716  0.00  0.00    +0.000 OA
ATOM     13  H   UNL     1       2.587   1.245  16.804  0.00  0.00    +0.000 HD
ENDBRANCH   5  12
TORSDOF 2
ENDMDL
MODEL 9
REMARK VINA RESULT:      -5.3      1.660      2.209
REMARK  Name = 
REMARK  6 active torsions:
REMARK  status: ('A' for Active; 'I' for Inactive)
REMARK    1  A    between atoms: C_1  and  C_2
REMARK    2  A    between atoms: C_5  and  O_6
REMARK    3  A    between atoms: C_8  and  N_9
REMARK    4  A    between atoms: N_9  and  C_10
REMARK    5  A    between atoms: N_9  and  C_11
REMARK    6  A    between atoms: N_9  and  C_12
REMARK                            x       y       z     vdW  Elec       q    Type
REMARK                         _______ _______ _______ _____ _____    ______ ____
ROOT
ATOM      1  C   UNL     1       3.508   7.222  17.637  0.00  0.00    +0.000 C 
ATOM      2  C   UNL     1       4.710   6.317  17.672  0.00  0.00    +0.000 A 
ATOM      3  C   UNL     1       5.892   6.889  17.138  0.00  0.00    +0.000 A 
ATOM      4  C   UNL     1       7.085   6.174  17.051  0.00  0.00    +0.000 A 
ATOM      5  C   UNL     1       7.100   4.869  17.493  0.00  0.00    +0.000 A 
ATOM      6  C   UNL     1       5.961   4.283  18.038  0.00  0.00    +0.000 A 
ATOM      7  C   UNL     1       4.753   4.996  18.188  0.00  0.00    +0.000 A 
ENDROOT
BRANCH   7   8
ATOM      8  N   UNL     1       3.555   4.270  18.834  0.00  0.00    +0.000 NA
ATOM      9  C   UNL     1       2.394   4.126  17.834  0.00  0.00    +0.000 C 
ATOM     10  C   UNL     1       3.904   2.848  19.258  0.00  0.00    +0.000 C 
ATOM     11  C   UNL     1       3.085   5.100  20.019  0.00  0.00    +0.000 C 
ENDBRANCH   7   8
BRANCH   5  12
ATOM     12  O   UNL     1       8.221   4.099  17.417  0.00  0.00    +0.000 OA
ATOM     13  H   UNL     1       8.667   4.082  18.282  0.00  0.00    +0.000 HD
ENDBRANCH   5  12
TORSDOF 2
ENDMDL
