MODEL 1
REMARK VINA RESULT:      -6.3      0.000      0.000
REMARK  Name = 
REMARK  8 active torsions:
REMARK  status: ('A' for Active; 'I' for Inactive)
REMARK    1  A    between atoms: C_1  and  O_2
REMARK    2  A    between atoms: O_2  and  C_3
REMARK    3  A    between atoms: C_14  and  S_15
REMARK    4  A    between atoms: N_16  and  C_17
REMARK    5  A    between atoms: C_17  and  C_18
REMARK    6  A    between atoms: C_17  and  C_19
REMARK    7  A    between atoms: C_29  and  O_30
REMARK    8  A    between atoms: O_30  and  C_31
REMARK                            x       y       z     vdW  Elec       q    Type
REMARK                         _______ _______ _______ _____ _____    ______ ____
ROOT
ATOM      1  C   UNL     1      -1.289  15.979  24.687  0.00  0.00    +0.000 A 
ATOM      2  C   UNL     1      -2.211  16.950  25.137  0.00  0.00    +0.000 A 
ATOM      3  C   UNL     1      -3.564  16.920  24.792  0.00  0.00    +0.000 A 
ATOM      4  N   UNL     1      -4.416  17.815  25.310  0.00  0.00    +0.000 NA
ATOM      5  C   UNL     1      -5.706  17.689  24.949  0.00  0.00    +0.000 A 
ATOM      6  N   UNL     1      -6.230  16.754  24.143  0.00  0.00    +0.000 NA
ATOM      7  C   UNL     1      -5.375  15.849  23.653  0.00  0.00    +0.000 A 
ATOM      8  N   UNL     1      -5.855  14.812  22.864  0.00  0.00    +0.000 N 
ATOM      9  C   UNL     1      -7.071  14.957  22.058  0.00  0.00    +0.000 C 
ATOM     10  C   UNL     1      -6.876  14.102  20.766  0.00  0.00    +0.000 C 
ATOM     11  N   UNL     1      -6.523  12.696  21.093  0.00  0.00    +0.000 N 
ATOM     12  C   UNL     1      -6.700  11.681  20.183  0.00  0.00    +0.000 C 
ATOM     13  N   UNL     1      -6.265  11.446  19.011  0.00  0.00    +0.000 NA
ATOM     14  C   UNL     1      -5.374  12.576  22.016  0.00  0.00    +0.000 C 
ATOM     15  C   UNL     1      -5.624  13.418  23.288  0.00  0.00    +0.000 C 
ATOM     16  C   UNL     1      -3.989  15.934  23.912  0.00  0.00    +0.000 A 
ATOM     17  C   UNL     1      -3.026  15.091  23.324  0.00  0.00    +0.000 A 
ATOM     18  C   UNL     1      -1.700  15.055  23.733  0.00  0.00    +0.000 A 
ENDROOT
BRANCH   1  20
ATOM     19  C   UNL     1       0.477  17.125  25.770  0.00  0.00    +0.000 C 
ATOM     20  O   UNL     1       0.002  15.937  25.137  0.00  0.00    +0.000 OA
ENDBRANCH   1  20
BRANCH  12  21
ATOM     21  S   UNL     1      -7.739  10.401  20.824  0.00  0.00    +0.000 S 
ATOM     22  H   UNL     1      -6.871  10.003  21.759  0.00  0.00    +0.000 HD
ENDBRANCH  12  21
BRANCH  13  23
ATOM     23  C   UNL     1      -5.334  12.301  18.288  0.00  0.00    +0.000 C 
ATOM     24  C   UNL     1      -6.127  12.995  17.176  0.00  0.00    +0.000 C 
BRANCH  23  25
ATOM     25  C   UNL     1      -4.190  11.506  17.659  0.00  0.00    +0.000 A 
ATOM     26  C   UNL     1      -4.256  11.130  16.308  0.00  0.00    +0.000 A 
ATOM     27  C   UNL     1      -3.249  10.348  15.734  0.00  0.00    +0.000 A 
ATOM     28  C   UNL     1      -2.166   9.923  16.503  0.00  0.00    +0.000 A 
ATOM     29  C   UNL     1      -2.091  10.279  17.847  0.00  0.00    +0.000 A 
ATOM     30  C   UNL     1      -3.099  11.061  18.421  0.00  0.00    +0.000 A 
ENDBRANCH  23  25
ENDBRANCH  13  23
BRANCH  18  31
ATOM     31  O   UNL     1      -1.033  14.042  23.112  0.00  0.00    +0.000 OA
ATOM     32  C   UNL     1      -1.585  12.742  23.078  0.00  0.00    +0.000 C 
ENDBRANCH  18  31
TORSDOF 5
ENDMDL
MODEL 2
REMARK VINA RESULT:      -6.1      4.216      6.843
REMARK  Name = 
REMARK  8 active torsions:
REMARK  status: ('A' for Active; 'I' for Inactive)
REMARK    1  A    between atoms: C_1  and  O_2
REMARK    2  A    between atoms: O_2  and  C_3
REMARK    3  A    between atoms: C_14  and  S_15
REMARK    4  A    between atoms: N_16  and  C_17
REMARK    5  A    between atoms: C_17  and  C_18
REMARK    6  A    between atoms: C_17  and  C_19
REMARK    7  A    between atoms: C_29  and  O_30
REMARK    8  A    between atoms: O_30  and  C_31
REMARK                            x       y       z     vdW  Elec       q    Type
REMARK                         _______ _______ _______ _____ _____    ______ ____
ROOT
ATOM      1  C   UNL     1       1.479  10.453  17.987  0.00  0.00    +0.000 A 
ATOM      2  C   UNL     1       2.422  11.504  17.994  0.00  0.00    +0.000 A 
ATOM      3  C   UNL     1       2.185  12.725  18.629  0.00  0.00    +0.000 A 
ATOM      4  N   UNL     1       3.142  13.661  18.678  0.00  0.00    +0.000 NA
ATOM      5  C   UNL     1       2.836  14.791  19.340  0.00  0.00    +0.000 A 
ATOM      6  N   UNL     1       1.686  15.072  19.969  0.00  0.00    +0.000 NA
ATOM      7  C   UNL     1       0.747  14.120  19.937  0.00  0.00    +0.000 A 
ATOM      8  N   UNL     1      -0.447  14.312  20.621  0.00  0.00    +0.000 N 
ATOM      9  C   UNL     1      -0.988  15.652  20.863  0.00  0.00    +0.000 C 
ATOM     10  C   UNL     1      -2.546  15.536  20.830  0.00  0.00    +0.000 C 
ATOM     11  N   UNL     1      -3.032  14.500  21.777  0.00  0.00    +0.000 N 
ATOM     12  C   UNL     1      -4.333  14.492  22.226  0.00  0.00    +0.000 C 
ATOM     13  N   UNL     1      -5.471  14.417  21.664  0.00  0.00    +0.000 NA
ATOM     14  C   UNL     1      -2.375  13.186  21.603  0.00  0.00    +0.000 C 
ATOM     15  C   UNL     1      -0.840  13.349  21.668  0.00  0.00    +0.000 C 
ATOM     16  C   UNL     1       0.939  12.925  19.208  0.00  0.00    +0.000 A 
ATOM     17  C   UNL     1      -0.056  11.944  19.029  0.00  0.00    +0.000 A 
ATOM     18  C   UNL     1       0.202  10.694  18.483  0.00  0.00    +0.000 A 
ENDROOT
BRANCH   1  20
ATOM     19  C   UNL     1       2.245   8.256  18.425  0.00  0.00    +0.000 C 
ATOM     20  O   UNL     1       1.770   9.215  17.482  0.00  0.00    +0.000 OA
ENDBRANCH   1  20
BRANCH  12  21
ATOM     21  S   UNL     1      -4.414  14.559  23.992  0.00  0.00    +0.000 S 
ATOM     22  H   UNL     1      -5.750  14.545  24.048  0.00  0.00    +0.000 HD
ENDBRANCH  12  21
BRANCH  13  23
ATOM     23  C   UNL     1      -5.677  14.274  20.230  0.00  0.00    +0.000 C 
ATOM     24  C   UNL     1      -6.852  15.180  19.849  0.00  0.00    +0.000 C 
BRANCH  23  25
ATOM     25  C   UNL     1      -6.012  12.835  19.835  0.00  0.00    +0.000 A 
ATOM     26  C   UNL     1      -5.434  12.270  18.687  0.00  0.00    +0.000 A 
ATOM     27  C   UNL     1      -5.779  10.979  18.276  0.00  0.00    +0.000 A 
ATOM     28  C   UNL     1      -6.711  10.237  19.001  0.00  0.00    +0.000 A 
ATOM     29  C   UNL     1      -7.301  10.788  20.136  0.00  0.00    +0.000 A 
ATOM     30  C   UNL     1      -6.956  12.080  20.546  0.00  0.00    +0.000 A 
ENDBRANCH  23  25
ENDBRANCH  13  23
BRANCH  18  31
ATOM     31  O   UNL     1      -0.895   9.892  18.578  0.00  0.00    +0.000 OA
ATOM     32  C   UNL     1      -1.970  10.047  17.675  0.00  0.00    +0.000 C 
ENDBRANCH  18  31
TORSDOF 5
ENDMDL
MODEL 3
REMARK VINA RESULT:      -6.1      3.975      6.675
REMARK  Name = 
REMARK  8 active torsions:
REMARK  status: ('A' for Active; 'I' for Inactive)
REMARK    1  A    between atoms: C_1  and  O_2
REMARK    2  A    between atoms: O_2  and  C_3
REMARK    3  A    between atoms: C_14  and  S_15
REMARK    4  A    between atoms: N_16  and  C_17
REMARK    5  A    between atoms: C_17  and  C_18
REMARK    6  A    between atoms: C_17  and  C_19
REMARK    7  A    between atoms: C_29  and  O_30
REMARK    8  A    between atoms: O_30  and  C_31
REMARK                            x       y       z     vdW  Elec       q    Type
REMARK                         _______ _______ _______ _____ _____    ______ ____
ROOT
ATOM      1  C   UNL     1       0.864  10.220  18.223  0.00  0.00    +0.000 A 
ATOM      2  C   UNL     1       1.872  11.208  18.282  0.00  0.00    +0.000 A 
ATOM      3  C   UNL     1       1.674  12.451  18.888  0.00  0.00    +0.000 A 
ATOM      4  N   UNL     1       2.685  13.323  18.992  0.00  0.00    +0.000 NA
ATOM      5  C   UNL     1       2.412  14.481  19.621  0.00  0.00    +0.000 A 
ATOM      6  N   UNL     1       1.243  14.843  20.170  0.00  0.00    +0.000 NA
ATOM      7  C   UNL     1       0.248  13.954  20.085  0.00  0.00    +0.000 A 
ATOM      8  N   UNL     1      -0.972  14.232  20.687  0.00  0.00    +0.000 N 
ATOM      9  C   UNL     1      -1.439  15.607  20.879  0.00  0.00    +0.000 C 
ATOM     10  C   UNL     1      -2.996  15.592  20.745  0.00  0.00    +0.000 C 
ATOM     11  N   UNL     1      -3.609  14.603  21.668  0.00  0.00    +0.000 N 
ATOM     12  C   UNL     1      -4.934  14.685  22.030  0.00  0.00    +0.000 C 
ATOM     13  N   UNL     1      -6.035  14.676  21.395  0.00  0.00    +0.000 NA
ATOM     14  C   UNL     1      -3.029  13.248  21.551  0.00  0.00    +0.000 C 
ATOM     15  C   UNL     1      -1.494  13.312  21.715  0.00  0.00    +0.000 C 
ATOM     16  C   UNL     1       0.409  12.739  19.382  0.00  0.00    +0.000 A 
ATOM     17  C   UNL     1      -0.635  11.822  19.148  0.00  0.00    +0.000 A 
ATOM     18  C   UNL     1      -0.423  10.550  18.632  0.00  0.00    +0.000 A 
ENDROOT
BRANCH   1  20
ATOM     19  C   UNL     1       2.452   8.501  17.870  0.00  0.00    +0.000 C 
ATOM     20  O   UNL     1       1.107   8.960  17.750  0.00  0.00    +0.000 OA
ENDBRANCH   1  20
BRANCH  12  21
ATOM     21  S   UNL     1      -5.126  14.782  23.786  0.00  0.00    +0.000 S 
ATOM     22  H   UNL     1      -3.828  14.617  24.056  0.00  0.00    +0.000 HD
ENDBRANCH  12  21
BRANCH  13  23
ATOM     23  C   UNL     1      -6.157  14.528  19.952  0.00  0.00    +0.000 C 
ATOM     24  C   UNL     1      -7.346  15.384  19.507  0.00  0.00    +0.000 C 
BRANCH  23  25
ATOM     25  C   UNL     1      -6.409  13.077  19.540  0.00  0.00    +0.000 A 
ATOM     26  C   UNL     1      -7.128  12.220  20.390  0.00  0.00    +0.000 A 
ATOM     27  C   UNL     1      -7.312  10.875  20.059  0.00  0.00    +0.000 A 
ATOM     28  C   UNL     1      -6.774  10.363  18.878  0.00  0.00    +0.000 A 
ATOM     29  C   UNL     1      -6.050  11.196  18.030  0.00  0.00    +0.000 A 
ATOM     30  C   UNL     1      -5.865  12.543  18.363  0.00  0.00    +0.000 A 
ENDBRANCH  23  25
ENDBRANCH  13  23
BRANCH  18  31
ATOM     31  O   UNL     1      -1.574   9.822  18.662  0.00  0.00    +0.000 OA
ATOM     32  C   UNL     1      -2.553   9.996  17.658  0.00  0.00    +0.000 C 
ENDBRANCH  18  31
TORSDOF 5
ENDMDL
MODEL 4
REMARK VINA RESULT:      -6.1      5.559      8.282
REMARK  Name = 
REMARK  8 active torsions:
REMARK  status: ('A' for Active; 'I' for Inactive)
REMARK    1  A    between atoms: C_1  and  O_2
REMARK    2  A    between atoms: O_2  and  C_3
REMARK    3  A    between atoms: C_14  and  S_15
REMARK    4  A    between atoms: N_16  and  C_17
REMARK    5  A    between atoms: C_17  and  C_18
REMARK    6  A    between atoms: C_17  and  C_19
REMARK    7  A    between atoms: C_29  and  O_30
REMARK    8  A    between atoms: O_30  and  C_31
REMARK                            x       y       z     vdW  Elec       q    Type
REMARK                         _______ _______ _______ _____ _____    ______ ____
ROOT
ATOM      1  C   UNL     1       1.642   9.181  19.071  0.00  0.00    +0.000 A 
ATOM      2  C   UNL     1       1.291   8.591  20.306  0.00  0.00    +0.000 A 
ATOM      3  C   UNL     1       0.625   9.293  21.313  0.00  0.00    +0.000 A 
ATOM      4  N   UNL     1       0.240   8.669  22.434  0.00  0.00    +0.000 NA
ATOM      5  C   UNL     1      -0.425   9.416  23.333  0.00  0.00    +0.000 A 
ATOM      6  N   UNL     1      -0.759  10.709  23.218  0.00  0.00    +0.000 NA
ATOM      7  C   UNL     1      -0.394  11.316  22.084  0.00  0.00    +0.000 A 
ATOM      8  N   UNL     1      -0.763  12.637  21.865  0.00  0.00    +0.000 N 
ATOM      9  C   UNL     1      -0.983  13.568  22.975  0.00  0.00    +0.000 C 
ATOM     10  C   UNL     1      -0.539  14.985  22.488  0.00  0.00    +0.000 C 
ATOM     11  N   UNL     1      -1.224  15.364  21.226  0.00  0.00    +0.000 N 
ATOM     12  C   UNL     1      -1.319  16.677  20.827  0.00  0.00    +0.000 C 
ATOM     13  N   UNL     1      -0.477  17.594  20.568  0.00  0.00    +0.000 NA
ATOM     14  C   UNL     1      -1.100  14.347  20.159  0.00  0.00    +0.000 C 
ATOM     15  C   UNL     1      -1.575  12.972  20.680  0.00  0.00    +0.000 C 
ATOM     16  C   UNL     1       0.371  10.642  21.106  0.00  0.00    +0.000 A 
ATOM     17  C   UNL     1       0.894  11.261  19.953  0.00  0.00    +0.000 A 
ATOM     18  C   UNL     1       1.472  10.551  18.909  0.00  0.00    +0.000 A 
ENDROOT
BRANCH   1  20
ATOM     19  C   UNL     1       2.772   7.210  18.404  0.00  0.00    +0.000 C 
ATOM     20  O   UNL     1       2.172   8.452  18.041  0.00  0.00    +0.000 OA
ENDBRANCH   1  20
BRANCH  12  21
ATOM     21  S   UNL     1      -3.001  17.167  20.587  0.00  0.00    +0.000 S 
ATOM     22  H   UNL     1      -3.112  17.791  21.763  0.00  0.00    +0.000 HD
ENDBRANCH  12  21
BRANCH  13  23
ATOM     23  C   UNL     1       0.968  17.427  20.612  0.00  0.00    +0.000 C 
ATOM     24  C   UNL     1       1.539  18.622  21.383  0.00  0.00    +0.000 C 
BRANCH  23  25
ATOM     25  C   UNL     1       1.589  17.397  19.215  0.00  0.00    +0.000 A 
ATOM     26  C   UNL     1       0.975  18.088  18.158  0.00  0.00    +0.000 A 
ATOM     27  C   UNL     1       1.493  18.018  16.862  0.00  0.00    +0.000 A 
ATOM     28  C   UNL     1       2.628  17.250  16.600  0.00  0.00    +0.000 A 
ATOM     29  C   UNL     1       3.243  16.550  17.636  0.00  0.00    +0.000 A 
ATOM     30  C   UNL     1       2.723  16.620  18.933  0.00  0.00    +0.000 A 
ENDBRANCH  23  25
ENDBRANCH  13  23
BRANCH  18  31
ATOM     31  O   UNL     1       1.741  11.375  17.858  0.00  0.00    +0.000 OA
ATOM     32  C   UNL     1       2.424  12.594  18.067  0.00  0.00    +0.000 C 
ENDBRANCH  18  31
TORSDOF 5
ENDMDL
MODEL 5
REMARK VINA RESULT:      -6.0      2.730      7.261
REMARK  Name = 
REMARK  8 active torsions:
REMARK  status: ('A' for Active; 'I' for Inactive)
REMARK    1  A    between atoms: C_1  and  O_2
REMARK    2  A    between atoms: O_2  and  C_3
REMARK    3  A    between atoms: C_14  and  S_15
REMARK    4  A    between atoms: N_16  and  C_17
REMARK    5  A    between atoms: C_17  and  C_18
REMARK    6  A    between atoms: C_17  and  C_19
REMARK    7  A    between atoms: C_29  and  O_30
REMARK    8  A    between atoms: O_30  and  C_31
REMARK                            x       y       z     vdW  Elec       q    Type
REMARK                         _______ _______ _______ _____ _____    ______ ____
ROOT
ATOM      1  C   UNL     1      -3.108  10.869  17.842  0.00  0.00    +0.000 A 
ATOM      2  C   UNL     1      -4.488  10.568  17.838  0.00  0.00    +0.000 A 
ATOM      3  C   UNL     1      -5.411  11.252  18.633  0.00  0.00    +0.000 A 
ATOM      4  N   UNL     1      -6.720  10.986  18.534  0.00  0.00    +0.000 NA
ATOM      5  C   UNL     1      -7.537  11.718  19.312  0.00  0.00    +0.000 A 
ATOM      6  N   UNL     1      -7.183  12.695  20.160  0.00  0.00    +0.000 NA
ATOM      7  C   UNL     1      -5.876  12.971  20.231  0.00  0.00    +0.000 A 
ATOM      8  N   UNL     1      -5.439  14.014  21.038  0.00  0.00    +0.000 N 
ATOM      9  C   UNL     1      -6.185  14.428  22.229  0.00  0.00    +0.000 C 
ATOM     10  C   UNL     1      -5.141  14.914  23.285  0.00  0.00    +0.000 C 
ATOM     11  N   UNL     1      -4.251  15.963  22.724  0.00  0.00    +0.000 N 
ATOM     12  C   UNL     1      -3.547  16.819  23.539  0.00  0.00    +0.000 C 
ATOM     13  N   UNL     1      -2.678  16.666  24.455  0.00  0.00    +0.000 NA
ATOM     14  C   UNL     1      -3.610  15.574  21.449  0.00  0.00    +0.000 C 
ATOM     15  C   UNL     1      -4.684  15.126  20.431  0.00  0.00    +0.000 C 
ATOM     16  C   UNL     1      -4.926  12.213  19.510  0.00  0.00    +0.000 A 
ATOM     17  C   UNL     1      -3.532  12.370  19.640  0.00  0.00    +0.000 A 
ATOM     18  C   UNL     1      -2.619  11.762  18.789  0.00  0.00    +0.000 A 
ENDROOT
BRANCH   1  20
ATOM     19  C   UNL     1      -2.636  10.289  15.596  0.00  0.00    +0.000 C 
ATOM     20  O   UNL     1      -2.233  10.288  16.965  0.00  0.00    +0.000 OA
ENDBRANCH   1  20
BRANCH  12  21
ATOM     21  S   UNL     1      -3.919  18.512  23.187  0.00  0.00    +0.000 S 
ATOM     22  H   UNL     1      -3.439  18.480  21.940  0.00  0.00    +0.000 HD
ENDBRANCH  12  21
BRANCH  13  23
ATOM     23  C   UNL     1      -2.143  15.381  24.881  0.00  0.00    +0.000 C 
ATOM     24  C   UNL     1      -1.318  15.631  26.148  0.00  0.00    +0.000 C 
BRANCH  23  25
ATOM     25  C   UNL     1      -1.241  14.751  23.819  0.00  0.00    +0.000 A 
ATOM     26  C   UNL     1      -0.250  15.522  23.191  0.00  0.00    +0.000 A 
ATOM     27  C   UNL     1       0.540  14.981  22.173  0.00  0.00    +0.000 A 
ATOM     28  C   UNL     1       0.346  13.662  21.761  0.00  0.00    +0.000 A 
ATOM     29  C   UNL     1      -0.639  12.887  22.366  0.00  0.00    +0.000 A 
ATOM     30  C   UNL     1      -1.430  13.430  23.385  0.00  0.00    +0.000 A 
ENDBRANCH  23  25
ENDBRANCH  13  23
BRANCH  18  31
ATOM     31  O   UNL     1      -1.357  12.211  19.038  0.00  0.00    +0.000 OA
ATOM     32  C   UNL     1      -0.712  13.066  18.117  0.00  0.00    +0.000 C 
ENDBRANCH  18  31
TORSDOF 5
ENDMDL
MODEL 6
REMARK VINA RESULT:      -5.9     10.313     12.113
REMARK  Name = 
REMARK  8 active torsions:
REMARK  status: ('A' for Active; 'I' for Inactive)
REMARK    1  A    between atoms: C_1  and  O_2
REMARK    2  A    between atoms: O_2  and  C_3
REMARK    3  A    between atoms: C_14  and  S_15
REMARK    4  A    between atoms: N_16  and  C_17
REMARK    5  A    between atoms: C_17  and  C_18
REMARK    6  A    between atoms: C_17  and  C_19
REMARK    7  A    between atoms: C_29  and  O_30
REMARK    8  A    between atoms: O_30  and  C_31
REMARK                            x       y       z     vdW  Elec       q    Type
REMARK                         _______ _______ _______ _____ _____    ______ ____
ROOT
ATOM      1  C   UNL     1      10.741  13.075  18.053  0.00  0.00    +0.000 A 
ATOM      2  C   UNL     1      11.103  14.357  17.584  0.00  0.00    +0.000 A 
ATOM      3  C   UNL     1      10.293  15.481  17.763  0.00  0.00    +0.000 A 
ATOM      4  N   UNL     1      10.717  16.691  17.375  0.00  0.00    +0.000 NA
ATOM      5  C   UNL     1       9.885  17.720  17.618  0.00  0.00    +0.000 A 
ATOM      6  N   UNL     1       8.690  17.665  18.223  0.00  0.00    +0.000 NA
ATOM      7  C   UNL     1       8.288  16.457  18.631  0.00  0.00    +0.000 A 
ATOM      8  N   UNL     1       7.091  16.331  19.324  0.00  0.00    +0.000 N 
ATOM      9  C   UNL     1       5.986  17.272  19.127  0.00  0.00    +0.000 C 
ATOM     10  C   UNL     1       4.656  16.471  19.302  0.00  0.00    +0.000 C 
ATOM     11  N   UNL     1       4.624  15.753  20.602  0.00  0.00    +0.000 N 
ATOM     12  C   UNL     1       3.439  15.330  21.158  0.00  0.00    +0.000 C 
ATOM     13  N   UNL     1       2.502  14.556  20.783  0.00  0.00    +0.000 NA
ATOM     14  C   UNL     1       5.815  14.909  20.840  0.00  0.00    +0.000 C 
ATOM     15  C   UNL     1       7.101  15.750  20.680  0.00  0.00    +0.000 C 
ATOM     16  C   UNL     1       9.054  15.300  18.361  0.00  0.00    +0.000 A 
ATOM     17  C   UNL     1       8.626  13.989  18.650  0.00  0.00    +0.000 A 
ATOM     18  C   UNL     1       9.461  12.883  18.561  0.00  0.00    +0.000 A 
ENDROOT
BRANCH   1  20
ATOM     19  C   UNL     1      12.330  11.737  19.187  0.00  0.00    +0.000 C 
ATOM     20  O   UNL     1      11.597  12.009  17.994  0.00  0.00    +0.000 OA
ENDBRANCH   1  20
BRANCH  12  21
ATOM     21  S   UNL     1       3.207  15.992  22.782  0.00  0.00    +0.000 S 
ATOM     22  H   UNL     1       3.168  17.267  22.384  0.00  0.00    +0.000 HD
ENDBRANCH  12  21
BRANCH  13  23
ATOM     23  C   UNL     1       2.488  13.825  19.524  0.00  0.00    +0.000 C 
ATOM     24  C   UNL     1       1.840  14.737  18.478  0.00  0.00    +0.000 C 
BRANCH  23  25
ATOM     25  C   UNL     1       1.682  12.528  19.619  0.00  0.00    +0.000 A 
ATOM     26  C   UNL     1       0.876  12.283  20.742  0.00  0.00    +0.000 A 
ATOM     27  C   UNL     1       0.185  11.076  20.875  0.00  0.00    +0.000 A 
ATOM     28  C   UNL     1       0.294  10.092  19.892  0.00  0.00    +0.000 A 
ATOM     29  C   UNL     1       1.098  10.316  18.777  0.00  0.00    +0.000 A 
ATOM     30  C   UNL     1       1.791  11.524  18.645  0.00  0.00    +0.000 A 
ENDBRANCH  23  25
ENDBRANCH  13  23
BRANCH  18  31
ATOM     31  O   UNL     1       8.842  11.773  19.051  0.00  0.00    +0.000 OA
ATOM     32  C   UNL     1       8.856  10.567  18.315  0.00  0.00    +0.000 C 
ENDBRANCH  18  31
TORSDOF 5
ENDMDL
MODEL 7
REMARK VINA RESULT:      -5.9      8.003     10.000
REMARK  Name = 
REMARK  8 active torsions:
REMARK  status: ('A' for Active; 'I' for Inactive)
REMARK    1  A    between atoms: C_1  and  O_2
REMARK    2  A    between atoms: O_2  and  C_3
REMARK    3  A    between atoms: C_14  and  S_15
REMARK    4  A    between atoms: N_16  and  C_17
REMARK    5  A    between atoms: C_17  and  C_18
REMARK    6  A    between atoms: C_17  and  C_19
REMARK    7  A    between atoms: C_29  and  O_30
REMARK    8  A    between atoms: O_30  and  C_31
REMARK                            x       y       z     vdW  Elec       q    Type
REMARK                         _______ _______ _______ _____ _____    ______ ____
ROOT
ATOM      1  C   UNL     1       8.413  14.570  23.261  0.00  0.00    +0.000 A 
ATOM      2  C   UNL     1       9.185  14.935  22.136  0.00  0.00    +0.000 A 
ATOM      3  C   UNL     1       8.625  15.141  20.873  0.00  0.00    +0.000 A 
ATOM      4  N   UNL     1       9.385  15.567  19.856  0.00  0.00    +0.000 NA
ATOM      5  C   UNL     1       8.754  15.771  18.685  0.00  0.00    +0.000 A 
ATOM      6  N   UNL     1       7.446  15.612  18.436  0.00  0.00    +0.000 NA
ATOM      7  C   UNL     1       6.691  15.214  19.466  0.00  0.00    +0.000 A 
ATOM      8  N   UNL     1       5.318  15.091  19.301  0.00  0.00    +0.000 N 
ATOM      9  C   UNL     1       4.723  14.788  17.996  0.00  0.00    +0.000 C 
ATOM     10  C   UNL     1       3.449  13.923  18.256  0.00  0.00    +0.000 C 
ATOM     11  N   UNL     1       2.526  14.590  19.209  0.00  0.00    +0.000 N 
ATOM     12  C   UNL     1       1.196  14.245  19.280  0.00  0.00    +0.000 C 
ATOM     13  N   UNL     1       0.564  13.169  19.526  0.00  0.00    +0.000 NA
ATOM     14  C   UNL     1       3.178  15.008  20.469  0.00  0.00    +0.000 C 
ATOM     15  C   UNL     1       4.416  15.880  20.161  0.00  0.00    +0.000 C 
ATOM     16  C   UNL     1       7.266  14.902  20.718  0.00  0.00    +0.000 A 
ATOM     17  C   UNL     1       6.547  14.356  21.800  0.00  0.00    +0.000 A 
ATOM     18  C   UNL     1       7.075  14.239  23.079  0.00  0.00    +0.000 A 
ENDROOT
BRANCH   1  20
ATOM     19  C   UNL     1       9.280  15.753  25.120  0.00  0.00    +0.000 C 
ATOM     20  O   UNL     1       8.947  14.502  24.519  0.00  0.00    +0.000 OA
ENDBRANCH   1  20
BRANCH  12  21
ATOM     21  S   UNL     1       0.143  15.641  19.007  0.00  0.00    +0.000 S 
ATOM     22  H   UNL     1      -0.979  14.923  18.903  0.00  0.00    +0.000 HD
ENDBRANCH  12  21
BRANCH  13  23
ATOM     23  C   UNL     1       1.193  11.899  19.859  0.00  0.00    +0.000 C 
ATOM     24  C   UNL     1       1.025  10.978  18.647  0.00  0.00    +0.000 C 
BRANCH  23  25
ATOM     25  C   UNL     1       0.547  11.238  21.078  0.00  0.00    +0.000 A 
ATOM     26  C   UNL     1       0.874   9.914  21.414  0.00  0.00    +0.000 A 
ATOM     27  C   UNL     1       0.245   9.273  22.485  0.00  0.00    +0.000 A 
ATOM     28  C   UNL     1      -0.725   9.942  23.232  0.00  0.00    +0.000 A 
ATOM     29  C   UNL     1      -1.068  11.251  22.904  0.00  0.00    +0.000 A 
ATOM     30  C   UNL     1      -0.439  11.892  21.831  0.00  0.00    +0.000 A 
ENDBRANCH  23  25
ENDBRANCH  13  23
BRANCH  18  31
ATOM     31  O   UNL     1       6.118  13.835  23.959  0.00  0.00    +0.000 OA
ATOM     32  C   UNL     1       5.401  14.788  24.717  0.00  0.00    +0.000 C 
ENDBRANCH  18  31
TORSDOF 5
ENDMDL
MODEL 8
REMARK VINA RESULT:      -5.8      1.339      1.999
REMARK  Name = 
REMARK  8 active torsions:
REMARK  status: ('A' for Active; 'I' for Inactive)
REMARK    1  A    between atoms: C_1  and  O_2
REMARK    2  A    between atoms: O_2  and  C_3
REMARK    3  A    between atoms: C_14  and  S_15
REMARK    4  A    between atoms: N_16  and  C_17
REMARK    5  A    between atoms: C_17  and  C_18
REMARK    6  A    between atoms: C_17  and  C_19
REMARK    7  A    between atoms: C_29  and  O_30
REMARK    8  A    between atoms: O_30  and  C_31
REMARK                            x       y       z     vdW  Elec       q    Type
REMARK                         _______ _______ _______ _____ _____    ______ ____
ROOT
ATOM      1  C   UNL     1      -2.987  16.404  24.612  0.00  0.00    +0.000 A 
ATOM      2  C   UNL     1      -4.100  17.274  24.632  0.00  0.00    +0.000 A 
ATOM      3  C   UNL     1      -5.262  17.027  23.897  0.00  0.00    +0.000 A 
ATOM      4  N   UNL     1      -6.322  17.838  24.013  0.00  0.00    +0.000 NA
ATOM      5  C   UNL     1      -7.410  17.503  23.294  0.00  0.00    +0.000 A 
ATOM      6  N   UNL     1      -7.550  16.437  22.492  0.00  0.00    +0.000 NA
ATOM      7  C   UNL     1      -6.495  15.619  22.406  0.00  0.00    +0.000 A 
ATOM      8  N   UNL     1      -6.588  14.460  21.646  0.00  0.00    +0.000 N 
ATOM      9  C   UNL     1      -7.492  14.364  20.497  0.00  0.00    +0.000 C 
ATOM     10  C   UNL     1      -6.808  13.433  19.445  0.00  0.00    +0.000 C 
ATOM     11  N   UNL     1      -6.434  12.125  20.041  0.00  0.00    +0.000 N 
ATOM     12  C   UNL     1      -6.205  11.018  19.256  0.00  0.00    +0.000 C 
ATOM     13  N   UNL     1      -5.397  10.744  18.313  0.00  0.00    +0.000 NA
ATOM     14  C   UNL     1      -5.632  12.247  21.277  0.00  0.00    +0.000 C 
ATOM     15  C   UNL     1      -6.360  13.155  22.294  0.00  0.00    +0.000 C 
ATOM     16  C   UNL     1      -5.280  15.918  23.063  0.00  0.00    +0.000 A 
ATOM     17  C   UNL     1      -4.097  15.168  22.908  0.00  0.00    +0.000 A 
ATOM     18  C   UNL     1      -2.974  15.352  23.703  0.00  0.00    +0.000 A 
ENDROOT
BRANCH   1  20
ATOM     19  C   UNL     1      -0.886  17.445  24.941  0.00  0.00    +0.000 C 
ATOM     20  O   UNL     1      -1.909  16.582  25.435  0.00  0.00    +0.000 OA
ENDBRANCH   1  20
BRANCH  12  21
ATOM     21  S   UNL     1      -7.256   9.669  19.708  0.00  0.00    +0.000 S 
ATOM     22  H   UNL     1      -6.347   9.066  20.480  0.00  0.00    +0.000 HD
ENDBRANCH  12  21
BRANCH  13  23
ATOM     23  C   UNL     1      -4.379  11.653  17.806  0.00  0.00    +0.000 C 
ATOM     24  C   UNL     1      -4.329  11.474  16.285  0.00  0.00    +0.000 C 
BRANCH  23  25
ATOM     25  C   UNL     1      -2.997  11.351  18.386  0.00  0.00    +0.000 A 
ATOM     26  C   UNL     1      -2.498  12.122  19.449  0.00  0.00    +0.000 A 
ATOM     27  C   UNL     1      -1.211  11.902  19.948  0.00  0.00    +0.000 A 
ATOM     28  C   UNL     1      -0.400  10.915  19.388  0.00  0.00    +0.000 A 
ATOM     29  C   UNL     1      -0.876  10.149  18.327  0.00  0.00    +0.000 A 
ATOM     30  C   UNL     1      -2.164  10.371  17.827  0.00  0.00    +0.000 A 
ENDBRANCH  23  25
ENDBRANCH  13  23
BRANCH  18  31
ATOM     31  O   UNL     1      -2.043  14.391  23.449  0.00  0.00    +0.000 OA
ATOM     32  C   UNL     1      -2.434  13.041  23.309  0.00  0.00    +0.000 C 
ENDBRANCH  18  31
TORSDOF 5
ENDMDL
MODEL 9
REMARK VINA RESULT:      -5.7      5.138      6.194
REMARK  Name = 
REMARK  8 active torsions:
REMARK  status: ('A' for Active; 'I' for Inactive)
REMARK    1  A    between atoms: C_1  and  O_2
REMARK    2  A    between atoms: O_2  and  C_3
REMARK    3  A    between atoms: C_14  and  S_15
REMARK    4  A    between atoms: N_16  and  C_17
REMARK    5  A    between atoms: C_17  and  C_18
REMARK    6  A    between atoms: C_17  and  C_19
REMARK    7  A    between atoms: C_29  and  O_30
REMARK    8  A    between atoms: O_30  and  C_31
REMARK                            x       y       z     vdW  Elec       q    Type
REMARK                         _______ _______ _______ _____ _____    ______ ____
ROOT
ATOM      1  C   UNL     1       4.186  15.344  18.329  0.00  0.00    +0.000 A 
ATOM      2  C   UNL     1       4.237  16.628  18.915  0.00  0.00    +0.000 A 
ATOM      3  C   UNL     1       3.276  17.081  19.823  0.00  0.00    +0.000 A 
ATOM      4  N   UNL     1       3.412  18.274  20.415  0.00  0.00    +0.000 NA
ATOM      5  C   UNL     1       2.457  18.612  21.300  0.00  0.00    +0.000 A 
ATOM      6  N   UNL     1       1.398  17.875  21.665  0.00  0.00    +0.000 NA
ATOM      7  C   UNL     1       1.287  16.673  21.089  0.00  0.00    +0.000 A 
ATOM      8  N   UNL     1       0.253  15.826  21.466  0.00  0.00    +0.000 N 
ATOM      9  C   UNL     1      -1.020  16.344  21.974  0.00  0.00    +0.000 C 
ATOM     10  C   UNL     1      -2.141  15.364  21.505  0.00  0.00    +0.000 C 
ATOM     11  N   UNL     1      -1.844  13.966  21.911  0.00  0.00    +0.000 N 
ATOM     12  C   UNL     1      -2.834  13.013  21.982  0.00  0.00    +0.000 C 
ATOM     13  N   UNL     1      -3.663  12.524  21.151  0.00  0.00    +0.000 NA
ATOM     14  C   UNL     1      -0.499  13.506  21.503  0.00  0.00    +0.000 C 
ATOM     15  C   UNL     1       0.576  14.493  22.011  0.00  0.00    +0.000 C 
ATOM     16  C   UNL     1       2.196  16.251  20.093  0.00  0.00    +0.000 A 
ATOM     17  C   UNL     1       2.059  15.056  19.359  0.00  0.00    +0.000 A 
ATOM     18  C   UNL     1       3.055  14.560  18.529  0.00  0.00    +0.000 A 
ENDROOT
BRANCH   1  20
ATOM     19  C   UNL     1       6.519  15.226  17.947  0.00  0.00    +0.000 C 
ATOM     20  O   UNL     1       5.199  14.859  17.548  0.00  0.00    +0.000 OA
ENDBRANCH   1  20
BRANCH  12  21
ATOM     21  S   UNL     1      -2.928  12.286  23.592  0.00  0.00    +0.000 S 
ATOM     22  H   UNL     1      -4.158  12.738  23.853  0.00  0.00    +0.000 HD
ENDBRANCH  12  21
BRANCH  13  23
ATOM     23  C   UNL     1      -3.740  12.893  19.745  0.00  0.00    +0.000 C 
ATOM     24  C   UNL     1      -5.224  13.054  19.399  0.00  0.00    +0.000 C 
BRANCH  23  25
ATOM     25  C   UNL     1      -3.132  11.826  18.834  0.00  0.00    +0.000 A 
ATOM     26  C   UNL     1      -3.914  11.230  17.832  0.00  0.00    +0.000 A 
ATOM     27  C   UNL     1      -3.393  10.207  17.033  0.00  0.00    +0.000 A 
ATOM     28  C   UNL     1      -2.086   9.760  17.229  0.00  0.00    +0.000 A 
ATOM     29  C   UNL     1      -1.302  10.334  18.226  0.00  0.00    +0.000 A 
ATOM     30  C   UNL     1      -1.824  11.357  19.026  0.00  0.00    +0.000 A 
ENDBRANCH  23  25
ENDBRANCH  13  23
BRANCH  18  31
ATOM     31  O   UNL     1       2.728  13.317  18.076  0.00  0.00    +0.000 OA
ATOM     32  C   UNL     1       1.592  12.650  18.587  0.00  0.00    +0.000 C 
ENDBRANCH  18  31
TORSDOF 5
ENDMDL
