MODEL 1
REMARK VINA RESULT:      -8.8      0.000      0.000
REMARK  Name = 
REMARK  10 active torsions:
REMARK  status: ('A' for Active; 'I' for Inactive)
REMARK    1  A    between atoms: C_1  and  O_2
REMARK    2  A    between atoms: O_2  and  C_3
REMARK    3  A    between atoms: C_7  and  C_8
REMARK    4  A    between atoms: N_11  and  C_12
REMARK    5  A    between atoms: C_12  and  C_13
REMARK    6  A    between atoms: C_12  and  C_14
REMARK    7  A    between atoms: C_18  and  C_19
REMARK    8  A    between atoms: C_26  and  O_27
REMARK    9  A    between atoms: O_27  and  C_28
REMARK   10  A    between atoms: C_32  and  C_33
REMARK                            x       y       z     vdW  Elec       q    Type
REMARK                         _______ _______ _______ _____ _____    ______ ____
ROOT
ATOM      1  C   UNL     1       1.960   6.396  20.153  0.00  0.00    +0.000 A 
ATOM      2  C   UNL     1       1.282   7.067  21.174  0.00  0.00    +0.000 A 
ATOM      3  C   UNL     1       0.843   8.372  21.027  0.00  0.00    +0.000 A 
ATOM      4  N   UNL     1       0.230   8.943  22.060  0.00  0.00    +0.000 NA
ATOM      5  C   UNL     1      -0.217  10.197  21.896  0.00  0.00    +0.000 A 
ATOM      6  C   UNL     1      -0.826  10.859  23.091  0.00  0.00    +0.000 C 
ATOM      7  N   UNL     1      -0.116  10.903  20.757  0.00  0.00    +0.000 NA
ATOM      8  C   UNL     1       0.497  10.310  19.718  0.00  0.00    +0.000 A 
ATOM      9  N   UNL     1       0.624  11.001  18.499  0.00  0.00    +0.000 N 
ATOM     10  C   UNL     1       1.052   9.019  19.809  0.00  0.00    +0.000 A 
ATOM     11  C   UNL     1       1.755   8.354  18.769  0.00  0.00    +0.000 A 
ATOM     12  C   UNL     1       2.257   7.068  18.958  0.00  0.00    +0.000 A 
ATOM     13  H   UNL     1       1.598  11.275  18.401  0.00  0.00    +0.000 HD
ENDROOT
BRANCH   1  15
ATOM     14  C   UNL     1       1.381   4.121  20.449  0.00  0.00    +0.000 C 
ATOM     15  O   UNL     1       2.403   5.100  20.276  0.00  0.00    +0.000 OA
ENDBRANCH   1  15
BRANCH   9  16
ATOM     16  C   UNL     1      -0.271  12.130  18.249  0.00  0.00    +0.000 C 
ATOM     17  C   UNL     1      -0.228  13.151  19.396  0.00  0.00    +0.000 C 
BRANCH  16  18
ATOM     18  C   UNL     1      -1.689  11.569  18.126  0.00  0.00    +0.000 A 
ATOM     19  C   UNL     1      -1.964  10.529  17.227  0.00  0.00    +0.000 A 
ATOM     20  C   UNL     1      -3.266  10.047  17.075  0.00  0.00    +0.000 A 
ATOM     21  C   UNL     1      -4.314  10.603  17.810  0.00  0.00    +0.000 A 
ATOM     22  C   UNL     1      -4.070  11.640  18.720  0.00  0.00    +0.000 A 
ATOM     23  C   UNL     1      -2.751  12.097  18.886  0.00  0.00    +0.000 A 
BRANCH  22  24
ATOM     24  C   UNL     1      -5.194  12.278  19.497  0.00  0.00    +0.000 C 
ATOM     25  F   UNL     1      -5.643  13.444  18.952  0.00  0.00    +0.000 F 
ATOM     26  F   UNL     1      -6.286  11.470  19.599  0.00  0.00    +0.000 F 
ATOM     27  F   UNL     1      -4.836  12.583  20.777  0.00  0.00    +0.000 F 
ENDBRANCH  22  24
ENDBRANCH  16  18
ENDBRANCH   9  16
BRANCH  12  28
ATOM     28  O   UNL     1       3.004   6.384  18.040  0.00  0.00    +0.000 OA
BRANCH  28  29
ATOM     29  C   UNL     1       4.399   6.661  17.911  0.00  0.00    +0.000 C 
ATOM     30  C   UNL     1       5.295   5.854  18.862  0.00  0.00    +0.000 C 
ATOM     31  C   UNL     1       6.594   5.709  18.091  0.00  0.00    +0.000 C 
ATOM     32  N   UNL     1       6.157   5.539  16.723  0.00  0.00    +0.000 N 
ATOM     33  C   UNL     1       6.893   4.814  15.819  0.00  0.00    +0.000 C 
ATOM     34  C   UNL     1       6.323   4.613  14.437  0.00  0.00    +0.000 C 
ATOM     35  O   UNL     1       7.979   4.311  16.112  0.00  0.00    +0.000 OA
ATOM     36  C   UNL     1       4.853   6.159  16.524  0.00  0.00    +0.000 C 
ENDBRANCH  28  29
ENDBRANCH  12  28
TORSDOF 6
ENDMDL
MODEL 2
REMARK VINA RESULT:      -8.7      5.022      9.244
REMARK  Name = 
REMARK  10 active torsions:
REMARK  status: ('A' for Active; 'I' for Inactive)
REMARK    1  A    between atoms: C_1  and  O_2
REMARK    2  A    between atoms: O_2  and  C_3
REMARK    3  A    between atoms: C_7  and  C_8
REMARK    4  A    between atoms: N_11  and  C_12
REMARK    5  A    between atoms: C_12  and  C_13
REMARK    6  A    between atoms: C_12  and  C_14
REMARK    7  A    between atoms: C_18  and  C_19
REMARK    8  A    between atoms: C_26  and  O_27
REMARK    9  A    between atoms: O_27  and  C_28
REMARK   10  A    between atoms: C_32  and  C_33
REMARK                            x       y       z     vdW  Elec       q    Type
REMARK                         _______ _______ _______ _____ _____    ______ ____
ROOT
ATOM      1  C   UNL     1      -3.489  10.566  16.430  0.00  0.00    +0.000 A 
ATOM      2  C   UNL     1      -2.239   9.968  16.605  0.00  0.00    +0.000 A 
ATOM      3  C   UNL     1      -1.425  10.271  17.684  0.00  0.00    +0.000 A 
ATOM      4  N   UNL     1      -0.240   9.674  17.757  0.00  0.00    +0.000 NA
ATOM      5  C   UNL     1       0.528   9.953  18.821  0.00  0.00    +0.000 A 
ATOM      6  C   UNL     1       1.894   9.345  18.849  0.00  0.00    +0.000 C 
ATOM      7  N   UNL     1       0.171  10.767  19.829  0.00  0.00    +0.000 NA
ATOM      8  C   UNL     1      -1.034  11.357  19.747  0.00  0.00    +0.000 A 
ATOM      9  N   UNL     1      -1.461  12.213  20.779  0.00  0.00    +0.000 N 
ATOM     10  C   UNL     1      -1.888  11.173  18.642  0.00  0.00    +0.000 A 
ATOM     11  C   UNL     1      -3.149  11.803  18.468  0.00  0.00    +0.000 A 
ATOM     12  C   UNL     1      -3.924  11.544  17.338  0.00  0.00    +0.000 A 
ATOM     13  H   UNL     1      -1.417  13.166  20.425  0.00  0.00    +0.000 HD
ENDROOT
BRANCH   1  15
ATOM     14  C   UNL     1      -3.649   9.992  14.141  0.00  0.00    +0.000 C 
ATOM     15  O   UNL     1      -4.315  10.279  15.369  0.00  0.00    +0.000 OA
ENDBRANCH   1  15
BRANCH   9  16
ATOM     16  C   UNL     1      -0.810  12.103  22.083  0.00  0.00    +0.000 C 
ATOM     17  C   UNL     1      -1.623  11.229  23.049  0.00  0.00    +0.000 C 
BRANCH  16  18
ATOM     18  C   UNL     1      -0.696  13.517  22.655  0.00  0.00    +0.000 A 
ATOM     19  C   UNL     1       0.168  14.452  22.069  0.00  0.00    +0.000 A 
ATOM     20  C   UNL     1       0.313  15.728  22.617  0.00  0.00    +0.000 A 
ATOM     21  C   UNL     1      -0.394  16.087  23.765  0.00  0.00    +0.000 A 
ATOM     22  C   UNL     1      -1.269  15.176  24.372  0.00  0.00    +0.000 A 
ATOM     23  C   UNL     1      -1.429  13.904  23.794  0.00  0.00    +0.000 A 
BRANCH  22  24
ATOM     24  C   UNL     1      -2.016  15.532  25.634  0.00  0.00    +0.000 C 
ATOM     25  F   UNL     1      -1.216  15.628  26.733  0.00  0.00    +0.000 F 
ATOM     26  F   UNL     1      -2.665  16.725  25.540  0.00  0.00    +0.000 F 
ATOM     27  F   UNL     1      -2.971  14.612  25.951  0.00  0.00    +0.000 F 
ENDBRANCH  22  24
ENDBRANCH  16  18
ENDBRANCH   9  16
BRANCH  12  28
ATOM     28  O   UNL     1      -5.113  12.157  17.056  0.00  0.00    +0.000 OA
BRANCH  28  29
ATOM     29  C   UNL     1      -6.257  11.896  17.871  0.00  0.00    +0.000 C 
ATOM     30  C   UNL     1      -6.230  10.536  18.582  0.00  0.00    +0.000 C 
ATOM     31  C   UNL     1      -7.014  10.784  19.857  0.00  0.00    +0.000 C 
ATOM     32  N   UNL     1      -6.634  12.129  20.230  0.00  0.00    +0.000 N 
ATOM     33  C   UNL     1      -6.614  12.532  21.542  0.00  0.00    +0.000 C 
ATOM     34  C   UNL     1      -6.123  13.925  21.850  0.00  0.00    +0.000 C 
ATOM     35  O   UNL     1      -6.960  11.788  22.461  0.00  0.00    +0.000 OA
ATOM     36  C   UNL     1      -6.227  12.887  19.054  0.00  0.00    +0.000 C 
ENDBRANCH  28  29
ENDBRANCH  12  28
TORSDOF 6
ENDMDL
MODEL 3
REMARK VINA RESULT:      -8.6      2.753      3.917
REMARK  Name = 
REMARK  10 active torsions:
REMARK  status: ('A' for Active; 'I' for Inactive)
REMARK    1  A    between atoms: C_1  and  O_2
REMARK    2  A    between atoms: O_2  and  C_3
REMARK    3  A    between atoms: C_7  and  C_8
REMARK    4  A    between atoms: N_11  and  C_12
REMARK    5  A    between atoms: C_12  and  C_13
REMARK    6  A    between atoms: C_12  and  C_14
REMARK    7  A    between atoms: C_18  and  C_19
REMARK    8  A    between atoms: C_26  and  O_27
REMARK    9  A    between atoms: O_27  and  C_28
REMARK   10  A    between atoms: C_32  and  C_33
REMARK                            x       y       z     vdW  Elec       q    Type
REMARK                         _______ _______ _______ _____ _____    ______ ____
ROOT
ATOM      1  C   UNL     1       1.971   6.318  19.811  0.00  0.00    +0.000 A 
ATOM      2  C   UNL     1       1.285   6.825  20.918  0.00  0.00    +0.000 A 
ATOM      3  C   UNL     1       0.906   8.154  21.000  0.00  0.00    +0.000 A 
ATOM      4  N   UNL     1       0.280   8.557  22.101  0.00  0.00    +0.000 NA
ATOM      5  C   UNL     1      -0.108   9.840  22.158  0.00  0.00    +0.000 A 
ATOM      6  C   UNL     1      -0.732  10.303  23.436  0.00  0.00    +0.000 C 
ATOM      7  N   UNL     1       0.064  10.735  21.170  0.00  0.00    +0.000 NA
ATOM      8  C   UNL     1       0.691  10.312  20.059  0.00  0.00    +0.000 A 
ATOM      9  N   UNL     1       0.891  11.206  18.990  0.00  0.00    +0.000 N 
ATOM     10  C   UNL     1       1.186   9.001  19.927  0.00  0.00    +0.000 A 
ATOM     11  C   UNL     1       1.899   8.503  18.804  0.00  0.00    +0.000 A 
ATOM     12  C   UNL     1       2.340   7.181  18.768  0.00  0.00    +0.000 A 
ATOM     13  H   UNL     1       1.879  11.446  18.972  0.00  0.00    +0.000 HD
ENDROOT
BRANCH   1  15
ATOM     14  C   UNL     1       2.325   4.261  20.925  0.00  0.00    +0.000 C 
ATOM     15  O   UNL     1       2.354   5.002  19.707  0.00  0.00    +0.000 OA
ENDBRANCH   1  15
BRANCH   9  16
ATOM     16  C   UNL     1       0.054  12.404  18.926  0.00  0.00    +0.000 C 
ATOM     17  C   UNL     1      -0.998  12.300  17.812  0.00  0.00    +0.000 C 
BRANCH  16  18
ATOM     18  C   UNL     1       0.979  13.588  18.637  0.00  0.00    +0.000 A 
ATOM     19  C   UNL     1       2.334  13.377  18.351  0.00  0.00    +0.000 A 
ATOM     20  C   UNL     1       3.193  14.457  18.136  0.00  0.00    +0.000 A 
ATOM     21  C   UNL     1       2.713  15.765  18.213  0.00  0.00    +0.000 A 
ATOM     22  C   UNL     1       1.361  16.009  18.491  0.00  0.00    +0.000 A 
ATOM     23  C   UNL     1       0.501  14.913  18.678  0.00  0.00    +0.000 A 
BRANCH  22  24
ATOM     24  C   UNL     1       0.831  17.416  18.615  0.00  0.00    +0.000 C 
ATOM     25  F   UNL     1      -0.510  17.516  18.387  0.00  0.00    +0.000 F 
ATOM     26  F   UNL     1       1.039  17.949  19.851  0.00  0.00    +0.000 F 
ATOM     27  F   UNL     1       1.420  18.274  17.734  0.00  0.00    +0.000 F 
ENDBRANCH  22  24
ENDBRANCH  16  18
ENDBRANCH   9  16
BRANCH  12  28
ATOM     28  O   UNL     1       3.091   6.640  17.762  0.00  0.00    +0.000 OA
BRANCH  28  29
ATOM     29  C   UNL     1       4.506   6.833  17.749  0.00  0.00    +0.000 C 
ATOM     30  C   UNL     1       5.258   6.063  18.844  0.00  0.00    +0.000 C 
ATOM     31  C   UNL     1       6.613   5.787  18.219  0.00  0.00    +0.000 C 
ATOM     32  N   UNL     1       6.297   5.526  16.832  0.00  0.00    +0.000 N 
ATOM     33  C   UNL     1       7.070   4.690  16.064  0.00  0.00    +0.000 C 
ATOM     34  C   UNL     1       6.621   4.404  14.653  0.00  0.00    +0.000 C 
ATOM     35  O   UNL     1       8.092   4.158  16.502  0.00  0.00    +0.000 OA
ATOM     36  C   UNL     1       5.057   6.193  16.458  0.00  0.00    +0.000 C 
ENDBRANCH  28  29
ENDBRANCH  12  28
TORSDOF 6
ENDMDL
MODEL 4
REMARK VINA RESULT:      -8.6      5.486      9.800
REMARK  Name = 
REMARK  10 active torsions:
REMARK  status: ('A' for Active; 'I' for Inactive)
REMARK    1  A    between atoms: C_1  and  O_2
REMARK    2  A    between atoms: O_2  and  C_3
REMARK    3  A    between atoms: C_7  and  C_8
REMARK    4  A    between atoms: N_11  and  C_12
REMARK    5  A    between atoms: C_12  and  C_13
REMARK    6  A    between atoms: C_12  and  C_14
REMARK    7  A    between atoms: C_18  and  C_19
REMARK    8  A    between atoms: C_26  and  O_27
REMARK    9  A    between atoms: O_27  and  C_28
REMARK   10  A    between atoms: C_32  and  C_33
REMARK                            x       y       z     vdW  Elec       q    Type
REMARK                         _______ _______ _______ _____ _____    ______ ____
ROOT
ATOM      1  C   UNL     1       1.481   8.521  20.462  0.00  0.00    +0.000 A 
ATOM      2  C   UNL     1       1.304   7.282  21.083  0.00  0.00    +0.000 A 
ATOM      3  C   UNL     1       1.663   6.095  20.467  0.00  0.00    +0.000 A 
ATOM      4  N   UNL     1       1.435   4.960  21.120  0.00  0.00    +0.000 NA
ATOM      5  C   UNL     1       1.813   3.818  20.526  0.00  0.00    +0.000 A 
ATOM      6  C   UNL     1       1.472   2.543  21.231  0.00  0.00    +0.000 C 
ATOM      7  N   UNL     1       2.432   3.744  19.336  0.00  0.00    +0.000 NA
ATOM      8  C   UNL     1       2.665   4.900  18.690  0.00  0.00    +0.000 A 
ATOM      9  N   UNL     1       3.316   4.881  17.443  0.00  0.00    +0.000 N 
ATOM     10  C   UNL     1       2.254   6.145  19.204  0.00  0.00    +0.000 A 
ATOM     11  C   UNL     1       2.423   7.396  18.553  0.00  0.00    +0.000 A 
ATOM     12  C   UNL     1       1.988   8.576  19.154  0.00  0.00    +0.000 A 
ATOM     13  H   UNL     1       2.621   5.088  16.730  0.00  0.00    +0.000 HD
ENDROOT
BRANCH   1  15
ATOM     14  C   UNL     1      -0.043   9.671  21.858  0.00  0.00    +0.000 C 
ATOM     15  O   UNL     1       1.135   9.712  21.055  0.00  0.00    +0.000 OA
ENDBRANCH   1  15
BRANCH   9  16
ATOM     16  C   UNL     1       4.098   3.697  17.090  0.00  0.00    +0.000 C 
ATOM     17  C   UNL     1       4.755   3.064  18.325  0.00  0.00    +0.000 C 
BRANCH  16  18
ATOM     18  C   UNL     1       5.188   4.146  16.114  0.00  0.00    +0.000 A 
ATOM     19  C   UNL     1       6.147   5.089  16.507  0.00  0.00    +0.000 A 
ATOM     20  C   UNL     1       7.113   5.539  15.605  0.00  0.00    +0.000 A 
ATOM     21  C   UNL     1       7.130   5.062  14.293  0.00  0.00    +0.000 A 
ATOM     22  C   UNL     1       6.187   4.116  13.872  0.00  0.00    +0.000 A 
ATOM     23  C   UNL     1       5.237   3.649  14.797  0.00  0.00    +0.000 A 
BRANCH  22  24
ATOM     24  C   UNL     1       6.166   3.615  12.448  0.00  0.00    +0.000 C 
ATOM     25  F   UNL     1       6.603   2.331  12.314  0.00  0.00    +0.000 F 
ATOM     26  F   UNL     1       4.919   3.643  11.902  0.00  0.00    +0.000 F 
ATOM     27  F   UNL     1       6.952   4.361  11.622  0.00  0.00    +0.000 F 
ENDBRANCH  22  24
ENDBRANCH  16  18
ENDBRANCH   9  16
BRANCH  12  28
ATOM     28  O   UNL     1       2.046   9.811  18.572  0.00  0.00    +0.000 OA
BRANCH  28  29
ATOM     29  C   UNL     1       0.909  10.322  17.875  0.00  0.00    +0.000 C 
ATOM     30  C   UNL     1      -0.314   9.393  17.893  0.00  0.00    +0.000 C 
ATOM     31  C   UNL     1      -1.489  10.350  17.828  0.00  0.00    +0.000 C 
ATOM     32  N   UNL     1      -1.057  11.471  18.633  0.00  0.00    +0.000 N 
ATOM     33  C   UNL     1      -1.954  12.251  19.318  0.00  0.00    +0.000 C 
ATOM     34  C   UNL     1      -1.413  13.347  20.203  0.00  0.00    +0.000 C 
ATOM     35  O   UNL     1      -3.171  12.067  19.247  0.00  0.00    +0.000 OA
ATOM     36  C   UNL     1       0.398  11.556  18.648  0.00  0.00    +0.000 C 
ENDBRANCH  28  29
ENDBRANCH  12  28
TORSDOF 6
ENDMDL
MODEL 5
REMARK VINA RESULT:      -8.6      5.702      8.684
REMARK  Name = 
REMARK  10 active torsions:
REMARK  status: ('A' for Active; 'I' for Inactive)
REMARK    1  A    between atoms: C_1  and  O_2
REMARK    2  A    between atoms: O_2  and  C_3
REMARK    3  A    between atoms: C_7  and  C_8
REMARK    4  A    between atoms: N_11  and  C_12
REMARK    5  A    between atoms: C_12  and  C_13
REMARK    6  A    between atoms: C_12  and  C_14
REMARK    7  A    between atoms: C_18  and  C_19
REMARK    8  A    between atoms: C_26  and  O_27
REMARK    9  A    between atoms: O_27  and  C_28
REMARK   10  A    between atoms: C_32  and  C_33
REMARK                            x       y       z     vdW  Elec       q    Type
REMARK                         _______ _______ _______ _____ _____    ______ ____
ROOT
ATOM      1  C   UNL     1       0.720  14.766  19.179  0.00  0.00    +0.000 A 
ATOM      2  C   UNL     1      -0.391  14.098  18.658  0.00  0.00    +0.000 A 
ATOM      3  C   UNL     1      -0.420  12.720  18.522  0.00  0.00    +0.000 A 
ATOM      4  N   UNL     1      -1.507  12.169  17.992  0.00  0.00    +0.000 NA
ATOM      5  C   UNL     1      -1.536  10.831  17.892  0.00  0.00    +0.000 A 
ATOM      6  C   UNL     1      -2.726  10.228  17.214  0.00  0.00    +0.000 C 
ATOM      7  N   UNL     1      -0.559  10.011  18.316  0.00  0.00    +0.000 NA
ATOM      8  C   UNL     1       0.531  10.582  18.858  0.00  0.00    +0.000 A 
ATOM      9  N   UNL     1       1.581   9.769  19.325  0.00  0.00    +0.000 N 
ATOM     10  C   UNL     1       0.680  11.978  18.954  0.00  0.00    +0.000 A 
ATOM     11  C   UNL     1       1.823  12.647  19.468  0.00  0.00    +0.000 A 
ATOM     12  C   UNL     1       1.867  14.039  19.529  0.00  0.00    +0.000 A 
ATOM     13  H   UNL     1       2.353   9.859  18.670  0.00  0.00    +0.000 HD
ENDROOT
BRANCH   1  15
ATOM     14  C   UNL     1      -0.159  16.864  18.527  0.00  0.00    +0.000 C 
ATOM     15  O   UNL     1       0.769  16.133  19.325  0.00  0.00    +0.000 OA
ENDBRANCH   1  15
BRANCH   9  16
ATOM     16  C   UNL     1       1.293   8.365  19.614  0.00  0.00    +0.000 C 
ATOM     17  C   UNL     1       1.328   8.079  21.122  0.00  0.00    +0.000 C 
BRANCH  16  18
ATOM     18  C   UNL     1       2.367   7.528  18.917  0.00  0.00    +0.000 A 
ATOM     19  C   UNL     1       3.055   8.039  17.807  0.00  0.00    +0.000 A 
ATOM     20  C   UNL     1       4.001   7.261  17.137  0.00  0.00    +0.000 A 
ATOM     21  C   UNL     1       4.267   5.957  17.558  0.00  0.00    +0.000 A 
ATOM     22  C   UNL     1       3.600   5.420  18.667  0.00  0.00    +0.000 A 
ATOM     23  C   UNL     1       2.670   6.223  19.351  0.00  0.00    +0.000 A 
BRANCH  22  24
ATOM     24  C   UNL     1       3.847   4.001  19.116  0.00  0.00    +0.000 C 
ATOM     25  F   UNL     1       5.086   3.805  19.651  0.00  0.00    +0.000 F 
ATOM     26  F   UNL     1       2.962   3.590  20.065  0.00  0.00    +0.000 F 
ATOM     27  F   UNL     1       3.741   3.105  18.094  0.00  0.00    +0.000 F 
ENDBRANCH  22  24
ENDBRANCH  16  18
ENDBRANCH   9  16
BRANCH  12  28
ATOM     28  O   UNL     1       2.950  14.764  19.942  0.00  0.00    +0.000 OA
BRANCH  28  29
ATOM     29  C   UNL     1       3.680  15.550  18.999  0.00  0.00    +0.000 C 
ATOM     30  C   UNL     1       4.553  16.644  19.630  0.00  0.00    +0.000 C 
ATOM     31  C   UNL     1       5.708  16.784  18.656  0.00  0.00    +0.000 C 
ATOM     32  N   UNL     1       5.945  15.426  18.218  0.00  0.00    +0.000 N 
ATOM     33  C   UNL     1       7.193  15.003  17.833  0.00  0.00    +0.000 C 
ATOM     34  C   UNL     1       7.372  13.549  17.473  0.00  0.00    +0.000 C 
ATOM     35  O   UNL     1       8.161  15.765  17.798  0.00  0.00    +0.000 OA
ATOM     36  C   UNL     1       4.728  14.633  18.334  0.00  0.00    +0.000 C 
ENDBRANCH  28  29
ENDBRANCH  12  28
TORSDOF 6
ENDMDL
MODEL 6
REMARK VINA RESULT:      -8.5      1.486      1.987
REMARK  Name = 
REMARK  10 active torsions:
REMARK  status: ('A' for Active; 'I' for Inactive)
REMARK    1  A    between atoms: C_1  and  O_2
REMARK    2  A    between atoms: O_2  and  C_3
REMARK    3  A    between atoms: C_7  and  C_8
REMARK    4  A    between atoms: N_11  and  C_12
REMARK    5  A    between atoms: C_12  and  C_13
REMARK    6  A    between atoms: C_12  and  C_14
REMARK    7  A    between atoms: C_18  and  C_19
REMARK    8  A    between atoms: C_26  and  O_27
REMARK    9  A    between atoms: O_27  and  C_28
REMARK   10  A    between atoms: C_32  and  C_33
REMARK                            x       y       z     vdW  Elec       q    Type
REMARK                         _______ _______ _______ _____ _____    ______ ____
ROOT
ATOM      1  C   UNL     1       1.774   6.268  19.825  0.00  0.00    +0.000 A 
ATOM      2  C   UNL     1       1.069   6.853  20.880  0.00  0.00    +0.000 A 
ATOM      3  C   UNL     1       0.851   8.220  20.947  0.00  0.00    +0.000 A 
ATOM      4  N   UNL     1       0.193   8.694  21.999  0.00  0.00    +0.000 NA
ATOM      5  C   UNL     1      -0.038  10.015  22.040  0.00  0.00    +0.000 A 
ATOM      6  C   UNL     1      -0.701  10.550  23.269  0.00  0.00    +0.000 C 
ATOM      7  N   UNL     1       0.323  10.884  21.080  0.00  0.00    +0.000 NA
ATOM      8  C   UNL     1       0.980  10.389  20.017  0.00  0.00    +0.000 A 
ATOM      9  N   UNL     1       1.375  11.253  18.979  0.00  0.00    +0.000 N 
ATOM     10  C   UNL     1       1.320   9.027  19.910  0.00  0.00    +0.000 A 
ATOM     11  C   UNL     1       2.055   8.447  18.842  0.00  0.00    +0.000 A 
ATOM     12  C   UNL     1       2.330   7.081  18.826  0.00  0.00    +0.000 A 
ATOM     13  H   UNL     1       2.383  11.369  19.042  0.00  0.00    +0.000 HD
ENDROOT
BRANCH   1  15
ATOM     14  C   UNL     1       0.997   4.090  20.326  0.00  0.00    +0.000 C 
ATOM     15  O   UNL     1       2.000   4.914  19.737  0.00  0.00    +0.000 OA
ENDBRANCH   1  15
BRANCH   9  16
ATOM     16  C   UNL     1       0.701  12.545  18.862  0.00  0.00    +0.000 C 
ATOM     17  C   UNL     1       1.025  13.462  20.050  0.00  0.00    +0.000 C 
BRANCH  16  18
ATOM     18  C   UNL     1      -0.804  12.272  18.831  0.00  0.00    +0.000 A 
ATOM     19  C   UNL     1      -1.660  12.914  19.737  0.00  0.00    +0.000 A 
ATOM     20  C   UNL     1      -3.027  12.631  19.746  0.00  0.00    +0.000 A 
ATOM     21  C   UNL     1      -3.560  11.695  18.859  0.00  0.00    +0.000 A 
ATOM     22  C   UNL     1      -2.731  11.040  17.938  0.00  0.00    +0.000 A 
ATOM     23  C   UNL     1      -1.360  11.355  17.919  0.00  0.00    +0.000 A 
BRANCH  22  24
ATOM     24  C   UNL     1      -3.281   9.999  16.995  0.00  0.00    +0.000 C 
ATOM     25  F   UNL     1      -3.808   8.913  17.627  0.00  0.00    +0.000 F 
ATOM     26  F   UNL     1      -4.273  10.485  16.198  0.00  0.00    +0.000 F 
ATOM     27  F   UNL     1      -2.331   9.508  16.149  0.00  0.00    +0.000 F 
ENDBRANCH  22  24
ENDBRANCH  16  18
ENDBRANCH   9  16
BRANCH  12  28
ATOM     28  O   UNL     1       3.088   6.452  17.877  0.00  0.00    +0.000 OA
BRANCH  28  29
ATOM     29  C   UNL     1       4.500   6.666  17.840  0.00  0.00    +0.000 C 
ATOM     30  C   UNL     1       5.291   5.839  18.863  0.00  0.00    +0.000 C 
ATOM     31  C   UNL     1       6.632   5.622  18.186  0.00  0.00    +0.000 C 
ATOM     32  N   UNL     1       6.281   5.445  16.794  0.00  0.00    +0.000 N 
ATOM     33  C   UNL     1       7.043   4.671  15.954  0.00  0.00    +0.000 C 
ATOM     34  C   UNL     1       6.560   4.469  14.540  0.00  0.00    +0.000 C 
ATOM     35  O   UNL     1       8.084   4.127  16.330  0.00  0.00    +0.000 OA
ATOM     36  C   UNL     1       5.024   6.117  16.495  0.00  0.00    +0.000 C 
ENDBRANCH  28  29
ENDBRANCH  12  28
TORSDOF 6
ENDMDL
MODEL 7
REMARK VINA RESULT:      -8.5      5.290      9.925
REMARK  Name = 
REMARK  10 active torsions:
REMARK  status: ('A' for Active; 'I' for Inactive)
REMARK    1  A    between atoms: C_1  and  O_2
REMARK    2  A    between atoms: O_2  and  C_3
REMARK    3  A    between atoms: C_7  and  C_8
REMARK    4  A    between atoms: N_11  and  C_12
REMARK    5  A    between atoms: C_12  and  C_13
REMARK    6  A    between atoms: C_12  and  C_14
REMARK    7  A    between atoms: C_18  and  C_19
REMARK    8  A    between atoms: C_26  and  O_27
REMARK    9  A    between atoms: O_27  and  C_28
REMARK   10  A    between atoms: C_32  and  C_33
REMARK                            x       y       z     vdW  Elec       q    Type
REMARK                         _______ _______ _______ _____ _____    ______ ____
ROOT
ATOM      1  C   UNL     1       1.945   7.729  19.531  0.00  0.00    +0.000 A 
ATOM      2  C   UNL     1       2.205   6.494  20.132  0.00  0.00    +0.000 A 
ATOM      3  C   UNL     1       3.006   5.539  19.529  0.00  0.00    +0.000 A 
ATOM      4  N   UNL     1       3.178   4.382  20.160  0.00  0.00    +0.000 NA
ATOM      5  C   UNL     1       3.980   3.476  19.581  0.00  0.00    +0.000 A 
ATOM      6  C   UNL     1       4.097   2.146  20.255  0.00  0.00    +0.000 C 
ATOM      7  N   UNL     1       4.642   3.667  18.427  0.00  0.00    +0.000 NA
ATOM      8  C   UNL     1       4.466   4.846  17.804  0.00  0.00    +0.000 A 
ATOM      9  N   UNL     1       5.142   5.102  16.596  0.00  0.00    +0.000 N 
ATOM     10  C   UNL     1       3.601   5.838  18.302  0.00  0.00    +0.000 A 
ATOM     11  C   UNL     1       3.330   7.081  17.672  0.00  0.00    +0.000 A 
ATOM     12  C   UNL     1       2.462   8.002  18.255  0.00  0.00    +0.000 A 
ATOM     13  H   UNL     1       4.456   5.059  15.846  0.00  0.00    +0.000 HD
ENDROOT
BRANCH   1  15
ATOM     14  C   UNL     1       0.713   8.400  21.436  0.00  0.00    +0.000 C 
ATOM     15  O   UNL     1       1.155   8.692  20.112  0.00  0.00    +0.000 OA
ENDBRANCH   1  15
BRANCH   9  16
ATOM     16  C   UNL     1       6.321   4.298  16.280  0.00  0.00    +0.000 C 
ATOM     17  C   UNL     1       7.584   4.858  16.952  0.00  0.00    +0.000 C 
BRANCH  16  18
ATOM     18  C   UNL     1       6.501   4.331  14.761  0.00  0.00    +0.000 A 
ATOM     19  C   UNL     1       7.583   5.014  14.190  0.00  0.00    +0.000 A 
ATOM     20  C   UNL     1       7.724   5.090  12.803  0.00  0.00    +0.000 A 
ATOM     21  C   UNL     1       6.781   4.492  11.965  0.00  0.00    +0.000 A 
ATOM     22  C   UNL     1       5.692   3.798  12.506  0.00  0.00    +0.000 A 
ATOM     23  C   UNL     1       5.575   3.704  13.904  0.00  0.00    +0.000 A 
BRANCH  22  24
ATOM     24  C   UNL     1       4.642   3.176  11.617  0.00  0.00    +0.000 C 
ATOM     25  F   UNL     1       5.021   1.984  11.075  0.00  0.00    +0.000 F 
ATOM     26  F   UNL     1       3.476   2.931  12.276  0.00  0.00    +0.000 F 
ATOM     27  F   UNL     1       4.314   3.974  10.562  0.00  0.00    +0.000 F 
ENDBRANCH  22  24
ENDBRANCH  16  18
ENDBRANCH   9  16
BRANCH  12  28
ATOM     28  O   UNL     1       2.091   9.189  17.686  0.00  0.00    +0.000 OA
BRANCH  28  29
ATOM     29  C   UNL     1       2.151  10.393  18.451  0.00  0.00    +0.000 C 
ATOM     30  C   UNL     1       2.734  11.595  17.694  0.00  0.00    +0.000 C 
ATOM     31  C   UNL     1       2.032  12.786  18.321  0.00  0.00    +0.000 C 
ATOM     32  N   UNL     1       0.694  12.296  18.567  0.00  0.00    +0.000 N 
ATOM     33  C   UNL     1      -0.391  13.137  18.559  0.00  0.00    +0.000 C 
ATOM     34  C   UNL     1      -1.761  12.532  18.740  0.00  0.00    +0.000 C 
ATOM     35  O   UNL     1      -0.276  14.352  18.388  0.00  0.00    +0.000 OA
ATOM     36  C   UNL     1       0.702  10.848  18.727  0.00  0.00    +0.000 C 
ENDBRANCH  28  29
ENDBRANCH  12  28
TORSDOF 6
ENDMDL
MODEL 8
REMARK VINA RESULT:      -8.5      5.138      9.400
REMARK  Name = 
REMARK  10 active torsions:
REMARK  status: ('A' for Active; 'I' for Inactive)
REMARK    1  A    between atoms: C_1  and  O_2
REMARK    2  A    between atoms: O_2  and  C_3
REMARK    3  A    between atoms: C_7  and  C_8
REMARK    4  A    between atoms: N_11  and  C_12
REMARK    5  A    between atoms: C_12  and  C_13
REMARK    6  A    between atoms: C_12  and  C_14
REMARK    7  A    between atoms: C_18  and  C_19
REMARK    8  A    between atoms: C_26  and  O_27
REMARK    9  A    between atoms: O_27  and  C_28
REMARK   10  A    between atoms: C_32  and  C_33
REMARK                            x       y       z     vdW  Elec       q    Type
REMARK                         _______ _______ _______ _____ _____    ______ ____
ROOT
ATOM      1  C   UNL     1       1.006   8.770  20.311  0.00  0.00    +0.000 A 
ATOM      2  C   UNL     1       1.368   7.467  20.664  0.00  0.00    +0.000 A 
ATOM      3  C   UNL     1       2.167   6.682  19.849  0.00  0.00    +0.000 A 
ATOM      4  N   UNL     1       2.440   5.445  20.250  0.00  0.00    +0.000 NA
ATOM      5  C   UNL     1       3.239   4.704  19.467  0.00  0.00    +0.000 A 
ATOM      6  C   UNL     1       3.468   3.285  19.883  0.00  0.00    +0.000 C 
ATOM      7  N   UNL     1       3.804   5.134  18.326  0.00  0.00    +0.000 NA
ATOM      8  C   UNL     1       3.526   6.390  17.937  0.00  0.00    +0.000 A 
ATOM      9  N   UNL     1       4.097   6.894  16.753  0.00  0.00    +0.000 N 
ATOM     10  C   UNL     1       2.654   7.226  18.660  0.00  0.00    +0.000 A 
ATOM     11  C   UNL     1       2.278   8.542  18.281  0.00  0.00    +0.000 A 
ATOM     12  C   UNL     1       1.413   9.293  19.074  0.00  0.00    +0.000 A 
ATOM     13  H   UNL     1       3.361   6.943  16.054  0.00  0.00    +0.000 HD
ENDROOT
BRANCH   1  15
ATOM     14  C   UNL     1       0.367   9.368  22.509  0.00  0.00    +0.000 C 
ATOM     15  O   UNL     1       0.216   9.567  21.106  0.00  0.00    +0.000 OA
ENDBRANCH   1  15
BRANCH   9  16
ATOM     16  C   UNL     1       5.287   6.230  16.223  0.00  0.00    +0.000 C 
ATOM     17  C   UNL     1       5.097   4.708  16.144  0.00  0.00    +0.000 C 
BRANCH  16  18
ATOM     18  C   UNL     1       6.445   6.545  17.172  0.00  0.00    +0.000 A 
ATOM     19  C   UNL     1       6.957   5.554  18.019  0.00  0.00    +0.000 A 
ATOM     20  C   UNL     1       7.980   5.849  18.922  0.00  0.00    +0.000 A 
ATOM     21  C   UNL     1       8.501   7.142  19.000  0.00  0.00    +0.000 A 
ATOM     22  C   UNL     1       8.014   8.153  18.162  0.00  0.00    +0.000 A 
ATOM     23  C   UNL     1       7.003   7.837  17.237  0.00  0.00    +0.000 A 
BRANCH  22  24
ATOM     24  C   UNL     1       8.538   9.565  18.254  0.00  0.00    +0.000 C 
ATOM     25  F   UNL     1       8.978   9.904  19.499  0.00  0.00    +0.000 F 
ATOM     26  F   UNL     1       9.586   9.791  17.415  0.00  0.00    +0.000 F 
ATOM     27  F   UNL     1       7.594  10.494  17.931  0.00  0.00    +0.000 F 
ENDBRANCH  22  24
ENDBRANCH  16  18
ENDBRANCH   9  16
BRANCH  12  28
ATOM     28  O   UNL     1       0.945  10.536  18.752  0.00  0.00    +0.000 OA
BRANCH  28  29
ATOM     29  C   UNL     1       1.691  11.695  19.128  0.00  0.00    +0.000 C 
ATOM     30  C   UNL     1       2.433  12.374  17.968  0.00  0.00    +0.000 C 
ATOM     31  C   UNL     1       2.467  13.836  18.372  0.00  0.00    +0.000 C 
ATOM     32  N   UNL     1       1.185  14.038  19.011  0.00  0.00    +0.000 N 
ATOM     33  C   UNL     1       0.559  15.260  18.994  0.00  0.00    +0.000 C 
ATOM     34  C   UNL     1      -0.815  15.363  19.609  0.00  0.00    +0.000 C 
ATOM     35  O   UNL     1       1.074  16.252  18.475  0.00  0.00    +0.000 OA
ATOM     36  C   UNL     1       0.684  12.784  19.558  0.00  0.00    +0.000 C 
ENDBRANCH  28  29
ENDBRANCH  12  28
TORSDOF 6
ENDMDL
MODEL 9
REMARK VINA RESULT:      -8.5      5.790      9.043
REMARK  Name = 
REMARK  10 active torsions:
REMARK  status: ('A' for Active; 'I' for Inactive)
REMARK    1  A    between atoms: C_1  and  O_2
REMARK    2  A    between atoms: O_2  and  C_3
REMARK    3  A    between atoms: C_7  and  C_8
REMARK    4  A    between atoms: N_11  and  C_12
REMARK    5  A    between atoms: C_12  and  C_13
REMARK    6  A    between atoms: C_12  and  C_14
REMARK    7  A    between atoms: C_18  and  C_19
REMARK    8  A    between atoms: C_26  and  O_27
REMARK    9  A    between atoms: O_27  and  C_28
REMARK   10  A    between atoms: C_32  and  C_33
REMARK                            x       y       z     vdW  Elec       q    Type
REMARK                         _______ _______ _______ _____ _____    ______ ____
ROOT
ATOM      1  C   UNL     1       0.417  14.808  19.318  0.00  0.00    +0.000 A 
ATOM      2  C   UNL     1      -0.593  14.083  18.680  0.00  0.00    +0.000 A 
ATOM      3  C   UNL     1      -0.545  12.703  18.567  0.00  0.00    +0.000 A 
ATOM      4  N   UNL     1      -1.535  12.096  17.921  0.00  0.00    +0.000 NA
ATOM      5  C   UNL     1      -1.493  10.758  17.843  0.00  0.00    +0.000 A 
ATOM      6  C   UNL     1      -2.565  10.092  17.040  0.00  0.00    +0.000 C 
ATOM      7  N   UNL     1      -0.539   9.989  18.396  0.00  0.00    +0.000 NA
ATOM      8  C   UNL     1       0.451  10.615  19.054  0.00  0.00    +0.000 A 
ATOM      9  N   UNL     1       1.472   9.858  19.659  0.00  0.00    +0.000 N 
ATOM     10  C   UNL     1       0.527  12.018  19.142  0.00  0.00    +0.000 A 
ATOM     11  C   UNL     1       1.569  12.745  19.776  0.00  0.00    +0.000 A 
ATOM     12  C   UNL     1       1.545  14.138  19.817  0.00  0.00    +0.000 A 
ATOM     13  H   UNL     1       2.313   9.974  19.099  0.00  0.00    +0.000 HD
ENDROOT
BRANCH   1  15
ATOM     14  C   UNL     1      -0.160  16.880  18.331  0.00  0.00    +0.000 C 
ATOM     15  O   UNL     1       0.389  16.177  19.444  0.00  0.00    +0.000 OA
ENDBRANCH   1  15
BRANCH   9  16
ATOM     16  C   UNL     1       1.213   8.446  19.936  0.00  0.00    +0.000 C 
ATOM     17  C   UNL     1       1.353   8.129  21.433  0.00  0.00    +0.000 C 
BRANCH  16  18
ATOM     18  C   UNL     1       2.242   7.632  19.150  0.00  0.00    +0.000 A 
ATOM     19  C   UNL     1       2.763   8.122  17.945  0.00  0.00    +0.000 A 
ATOM     20  C   UNL     1       3.664   7.361  17.198  0.00  0.00    +0.000 A 
ATOM     21  C   UNL     1       4.052   6.095  17.638  0.00  0.00    +0.000 A 
ATOM     22  C   UNL     1       3.554   5.579  18.842  0.00  0.00    +0.000 A 
ATOM     23  C   UNL     1       2.668   6.367  19.599  0.00  0.00    +0.000 A 
BRANCH  22  24
ATOM     24  C   UNL     1       3.932   4.198  19.317  0.00  0.00    +0.000 C 
ATOM     25  F   UNL     1       5.221   4.104  19.751  0.00  0.00    +0.000 F 
ATOM     26  F   UNL     1       3.159   3.770  20.353  0.00  0.00    +0.000 F 
ATOM     27  F   UNL     1       3.802   3.257  18.340  0.00  0.00    +0.000 F 
ENDBRANCH  22  24
ENDBRANCH  16  18
ENDBRANCH   9  16
BRANCH  12  28
ATOM     28  O   UNL     1       2.537  14.917  20.343  0.00  0.00    +0.000 OA
BRANCH  28  29
ATOM     29  C   UNL     1       3.888  14.727  19.921  0.00  0.00    +0.000 C 
ATOM     30  C   UNL     1       4.111  14.907  18.412  0.00  0.00    +0.000 C 
ATOM     31  C   UNL     1       5.538  15.413  18.319  0.00  0.00    +0.000 C 
ATOM     32  N   UNL     1       5.664  16.278  19.472  0.00  0.00    +0.000 N 
ATOM     33  C   UNL     1       6.512  17.357  19.471  0.00  0.00    +0.000 C 
ATOM     34  C   UNL     1       6.520  18.257  20.681  0.00  0.00    +0.000 C 
ATOM     35  O   UNL     1       7.240  17.617  18.510  0.00  0.00    +0.000 OA
ATOM     36  C   UNL     1       4.734  15.872  20.517  0.00  0.00    +0.000 C 
ENDBRANCH  28  29
ENDBRANCH  12  28
TORSDOF 6
ENDMDL
