MODEL 1
REMARK VINA RESULT:     -10.0      0.000      0.000
REMARK  Name = 
REMARK  4 active torsions:
REMARK  status: ('A' for Active; 'I' for Inactive)
REMARK    1  A    between atoms: C_1  and  C_2
REMARK    2  A    between atoms: C_7  and  C_8
REMARK    3  A    between atoms: C_14  and  C_15
REMARK    4  A    between atoms: C_20  and  C_21
REMARK                            x       y       z     vdW  Elec       q    Type
REMARK                         _______ _______ _______ _____ _____    ______ ____
ROOT
ATOM      1  C   UNL     1      -0.664  11.234  22.685  0.00  0.00    +0.000 C 
ATOM      2  C   UNL     1      -0.088  10.728  21.579  0.00  0.00    +0.000 C 
ATOM      3  C   UNL     1      -0.292  11.206  20.179  0.00  0.00    +0.000 C 
ATOM      4  N   UNL     1      -0.447  10.076  19.271  0.00  0.00    +0.000 NA
ATOM      5  C   UNL     1       0.811   9.337  19.219  0.00  0.00    +0.000 C 
ATOM      6  C   UNL     1       1.225   8.794  20.557  0.00  0.00    +0.000 C 
ATOM      7  C   UNL     1       1.919   7.656  20.754  0.00  0.00    +0.000 C 
ATOM      8  C   UNL     1       0.827   9.559  21.779  0.00  0.00    +0.000 C 
ATOM      9  O   UNL     1       1.220   9.234  22.897  0.00  0.00    +0.000 OA
ATOM     10  H   UNL     1      -0.662  10.425  18.338  0.00  0.00    +0.000 HD
ENDROOT
BRANCH   1  17
ATOM     11  C   UNL     1      -6.498  16.528  23.572  0.00  0.00    +0.000 C 
ATOM     12  C   UNL     1      -5.595  15.344  23.403  0.00  0.00    +0.000 A 
ATOM     13  C   UNL     1      -6.070  14.042  23.570  0.00  0.00    +0.000 A 
ATOM     14  C   UNL     1      -5.206  12.959  23.415  0.00  0.00    +0.000 A 
ATOM     15  C   UNL     1      -3.855  13.169  23.095  0.00  0.00    +0.000 A 
ATOM     16  C   UNL     1      -2.952  12.104  22.985  0.00  0.00    +0.000 A 
ATOM     17  C   UNL     1      -1.608  12.353  22.706  0.00  0.00    +0.000 A 
ATOM     18  C   UNL     1      -1.243  13.680  22.494  0.00  0.00    +0.000 A 
ATOM     19 CL   UNL     1       0.363  14.142  22.078  0.00  0.00    +0.000 Cl
ATOM     20  N   UNL     1      -2.089  14.731  22.578  0.00  0.00    +0.000 NA
ATOM     21  C   UNL     1      -3.367  14.479  22.897  0.00  0.00    +0.000 A 
ATOM     22  C   UNL     1      -4.249  15.539  23.055  0.00  0.00    +0.000 A 
ENDBRANCH   1  17
BRANCH   7  23
ATOM     23  C   UNL     1       2.360   6.805  19.643  0.00  0.00    +0.000 A 
ATOM     24  C   UNL     1       3.210   7.351  18.684  0.00  0.00    +0.000 A 
ATOM     25  C   UNL     1       3.799   6.524  17.719  0.00  0.00    +0.000 A 
ATOM     26  C   UNL     1       4.714   7.026  16.783  0.00  0.00    +0.000 A 
ATOM     27  C   UNL     1       5.328   6.172  15.869  0.00  0.00    +0.000 A 
ATOM     28  C   UNL     1       5.030   4.808  15.882  0.00  0.00    +0.000 A 
ATOM     29  C   UNL     1       5.680   3.865  14.915  0.00  0.00    +0.000 C 
ATOM     30  C   UNL     1       4.096   4.321  16.810  0.00  0.00    +0.000 A 
ATOM     31  C   UNL     1       3.475   5.149  17.736  0.00  0.00    +0.000 A 
ATOM     32  N   UNL     1       2.617   4.618  18.620  0.00  0.00    +0.000 NA
ATOM     33  C   UNL     1       2.083   5.445  19.547  0.00  0.00    +0.000 A 
ATOM     34 CL   UNL     1       1.068   4.623  20.669  0.00  0.00    +0.000 Cl
ENDBRANCH   7  23
TORSDOF 2
ENDMDL
MODEL 2
REMARK VINA RESULT:      -9.3      2.179     10.988
REMARK  Name = 
REMARK  4 active torsions:
REMARK  status: ('A' for Active; 'I' for Inactive)
REMARK    1  A    between atoms: C_1  and  C_2
REMARK    2  A    between atoms: C_7  and  C_8
REMARK    3  A    between atoms: C_14  and  C_15
REMARK    4  A    between atoms: C_20  and  C_21
REMARK                            x       y       z     vdW  Elec       q    Type
REMARK                         _______ _______ _______ _____ _____    ______ ____
ROOT
ATOM      1  C   UNL     1       2.071   7.629  20.005  0.00  0.00    +0.000 C 
ATOM      2  C   UNL     1       1.281   8.674  19.697  0.00  0.00    +0.000 C 
ATOM      3  C   UNL     1       0.860   9.090  18.326  0.00  0.00    +0.000 C 
ATOM      4  N   UNL     1       0.951  10.538  18.180  0.00  0.00    +0.000 NA
ATOM      5  C   UNL     1      -0.031  11.162  19.062  0.00  0.00    +0.000 C 
ATOM      6  C   UNL     1       0.194  10.834  20.511  0.00  0.00    +0.000 C 
ATOM      7  C   UNL     1      -0.094  11.647  21.547  0.00  0.00    +0.000 C 
ATOM      8  C   UNL     1       0.801   9.509  20.845  0.00  0.00    +0.000 C 
ATOM      9  O   UNL     1       0.915   9.130  22.008  0.00  0.00    +0.000 OA
ATOM     10  H   UNL     1       0.735  10.790  17.216  0.00  0.00    +0.000 HD
ENDROOT
BRANCH   1  17
ATOM     11  C   UNL     1       6.199   3.576  14.585  0.00  0.00    +0.000 C 
ATOM     12  C   UNL     1       5.482   4.559  15.460  0.00  0.00    +0.000 A 
ATOM     13  C   UNL     1       5.667   5.934  15.307  0.00  0.00    +0.000 A 
ATOM     14  C   UNL     1       4.994   6.827  16.140  0.00  0.00    +0.000 A 
ATOM     15  C   UNL     1       4.132   6.350  17.140  0.00  0.00    +0.000 A 
ATOM     16  C   UNL     1       3.484   7.220  18.027  0.00  0.00    +0.000 A 
ATOM     17  C   UNL     1       2.666   6.709  19.034  0.00  0.00    +0.000 A 
ATOM     18  C   UNL     1       2.494   5.328  19.068  0.00  0.00    +0.000 A 
ATOM     19 CL   UNL     1       1.465   4.551  20.210  0.00  0.00    +0.000 Cl
ATOM     20  N   UNL     1       3.091   4.459  18.222  0.00  0.00    +0.000 NA
ATOM     21  C   UNL     1       3.915   4.963  17.290  0.00  0.00    +0.000 A 
ATOM     22  C   UNL     1       4.595   4.097  16.445  0.00  0.00    +0.000 A 
ENDBRANCH   1  17
BRANCH   7  23
ATOM     23  C   UNL     1      -0.681  12.979  21.357  0.00  0.00    +0.000 A 
ATOM     24  C   UNL     1      -0.066  13.856  20.467  0.00  0.00    +0.000 A 
ATOM     25  C   UNL     1      -0.697  15.056  20.120  0.00  0.00    +0.000 A 
ATOM     26  C   UNL     1      -0.142  15.930  19.174  0.00  0.00    +0.000 A 
ATOM     27  C   UNL     1      -0.818  17.091  18.804  0.00  0.00    +0.000 A 
ATOM     28  C   UNL     1      -2.054  17.391  19.380  0.00  0.00    +0.000 A 
ATOM     29  C   UNL     1      -2.806  18.629  18.998  0.00  0.00    +0.000 C 
ATOM     30  C   UNL     1      -2.589  16.519  20.341  0.00  0.00    +0.000 A 
ATOM     31  C   UNL     1      -1.941  15.352  20.722  0.00  0.00    +0.000 A 
ATOM     32  N   UNL     1      -2.520  14.542  21.621  0.00  0.00    +0.000 NA
ATOM     33  C   UNL     1      -1.889  13.384  21.917  0.00  0.00    +0.000 A 
ATOM     34 CL   UNL     1      -2.778  12.401  23.017  0.00  0.00    +0.000 Cl
ENDBRANCH   7  23
TORSDOF 2
ENDMDL
MODEL 3
REMARK VINA RESULT:      -9.3      1.443      1.455
REMARK  Name = 
REMARK  4 active torsions:
REMARK  status: ('A' for Active; 'I' for Inactive)
REMARK    1  A    between atoms: C_1  and  C_2
REMARK    2  A    between atoms: C_7  and  C_8
REMARK    3  A    between atoms: C_14  and  C_15
REMARK    4  A    between atoms: C_20  and  C_21
REMARK                            x       y       z     vdW  Elec       q    Type
REMARK                         _______ _______ _______ _____ _____    ______ ____
ROOT
ATOM      1  C   UNL     1      -0.684  11.577  21.500  0.00  0.00    +0.000 C 
ATOM      2  C   UNL     1       0.035  10.975  20.535  0.00  0.00    +0.000 C 
ATOM      3  C   UNL     1       0.132  11.406  19.108  0.00  0.00    +0.000 C 
ATOM      4  N   UNL     1       0.042  10.253  18.219  0.00  0.00    +0.000 NA
ATOM      5  C   UNL     1       1.215   9.409  18.421  0.00  0.00    +0.000 C 
ATOM      6  C   UNL     1       1.328   8.893  19.828  0.00  0.00    +0.000 C 
ATOM      7  C   UNL     1       1.868   7.709  20.181  0.00  0.00    +0.000 C 
ATOM      8  C   UNL     1       0.787   9.743  20.933  0.00  0.00    +0.000 C 
ATOM      9  O   UNL     1       0.939   9.435  22.113  0.00  0.00    +0.000 OA
ATOM     10  H   UNL     1       0.032  10.578  17.253  0.00  0.00    +0.000 HD
ENDROOT
BRANCH   1  17
ATOM     11  C   UNL     1      -6.165  17.250  20.710  0.00  0.00    +0.000 C 
ATOM     12  C   UNL     1      -5.310  16.019  20.735  0.00  0.00    +0.000 A 
ATOM     13  C   UNL     1      -5.838  14.765  20.426  0.00  0.00    +0.000 A 
ATOM     14  C   UNL     1      -5.023  13.635  20.465  0.00  0.00    +0.000 A 
ATOM     15  C   UNL     1      -3.670  13.750  20.820  0.00  0.00    +0.000 A 
ATOM     16  C   UNL     1      -2.839  12.625  20.920  0.00  0.00    +0.000 A 
ATOM     17  C   UNL     1      -1.509  12.772  21.314  0.00  0.00    +0.000 A 
ATOM     18  C   UNL     1      -1.058  14.069  21.541  0.00  0.00    +0.000 A 
ATOM     19 CL   UNL     1       0.573  14.420  21.971  0.00  0.00    +0.000 Cl
ATOM     20  N   UNL     1      -1.825  15.178  21.441  0.00  0.00    +0.000 NA
ATOM     21  C   UNL     1      -3.115  15.015  21.110  0.00  0.00    +0.000 A 
ATOM     22  C   UNL     1      -3.948  16.124  21.060  0.00  0.00    +0.000 A 
ENDBRANCH   1  17
BRANCH   7  23
ATOM     23  C   UNL     1       2.422   6.776  19.195  0.00  0.00    +0.000 A 
ATOM     24  C   UNL     1       3.244   7.280  18.190  0.00  0.00    +0.000 A 
ATOM     25  C   UNL     1       3.939   6.403  17.349  0.00  0.00    +0.000 A 
ATOM     26  C   UNL     1       4.829   6.874  16.373  0.00  0.00    +0.000 A 
ATOM     27  C   UNL     1       5.551   5.979  15.586  0.00  0.00    +0.000 A 
ATOM     28  C   UNL     1       5.388   4.604  15.767  0.00  0.00    +0.000 A 
ATOM     29  C   UNL     1       6.155   3.618  14.939  0.00  0.00    +0.000 C 
ATOM     30  C   UNL     1       4.477   4.146  16.732  0.00  0.00    +0.000 A 
ATOM     31  C   UNL     1       3.751   5.015  17.535  0.00  0.00    +0.000 A 
ATOM     32  N   UNL     1       2.922   4.515  18.463  0.00  0.00    +0.000 NA
ATOM     33  C   UNL     1       2.283   5.393  19.268  0.00  0.00    +0.000 A 
ATOM     34 CL   UNL     1       1.319   4.620  20.467  0.00  0.00    +0.000 Cl
ENDBRANCH   7  23
TORSDOF 2
ENDMDL
MODEL 4
REMARK VINA RESULT:      -9.0      0.583     11.319
REMARK  Name = 
REMARK  4 active torsions:
REMARK  status: ('A' for Active; 'I' for Inactive)
REMARK    1  A    between atoms: C_1  and  C_2
REMARK    2  A    between atoms: C_7  and  C_8
REMARK    3  A    between atoms: C_14  and  C_15
REMARK    4  A    between atoms: C_20  and  C_21
REMARK                            x       y       z     vdW  Elec       q    Type
REMARK                         _______ _______ _______ _____ _____    ______ ____
ROOT
ATOM      1  C   UNL     1       1.834   7.549  20.610  0.00  0.00    +0.000 C 
ATOM      2  C   UNL     1       0.891   8.492  20.430  0.00  0.00    +0.000 C 
ATOM      3  C   UNL     1       0.257   8.871  19.132  0.00  0.00    +0.000 C 
ATOM      4  N   UNL     1       0.152  10.321  19.018  0.00  0.00    +0.000 NA
ATOM      5  C   UNL     1      -0.780  10.808  20.030  0.00  0.00    +0.000 C 
ATOM      6  C   UNL     1      -0.340  10.490  21.431  0.00  0.00    +0.000 C 
ATOM      7  C   UNL     1      -0.594  11.247  22.517  0.00  0.00    +0.000 C 
ATOM      8  C   UNL     1       0.460   9.246  21.650  0.00  0.00    +0.000 C 
ATOM      9  O   UNL     1       0.762   8.867  22.780  0.00  0.00    +0.000 OA
ATOM     10  H   UNL     1      -0.210  10.558  18.095  0.00  0.00    +0.000 HD
ENDROOT
BRANCH   1  17
ATOM     11  C   UNL     1       5.903   3.979  14.818  0.00  0.00    +0.000 C 
ATOM     12  C   UNL     1       5.208   4.884  15.790  0.00  0.00    +0.000 A 
ATOM     13  C   UNL     1       5.450   6.259  15.798  0.00  0.00    +0.000 A 
ATOM     14  C   UNL     1       4.796   7.077  16.719  0.00  0.00    +0.000 A 
ATOM     15  C   UNL     1       3.898   6.524  17.646  0.00  0.00    +0.000 A 
ATOM     16  C   UNL     1       3.267   7.312  18.617  0.00  0.00    +0.000 A 
ATOM     17  C   UNL     1       2.411   6.722  19.548  0.00  0.00    +0.000 A 
ATOM     18  C   UNL     1       2.186   5.355  19.420  0.00  0.00    +0.000 A 
ATOM     19 CL   UNL     1       1.107   4.495  20.450  0.00  0.00    +0.000 Cl
ATOM     20  N   UNL     1       2.765   4.565  18.487  0.00  0.00    +0.000 NA
ATOM     21  C   UNL     1       3.624   5.139  17.632  0.00  0.00    +0.000 A 
ATOM     22  C   UNL     1       4.286   4.348  16.703  0.00  0.00    +0.000 A 
ENDBRANCH   1  17
BRANCH   7  23
ATOM     23  C   UNL     1      -1.356  12.498  22.438  0.00  0.00    +0.000 A 
ATOM     24  C   UNL     1      -2.685  12.495  22.856  0.00  0.00    +0.000 A 
ATOM     25  C   UNL     1      -3.384  13.702  22.973  0.00  0.00    +0.000 A 
ATOM     26  C   UNL     1      -4.700  13.744  23.456  0.00  0.00    +0.000 A 
ATOM     27  C   UNL     1      -5.354  14.964  23.616  0.00  0.00    +0.000 A 
ATOM     28  C   UNL     1      -4.700  16.153  23.290  0.00  0.00    +0.000 A 
ATOM     29  C   UNL     1      -5.376  17.480  23.457  0.00  0.00    +0.000 C 
ATOM     30  C   UNL     1      -3.390  16.096  22.786  0.00  0.00    +0.000 A 
ATOM     31  C   UNL     1      -2.712  14.896  22.624  0.00  0.00    +0.000 A 
ATOM     32  N   UNL     1      -1.451  14.910  22.170  0.00  0.00    +0.000 NA
ATOM     33  C   UNL     1      -0.802  13.726  22.089  0.00  0.00    +0.000 A 
ATOM     34 CL   UNL     1       0.833  13.894  21.574  0.00  0.00    +0.000 Cl
ENDBRANCH   7  23
TORSDOF 2
ENDMDL
MODEL 5
REMARK VINA RESULT:      -8.9      1.899      2.505
REMARK  Name = 
REMARK  4 active torsions:
REMARK  status: ('A' for Active; 'I' for Inactive)
REMARK    1  A    between atoms: C_1  and  C_2
REMARK    2  A    between atoms: C_7  and  C_8
REMARK    3  A    between atoms: C_14  and  C_15
REMARK    4  A    between atoms: C_20  and  C_21
REMARK                            x       y       z     vdW  Elec       q    Type
REMARK                         _______ _______ _______ _____ _____    ______ ____
ROOT
ATOM      1  C   UNL     1      -0.465  11.604  21.740  0.00  0.00    +0.000 C 
ATOM      2  C   UNL     1       0.249  11.005  20.770  0.00  0.00    +0.000 C 
ATOM      3  C   UNL     1       0.441  11.507  19.377  0.00  0.00    +0.000 C 
ATOM      4  N   UNL     1       0.305  10.418  18.417  0.00  0.00    +0.000 NA
ATOM      5  C   UNL     1       1.401   9.475  18.614  0.00  0.00    +0.000 C 
ATOM      6  C   UNL     1       1.412   8.873  19.991  0.00  0.00    +0.000 C 
ATOM      7  C   UNL     1       1.846   7.633  20.294  0.00  0.00    +0.000 C 
ATOM      8  C   UNL     1       0.888   9.697  21.122  0.00  0.00    +0.000 C 
ATOM      9  O   UNL     1       0.965   9.312  22.287  0.00  0.00    +0.000 OA
ATOM     10  H   UNL     1       0.362  10.797  17.472  0.00  0.00    +0.000 HD
ENDROOT
BRANCH   1  17
ATOM     11  C   UNL     1      -3.758  18.551  19.803  0.00  0.00    +0.000 C 
ATOM     12  C   UNL     1      -2.913  17.338  20.052  0.00  0.00    +0.000 A 
ATOM     13  C   UNL     1      -1.673  17.180  19.430  0.00  0.00    +0.000 A 
ATOM     14  C   UNL     1      -0.911  16.038  19.673  0.00  0.00    +0.000 A 
ATOM     15  C   UNL     1      -1.387  15.040  20.538  0.00  0.00    +0.000 A 
ATOM     16  C   UNL     1      -0.667  13.857  20.760  0.00  0.00    +0.000 A 
ATOM     17  C   UNL     1      -1.189  12.869  21.594  0.00  0.00    +0.000 A 
ATOM     18  C   UNL     1      -2.403  13.145  22.217  0.00  0.00    +0.000 A 
ATOM     19 CL   UNL     1      -3.144  12.053  23.324  0.00  0.00    +0.000 Cl
ATOM     20  N   UNL     1      -3.118  14.278  22.038  0.00  0.00    +0.000 NA
ATOM     21  C   UNL     1      -2.627  15.198  21.194  0.00  0.00    +0.000 A 
ATOM     22  C   UNL     1      -3.363  16.345  20.936  0.00  0.00    +0.000 A 
ENDBRANCH   1  17
BRANCH   7  23
ATOM     23  C   UNL     1       2.373   6.717  19.276  0.00  0.00    +0.000 A 
ATOM     24  C   UNL     1       3.225   7.227  18.299  0.00  0.00    +0.000 A 
ATOM     25  C   UNL     1       3.892   6.356  17.430  0.00  0.00    +0.000 A 
ATOM     26  C   UNL     1       4.810   6.828  16.481  0.00  0.00    +0.000 A 
ATOM     27  C   UNL     1       5.504   5.936  15.665  0.00  0.00    +0.000 A 
ATOM     28  C   UNL     1       5.283   4.563  15.789  0.00  0.00    +0.000 A 
ATOM     29  C   UNL     1       6.018   3.580  14.930  0.00  0.00    +0.000 C 
ATOM     30  C   UNL     1       4.345   4.104  16.728  0.00  0.00    +0.000 A 
ATOM     31  C   UNL     1       3.646   4.970  17.558  0.00  0.00    +0.000 A 
ATOM     32  N   UNL     1       2.788   4.469  18.459  0.00  0.00    +0.000 NA
ATOM     33  C   UNL     1       2.177   5.339  19.293  0.00  0.00    +0.000 A 
ATOM     34 CL   UNL     1       1.170   4.559  20.452  0.00  0.00    +0.000 Cl
ENDBRANCH   7  23
TORSDOF 2
ENDMDL
MODEL 6
REMARK VINA RESULT:      -8.9      1.538     11.291
REMARK  Name = 
REMARK  4 active torsions:
REMARK  status: ('A' for Active; 'I' for Inactive)
REMARK    1  A    between atoms: C_1  and  C_2
REMARK    2  A    between atoms: C_7  and  C_8
REMARK    3  A    between atoms: C_14  and  C_15
REMARK    4  A    between atoms: C_20  and  C_21
REMARK                            x       y       z     vdW  Elec       q    Type
REMARK                         _______ _______ _______ _____ _____    ______ ____
ROOT
ATOM      1  C   UNL     1       1.840   7.819  20.144  0.00  0.00    +0.000 C 
ATOM      2  C   UNL     1       1.087   8.876  19.787  0.00  0.00    +0.000 C 
ATOM      3  C   UNL     1       0.742   9.283  18.392  0.00  0.00    +0.000 C 
ATOM      4  N   UNL     1       0.868  10.727  18.235  0.00  0.00    +0.000 NA
ATOM      5  C   UNL     1      -0.142  11.382  19.061  0.00  0.00    +0.000 C 
ATOM      6  C   UNL     1       0.007  11.066  20.523  0.00  0.00    +0.000 C 
ATOM      7  C   UNL     1      -0.314  11.898  21.535  0.00  0.00    +0.000 C 
ATOM      8  C   UNL     1       0.570   9.734  20.900  0.00  0.00    +0.000 C 
ATOM      9  O   UNL     1       0.621   9.366  22.072  0.00  0.00    +0.000 OA
ATOM     10  H   UNL     1       0.704  10.972  17.259  0.00  0.00    +0.000 HD
ENDROOT
BRANCH   1  17
ATOM     11  C   UNL     1       6.106   3.645  14.925  0.00  0.00    +0.000 C 
ATOM     12  C   UNL     1       5.363   4.648  15.756  0.00  0.00    +0.000 A 
ATOM     13  C   UNL     1       5.535   6.019  15.562  0.00  0.00    +0.000 A 
ATOM     14  C   UNL     1       4.838   6.929  16.355  0.00  0.00    +0.000 A 
ATOM     15  C   UNL     1       3.965   6.474  17.356  0.00  0.00    +0.000 A 
ATOM     16  C   UNL     1       3.291   7.364  18.203  0.00  0.00    +0.000 A 
ATOM     17  C   UNL     1       2.462   6.875  19.213  0.00  0.00    +0.000 A 
ATOM     18  C   UNL     1       2.306   5.495  19.288  0.00  0.00    +0.000 A 
ATOM     19 CL   UNL     1       1.267   4.742  20.437  0.00  0.00    +0.000 Cl
ATOM     20  N   UNL     1       2.927   4.606  18.480  0.00  0.00    +0.000 NA
ATOM     21  C   UNL     1       3.761   5.090  17.546  0.00  0.00    +0.000 A 
ATOM     22  C   UNL     1       4.465   4.206  16.741  0.00  0.00    +0.000 A 
ENDBRANCH   1  17
BRANCH   7  23
ATOM     23  C   UNL     1      -0.864  13.238  21.303  0.00  0.00    +0.000 A 
ATOM     24  C   UNL     1      -2.245  13.382  21.202  0.00  0.00    +0.000 A 
ATOM     25  C   UNL     1      -2.814  14.661  21.170  0.00  0.00    +0.000 A 
ATOM     26  C   UNL     1      -4.204  14.844  21.139  0.00  0.00    +0.000 A 
ATOM     27  C   UNL     1      -4.747  16.128  21.165  0.00  0.00    +0.000 A 
ATOM     28  C   UNL     1      -3.904  17.239  21.216  0.00  0.00    +0.000 A 
ATOM     29  C   UNL     1      -4.459  18.631  21.250  0.00  0.00    +0.000 C 
ATOM     30  C   UNL     1      -2.513  17.043  21.224  0.00  0.00    +0.000 A 
ATOM     31  C   UNL     1      -1.947  15.775  21.207  0.00  0.00    +0.000 A 
ATOM     32  N   UNL     1      -0.612  15.652  21.250  0.00  0.00    +0.000 NA
ATOM     33  C   UNL     1      -0.101  14.402  21.300  0.00  0.00    +0.000 A 
ATOM     34 CL   UNL     1       1.616  14.386  21.438  0.00  0.00    +0.000 Cl
ENDBRANCH   7  23
TORSDOF 2
ENDMDL
MODEL 7
REMARK VINA RESULT:      -8.7      1.875      2.095
REMARK  Name = 
REMARK  4 active torsions:
REMARK  status: ('A' for Active; 'I' for Inactive)
REMARK    1  A    between atoms: C_1  and  C_2
REMARK    2  A    between atoms: C_7  and  C_8
REMARK    3  A    between atoms: C_14  and  C_15
REMARK    4  A    between atoms: C_20  and  C_21
REMARK                            x       y       z     vdW  Elec       q    Type
REMARK                         _______ _______ _______ _____ _____    ______ ____
ROOT
ATOM      1  C   UNL     1      -0.504  11.171  21.956  0.00  0.00    +0.000 C 
ATOM      2  C   UNL     1       0.257  10.644  20.979  0.00  0.00    +0.000 C 
ATOM      3  C   UNL     1       0.546  11.266  19.653  0.00  0.00    +0.000 C 
ATOM      4  N   UNL     1       0.447  10.273  18.590  0.00  0.00    +0.000 NA
ATOM      5  C   UNL     1       1.511   9.288  18.764  0.00  0.00    +0.000 C 
ATOM      6  C   UNL     1       1.424   8.563  20.077  0.00  0.00    +0.000 C 
ATOM      7  C   UNL     1       1.813   7.289  20.290  0.00  0.00    +0.000 C 
ATOM      8  C   UNL     1       0.847   9.294  21.247  0.00  0.00    +0.000 C 
ATOM      9  O   UNL     1       0.843   8.803  22.373  0.00  0.00    +0.000 OA
ATOM     10  H   UNL     1       0.571  10.735  17.689  0.00  0.00    +0.000 HD
ENDROOT
BRANCH   1  17
ATOM     11  C   UNL     1      -3.176  18.631  22.189  0.00  0.00    +0.000 C 
ATOM     12  C   UNL     1      -2.570  17.275  22.391  0.00  0.00    +0.000 A 
ATOM     13  C   UNL     1      -1.676  17.030  23.434  0.00  0.00    +0.000 A 
ATOM     14  C   UNL     1      -1.120  15.761  23.594  0.00  0.00    +0.000 A 
ATOM     15  C   UNL     1      -1.452  14.725  22.706  0.00  0.00    +0.000 A 
ATOM     16  C   UNL     1      -0.869  13.455  22.809  0.00  0.00    +0.000 A 
ATOM     17  C   UNL     1      -1.192  12.461  21.885  0.00  0.00    +0.000 A 
ATOM     18  C   UNL     1      -2.141  12.782  20.918  0.00  0.00    +0.000 A 
ATOM     19 CL   UNL     1      -2.691  11.645  19.748  0.00  0.00    +0.000 Cl
ATOM     20  N   UNL     1      -2.734  13.991  20.796  0.00  0.00    +0.000 NA
ATOM     21  C   UNL     1      -2.375  14.951  21.662  0.00  0.00    +0.000 A 
ATOM     22  C   UNL     1      -2.915  16.223  21.528  0.00  0.00    +0.000 A 
ENDBRANCH   1  17
BRANCH   7  23
ATOM     23  C   UNL     1       2.383   6.457  19.225  0.00  0.00    +0.000 A 
ATOM     24  C   UNL     1       3.264   7.045  18.320  0.00  0.00    +0.000 A 
ATOM     25  C   UNL     1       3.970   6.248  17.412  0.00  0.00    +0.000 A 
ATOM     26  C   UNL     1       4.916   6.797  16.534  0.00  0.00    +0.000 A 
ATOM     27  C   UNL     1       5.646   5.974  15.679  0.00  0.00    +0.000 A 
ATOM     28  C   UNL     1       5.434   4.594  15.691  0.00  0.00    +0.000 A 
ATOM     29  C   UNL     1       6.208   3.684  14.787  0.00  0.00    +0.000 C 
ATOM     30  C   UNL     1       4.468   4.059  16.559  0.00  0.00    +0.000 A 
ATOM     31  C   UNL     1       3.732   4.855  17.426  0.00  0.00    +0.000 A 
ATOM     32  N   UNL     1       2.849   4.280  18.255  0.00  0.00    +0.000 NA
ATOM     33  C   UNL     1       2.200   5.081  19.131  0.00  0.00    +0.000 A 
ATOM     34 CL   UNL     1       1.161   4.208  20.191  0.00  0.00    +0.000 Cl
ENDBRANCH   7  23
TORSDOF 2
ENDMDL
MODEL 8
REMARK VINA RESULT:      -8.4      2.251     11.055
REMARK  Name = 
REMARK  4 active torsions:
REMARK  status: ('A' for Active; 'I' for Inactive)
REMARK    1  A    between atoms: C_1  and  C_2
REMARK    2  A    between atoms: C_7  and  C_8
REMARK    3  A    between atoms: C_14  and  C_15
REMARK    4  A    between atoms: C_20  and  C_21
REMARK                            x       y       z     vdW  Elec       q    Type
REMARK                         _______ _______ _______ _____ _____    ______ ____
ROOT
ATOM      1  C   UNL     1       1.851   8.445  18.826  0.00  0.00    +0.000 C 
ATOM      2  C   UNL     1       1.166   9.072  19.800  0.00  0.00    +0.000 C 
ATOM      3  C   UNL     1       1.002   8.601  21.208  0.00  0.00    +0.000 C 
ATOM      4  N   UNL     1      -0.376   8.780  21.650  0.00  0.00    +0.000 NA
ATOM      5  C   UNL     1      -0.669  10.208  21.712  0.00  0.00    +0.000 C 
ATOM      6  C   UNL     1      -0.523  10.892  20.383  0.00  0.00    +0.000 C 
ATOM      7  C   UNL     1      -1.243  11.956  19.972  0.00  0.00    +0.000 C 
ATOM      8  C   UNL     1       0.486  10.351  19.421  0.00  0.00    +0.000 C 
ATOM      9  O   UNL     1       0.735  10.922  18.362  0.00  0.00    +0.000 OA
ATOM     10  H   UNL     1      -0.481   8.381  22.582  0.00  0.00    +0.000 HD
ENDROOT
BRANCH   1  17
ATOM     11  C   UNL     1       4.587   1.135  20.213  0.00  0.00    +0.000 C 
ATOM     12  C   UNL     1       3.943   2.488  20.190  0.00  0.00    +0.000 A 
ATOM     13  C   UNL     1       2.935   2.827  21.094  0.00  0.00    +0.000 A 
ATOM     14  C   UNL     1       2.348   4.090  21.044  0.00  0.00    +0.000 A 
ATOM     15  C   UNL     1       2.761   5.026  20.082  0.00  0.00    +0.000 A 
ATOM     16  C   UNL     1       2.152   6.284  19.974  0.00  0.00    +0.000 A 
ATOM     17  C   UNL     1       2.561   7.174  18.980  0.00  0.00    +0.000 A 
ATOM     18  C   UNL     1       3.615   6.770  18.166  0.00  0.00    +0.000 A 
ATOM     19 CL   UNL     1       4.275   7.781  16.938  0.00  0.00    +0.000 Cl
ATOM     20  N   UNL     1       4.235   5.571  18.250  0.00  0.00    +0.000 NA
ATOM     21  C   UNL     1       3.797   4.707  19.178  0.00  0.00    +0.000 A 
ATOM     22  C   UNL     1       4.366   3.444  19.252  0.00  0.00    +0.000 A 
ENDBRANCH   1  17
BRANCH   7  23
ATOM     23  C   UNL     1      -2.274  12.576  20.812  0.00  0.00    +0.000 A 
ATOM     24  C   UNL     1      -3.611  12.306  20.531  0.00  0.00    +0.000 A 
ATOM     25  C   UNL     1      -4.610  12.725  21.419  0.00  0.00    +0.000 A 
ATOM     26  C   UNL     1      -5.960  12.411  21.204  0.00  0.00    +0.000 A 
ATOM     27  C   UNL     1      -6.928  12.790  22.132  0.00  0.00    +0.000 A 
ATOM     28  C   UNL     1      -6.555  13.490  23.281  0.00  0.00    +0.000 A 
ATOM     29  C   UNL     1      -7.573  13.906  24.299  0.00  0.00    +0.000 C 
ATOM     30  C   UNL     1      -5.203  13.817  23.473  0.00  0.00    +0.000 A 
ATOM     31  C   UNL     1      -4.217  13.445  22.569  0.00  0.00    +0.000 A 
ATOM     32  N   UNL     1      -2.939  13.758  22.826  0.00  0.00    +0.000 NA
ATOM     33  C   UNL     1      -2.001  13.320  21.955  0.00  0.00    +0.000 A 
ATOM     34 CL   UNL     1      -0.398  13.715  22.445  0.00  0.00    +0.000 Cl
ENDBRANCH   7  23
TORSDOF 2
ENDMDL
MODEL 9
REMARK VINA RESULT:      -8.2      1.916     11.261
REMARK  Name = 
REMARK  4 active torsions:
REMARK  status: ('A' for Active; 'I' for Inactive)
REMARK    1  A    between atoms: C_1  and  C_2
REMARK    2  A    between atoms: C_7  and  C_8
REMARK    3  A    between atoms: C_14  and  C_15
REMARK    4  A    between atoms: C_20  and  C_21
REMARK                            x       y       z     vdW  Elec       q    Type
REMARK                         _______ _______ _______ _____ _____    ______ ____
ROOT
ATOM      1  C   UNL     1       1.060   8.564  21.543  0.00  0.00    +0.000 C 
ATOM      2  C   UNL     1       0.069   9.444  21.308  0.00  0.00    +0.000 C 
ATOM      3  C   UNL     1      -0.722   9.566  20.047  0.00  0.00    +0.000 C 
ATOM      4  N   UNL     1      -0.892  10.968  19.684  0.00  0.00    +0.000 NA
ATOM      5  C   UNL     1      -1.720  11.620  20.693  0.00  0.00    +0.000 C 
ATOM      6  C   UNL     1      -1.111  11.574  22.066  0.00  0.00    +0.000 C 
ATOM      7  C   UNL     1      -1.268  12.516  23.018  0.00  0.00    +0.000 C 
ATOM      8  C   UNL     1      -0.247  10.404  22.413  0.00  0.00    +0.000 C 
ATOM      9  O   UNL     1       0.195  10.246  23.548  0.00  0.00    +0.000 OA
ATOM     10  H   UNL     1      -1.365  11.024  18.783  0.00  0.00    +0.000 HD
ENDROOT
BRANCH   1  17
ATOM     11  C   UNL     1       2.873   2.318  17.010  0.00  0.00    +0.000 C 
ATOM     12  C   UNL     1       2.522   3.318  18.070  0.00  0.00    +0.000 A 
ATOM     13  C   UNL     1       2.099   2.913  19.337  0.00  0.00    +0.000 A 
ATOM     14  C   UNL     1       1.770   3.865  20.301  0.00  0.00    +0.000 A 
ATOM     15  C   UNL     1       1.856   5.234  20.003  0.00  0.00    +0.000 A 
ATOM     16  C   UNL     1       1.481   6.213  20.933  0.00  0.00    +0.000 A 
ATOM     17  C   UNL     1       1.542   7.563  20.589  0.00  0.00    +0.000 A 
ATOM     18  C   UNL     1       2.035   7.871  19.325  0.00  0.00    +0.000 A 
ATOM     19 CL   UNL     1       2.230   9.492  18.777  0.00  0.00    +0.000 Cl
ATOM     20  N   UNL     1       2.418   6.955  18.406  0.00  0.00    +0.000 NA
ATOM     21  C   UNL     1       2.307   5.659  18.734  0.00  0.00    +0.000 A 
ATOM     22  C   UNL     1       2.631   4.691  17.795  0.00  0.00    +0.000 A 
ENDBRANCH   1  17
BRANCH   7  23
ATOM     23  C   UNL     1      -2.079  13.719  22.804  0.00  0.00    +0.000 A 
ATOM     24  C   UNL     1      -3.406  13.711  23.227  0.00  0.00    +0.000 A 
ATOM     25  C   UNL     1      -4.152  14.895  23.211  0.00  0.00    +0.000 A 
ATOM     26  C   UNL     1      -5.468  14.940  23.695  0.00  0.00    +0.000 A 
ATOM     27  C   UNL     1      -6.169  16.143  23.720  0.00  0.00    +0.000 A 
ATOM     28  C   UNL     1      -5.563  17.313  23.259  0.00  0.00    +0.000 A 
ATOM     29  C   UNL     1      -6.291  18.622  23.279  0.00  0.00    +0.000 C 
ATOM     30  C   UNL     1      -4.253  17.251  22.757  0.00  0.00    +0.000 A 
ATOM     31  C   UNL     1      -3.529  16.067  22.727  0.00  0.00    +0.000 A 
ATOM     32  N   UNL     1      -2.269  16.079  22.267  0.00  0.00    +0.000 NA
ATOM     33  C   UNL     1      -1.574  14.921  22.316  0.00  0.00    +0.000 A 
ATOM     34 CL   UNL     1       0.052  15.093  21.775  0.00  0.00    +0.000 Cl
ENDBRANCH   7  23
TORSDOF 2
ENDMDL
