MODEL 1
REMARK VINA RESULT:      -8.2      0.000      0.000
REMARK  Name = 
REMARK  2 active torsions:
REMARK  status: ('A' for Active; 'I' for Inactive)
REMARK    1  A    between atoms: C_1  and  C_2
REMARK    2  A    between atoms: C_14  and  C_15
REMARK                            x       y       z     vdW  Elec       q    Type
REMARK                         _______ _______ _______ _____ _____    ______ ____
ROOT
ATOM      1  C   UNL     1      -3.199  10.181  15.037  0.00  0.00    +0.000 C 
ATOM      2  C   UNL     1      -2.720  10.513  16.427  0.00  0.00    +0.000 A 
ATOM      3  C   UNL     1      -3.484  11.380  17.214  0.00  0.00    +0.000 A 
ATOM      4  C   UNL     1      -3.056  11.664  18.495  0.00  0.00    +0.000 A 
ATOM      5  C   UNL     1      -1.836  11.134  18.952  0.00  0.00    +0.000 A 
ATOM      6  C   UNL     1      -0.979  10.295  18.172  0.00  0.00    +0.000 A 
ATOM      7  C   UNL     1      -1.487   9.983  16.902  0.00  0.00    +0.000 A 
ATOM      8  C   UNL     1       0.357   9.778  18.720  0.00  0.00    +0.000 A 
ATOM      9  C   UNL     1       0.432  10.098  20.046  0.00  0.00    +0.000 A 
ATOM     10  C   UNL     1       1.431   9.315  20.809  0.00  0.00    +0.000 A 
ATOM     11  N   UNL     1       1.903   8.142  20.490  0.00  0.00    +0.000 NA
ATOM     12  C   UNL     1       1.518   7.681  19.249  0.00  0.00    +0.000 A 
ATOM     13  C   UNL     1       1.971   6.660  18.413  0.00  0.00    +0.000 A 
ATOM     14  C   UNL     1       3.155   7.309  18.007  0.00  0.00    +0.000 A 
ATOM     15  N   UNL     1       2.672   8.569  17.575  0.00  0.00    +0.000 NA
ATOM     16  N   UNL     1       1.256   8.661  18.243  0.00  0.00    +0.000 N 
ATOM     17  C   UNL     1      -0.456  10.981  20.877  0.00  0.00    +0.000 C 
ATOM     18  O   UNL     1      -1.564  11.565  20.227  0.00  0.00    +0.000 OA
ENDROOT
BRANCH  14  19
ATOM     19  C   UNL     1       4.433   6.471  17.709  0.00  0.00    +0.000 A 
ATOM     20  C   UNL     1       5.008   5.517  18.591  0.00  0.00    +0.000 A 
ATOM     21  C   UNL     1       6.214   4.808  18.299  0.00  0.00    +0.000 A 
ATOM     22  C   UNL     1       6.808   4.933  17.037  0.00  0.00    +0.000 A 
ATOM     23  F   UNL     1       7.975   4.363  16.772  0.00  0.00    +0.000 F 
ATOM     24  C   UNL     1       6.102   5.613  16.040  0.00  0.00    +0.000 A 
ATOM     25  C   UNL     1       4.942   6.374  16.358  0.00  0.00    +0.000 A 
ENDBRANCH  14  19
TORSDOF 1
ENDMDL
MODEL 2
REMARK VINA RESULT:      -8.2      4.489      8.501
REMARK  Name = 
REMARK  2 active torsions:
REMARK  status: ('A' for Active; 'I' for Inactive)
REMARK    1  A    between atoms: C_1  and  C_2
REMARK    2  A    between atoms: C_14  and  C_15
REMARK                            x       y       z     vdW  Elec       q    Type
REMARK                         _______ _______ _______ _____ _____    ______ ____
ROOT
ATOM      1  C   UNL     1       1.458   2.878  21.574  0.00  0.00    +0.000 C 
ATOM      2  C   UNL     1       2.042   3.753  20.495  0.00  0.00    +0.000 A 
ATOM      3  C   UNL     1       2.827   3.163  19.500  0.00  0.00    +0.000 A 
ATOM      4  C   UNL     1       3.340   3.963  18.499  0.00  0.00    +0.000 A 
ATOM      5  C   UNL     1       3.124   5.352  18.541  0.00  0.00    +0.000 A 
ATOM      6  C   UNL     1       2.386   6.022  19.568  0.00  0.00    +0.000 A 
ATOM      7  C   UNL     1       1.829   5.161  20.526  0.00  0.00    +0.000 A 
ATOM      8  C   UNL     1       2.215   7.546  19.571  0.00  0.00    +0.000 A 
ATOM      9  C   UNL     1       2.699   8.037  18.392  0.00  0.00    +0.000 A 
ATOM     10  C   UNL     1       2.228   9.401  18.059  0.00  0.00    +0.000 A 
ATOM     11  N   UNL     1       1.144   9.975  18.499  0.00  0.00    +0.000 NA
ATOM     12  C   UNL     1       0.471   9.270  19.474  0.00  0.00    +0.000 A 
ATOM     13  C   UNL     1      -0.531   9.598  20.387  0.00  0.00    +0.000 A 
ATOM     14  C   UNL     1       0.288  10.360  21.246  0.00  0.00    +0.000 A 
ATOM     15  N   UNL     1       1.365   9.473  21.494  0.00  0.00    +0.000 NA
ATOM     16  N   UNL     1       1.252   8.432  20.327  0.00  0.00    +0.000 N 
ATOM     17  C   UNL     1       3.480   7.349  17.308  0.00  0.00    +0.000 C 
ATOM     18  O   UNL     1       3.749   5.975  17.490  0.00  0.00    +0.000 OA
ENDROOT
BRANCH  14  19
ATOM     19  C   UNL     1      -0.307  11.588  21.995  0.00  0.00    +0.000 A 
ATOM     20  C   UNL     1       0.015  12.944  21.722  0.00  0.00    +0.000 A 
ATOM     21  C   UNL     1      -0.514  14.041  22.471  0.00  0.00    +0.000 A 
ATOM     22  C   UNL     1      -1.505  13.813  23.434  0.00  0.00    +0.000 A 
ATOM     23  F   UNL     1      -1.944  14.796  24.207  0.00  0.00    +0.000 F 
ATOM     24  C   UNL     1      -2.071  12.537  23.509  0.00  0.00    +0.000 A 
ATOM     25  C   UNL     1      -1.490  11.439  22.814  0.00  0.00    +0.000 A 
ENDBRANCH  14  19
TORSDOF 1
ENDMDL
MODEL 3
REMARK VINA RESULT:      -7.8      4.367      8.401
REMARK  Name = 
REMARK  2 active torsions:
REMARK  status: ('A' for Active; 'I' for Inactive)
REMARK    1  A    between atoms: C_1  and  C_2
REMARK    2  A    between atoms: C_14  and  C_15
REMARK                            x       y       z     vdW  Elec       q    Type
REMARK                         _______ _______ _______ _____ _____    ______ ____
ROOT
ATOM      1  C   UNL     1       7.677   7.422  17.005  0.00  0.00    +0.000 C 
ATOM      2  C   UNL     1       6.616   6.354  17.073  0.00  0.00    +0.000 A 
ATOM      3  C   UNL     1       6.860   5.120  16.461  0.00  0.00    +0.000 A 
ATOM      4  C   UNL     1       5.897   4.136  16.547  0.00  0.00    +0.000 A 
ATOM      5  C   UNL     1       4.674   4.415  17.181  0.00  0.00    +0.000 A 
ATOM      6  C   UNL     1       4.339   5.676  17.768  0.00  0.00    +0.000 A 
ATOM      7  C   UNL     1       5.373   6.623  17.714  0.00  0.00    +0.000 A 
ATOM      8  C   UNL     1       2.972   5.924  18.416  0.00  0.00    +0.000 A 
ATOM      9  C   UNL     1       2.302   4.735  18.480  0.00  0.00    +0.000 A 
ATOM     10  C   UNL     1       1.178   4.717  19.443  0.00  0.00    +0.000 A 
ATOM     11  N   UNL     1       1.033   5.494  20.480  0.00  0.00    +0.000 NA
ATOM     12  C   UNL     1       1.963   6.508  20.577  0.00  0.00    +0.000 A 
ATOM     13  C   UNL     1       2.037   7.684  21.323  0.00  0.00    +0.000 A 
ATOM     14  C   UNL     1       1.068   8.395  20.586  0.00  0.00    +0.000 A 
ATOM     15  N   UNL     1       1.530   8.237  19.256  0.00  0.00    +0.000 NA
ATOM     16  N   UNL     1       2.505   7.013  19.355  0.00  0.00    +0.000 N 
ATOM     17  C   UNL     1       2.637   3.405  17.864  0.00  0.00    +0.000 C 
ATOM     18  O   UNL     1       3.835   3.329  17.123  0.00  0.00    +0.000 OA
ENDROOT
BRANCH  14  19
ATOM     19  C   UNL     1       0.151   9.427  21.306  0.00  0.00    +0.000 A 
ATOM     20  C   UNL     1      -0.180   9.400  22.687  0.00  0.00    +0.000 A 
ATOM     21  C   UNL     1      -1.071  10.337  23.297  0.00  0.00    +0.000 A 
ATOM     22  C   UNL     1      -1.548  11.427  22.558  0.00  0.00    +0.000 A 
ATOM     23  F   UNL     1      -2.446  12.257  23.068  0.00  0.00    +0.000 F 
ATOM     24  C   UNL     1      -0.995  11.661  21.295  0.00  0.00    +0.000 A 
ATOM     25  C   UNL     1      -0.168  10.687  20.670  0.00  0.00    +0.000 A 
ENDBRANCH  14  19
TORSDOF 1
ENDMDL
MODEL 4
REMARK VINA RESULT:      -7.5      7.902      9.361
REMARK  Name = 
REMARK  2 active torsions:
REMARK  status: ('A' for Active; 'I' for Inactive)
REMARK    1  A    between atoms: C_1  and  C_2
REMARK    2  A    between atoms: C_14  and  C_15
REMARK                            x       y       z     vdW  Elec       q    Type
REMARK                         _______ _______ _______ _____ _____    ______ ____
ROOT
ATOM      1  C   UNL     1       5.985  16.731  19.573  0.00  0.00    +0.000 C 
ATOM      2  C   UNL     1       7.352  16.457  18.998  0.00  0.00    +0.000 A 
ATOM      3  C   UNL     1       8.195  17.537  18.721  0.00  0.00    +0.000 A 
ATOM      4  C   UNL     1       9.455  17.282  18.218  0.00  0.00    +0.000 A 
ATOM      5  C   UNL     1       9.833  15.959  17.933  0.00  0.00    +0.000 A 
ATOM      6  C   UNL     1       8.992  14.818  18.134  0.00  0.00    +0.000 A 
ATOM      7  C   UNL     1       7.748  15.121  18.706  0.00  0.00    +0.000 A 
ATOM      8  C   UNL     1       9.456  13.403  17.770  0.00  0.00    +0.000 A 
ATOM      9  C   UNL     1      10.781  13.454  17.441  0.00  0.00    +0.000 A 
ATOM     10  C   UNL     1      11.473  12.145  17.485  0.00  0.00    +0.000 A 
ATOM     11  N   UNL     1      11.109  11.099  18.172  0.00  0.00    +0.000 NA
ATOM     12  C   UNL     1       9.883  11.213  18.794  0.00  0.00    +0.000 A 
ATOM     13  C   UNL     1       9.006  10.300  19.378  0.00  0.00    +0.000 A 
ATOM     14  C   UNL     1       8.545   9.736  18.170  0.00  0.00    +0.000 A 
ATOM     15  N   UNL     1       8.163  10.884  17.433  0.00  0.00    +0.000 NA
ATOM     16  N   UNL     1       8.910  12.051  18.166  0.00  0.00    +0.000 N 
ATOM     17  C   UNL     1      11.676  14.641  17.221  0.00  0.00    +0.000 C 
ATOM     18  O   UNL     1      11.099  15.916  17.400  0.00  0.00    +0.000 OA
ENDROOT
BRANCH  14  19
ATOM     19  C   UNL     1       8.162   8.228  18.117  0.00  0.00    +0.000 A 
ATOM     20  C   UNL     1       8.438   7.279  19.137  0.00  0.00    +0.000 A 
ATOM     21  C   UNL     1       8.115   5.891  19.023  0.00  0.00    +0.000 A 
ATOM     22  C   UNL     1       7.370   5.437  17.929  0.00  0.00    +0.000 A 
ATOM     23  F   UNL     1       7.139   4.144  17.750  0.00  0.00    +0.000 F 
ATOM     24  C   UNL     1       6.812   6.388  17.070  0.00  0.00    +0.000 A 
ATOM     25  C   UNL     1       7.196   7.756  17.148  0.00  0.00    +0.000 A 
ENDBRANCH  14  19
TORSDOF 1
ENDMDL
MODEL 5
REMARK VINA RESULT:      -7.3      4.550      8.658
REMARK  Name = 
REMARK  2 active torsions:
REMARK  status: ('A' for Active; 'I' for Inactive)
REMARK    1  A    between atoms: C_1  and  C_2
REMARK    2  A    between atoms: C_14  and  C_15
REMARK                            x       y       z     vdW  Elec       q    Type
REMARK                         _______ _______ _______ _____ _____    ______ ____
ROOT
ATOM      1  C   UNL     1       1.836   3.608  21.607  0.00  0.00    +0.000 C 
ATOM      2  C   UNL     1       2.261   4.572  20.528  0.00  0.00    +0.000 A 
ATOM      3  C   UNL     1       3.084   4.109  19.497  0.00  0.00    +0.000 A 
ATOM      4  C   UNL     1       3.452   4.987  18.498  0.00  0.00    +0.000 A 
ATOM      5  C   UNL     1       3.052   6.333  18.575  0.00  0.00    +0.000 A 
ATOM      6  C   UNL     1       2.266   6.880  19.637  0.00  0.00    +0.000 A 
ATOM      7  C   UNL     1       1.862   5.937  20.594  0.00  0.00    +0.000 A 
ATOM      8  C   UNL     1       1.892   8.367  19.677  0.00  0.00    +0.000 A 
ATOM      9  C   UNL     1       2.266   8.938  18.494  0.00  0.00    +0.000 A 
ATOM     10  C   UNL     1       1.605  10.231  18.203  0.00  0.00    +0.000 A 
ATOM     11  N   UNL     1       0.469  10.647  18.688  0.00  0.00    +0.000 NA
ATOM     12  C   UNL     1      -0.071   9.841  19.669  0.00  0.00    +0.000 A 
ATOM     13  C   UNL     1      -1.077  10.016  20.619  0.00  0.00    +0.000 A 
ATOM     14  C   UNL     1      -0.340  10.868  21.468  0.00  0.00    +0.000 A 
ATOM     15  N   UNL     1       0.855  10.131  21.664  0.00  0.00    +0.000 NA
ATOM     16  N   UNL     1       0.844   9.103  20.480  0.00  0.00    +0.000 N 
ATOM     17  C   UNL     1       3.096   8.379  17.373  0.00  0.00    +0.000 C 
ATOM     18  O   UNL     1       3.553   7.052  17.518  0.00  0.00    +0.000 OA
ENDROOT
BRANCH  14  19
ATOM     19  C   UNL     1      -1.069  11.993  22.259  0.00  0.00    +0.000 A 
ATOM     20  C   UNL     1      -2.245  11.813  23.035  0.00  0.00    +0.000 A 
ATOM     21  C   UNL     1      -2.913  12.886  23.703  0.00  0.00    +0.000 A 
ATOM     22  C   UNL     1      -2.333  14.160  23.728  0.00  0.00    +0.000 A 
ATOM     23  F   UNL     1      -2.975  15.192  24.257  0.00  0.00    +0.000 F 
ATOM     24  C   UNL     1      -1.028  14.300  23.248  0.00  0.00    +0.000 A 
ATOM     25  C   UNL     1      -0.401  13.249  22.522  0.00  0.00    +0.000 A 
ENDBRANCH  14  19
TORSDOF 1
ENDMDL
MODEL 6
REMARK VINA RESULT:      -7.2      4.270      8.153
REMARK  Name = 
REMARK  2 active torsions:
REMARK  status: ('A' for Active; 'I' for Inactive)
REMARK    1  A    between atoms: C_1  and  C_2
REMARK    2  A    between atoms: C_14  and  C_15
REMARK                            x       y       z     vdW  Elec       q    Type
REMARK                         _______ _______ _______ _____ _____    ______ ____
ROOT
ATOM      1  C   UNL     1       0.640   2.245  19.260  0.00  0.00    +0.000 C 
ATOM      2  C   UNL     1       1.630   3.171  18.599  0.00  0.00    +0.000 A 
ATOM      3  C   UNL     1       2.567   2.633  17.712  0.00  0.00    +0.000 A 
ATOM      4  C   UNL     1       3.456   3.486  17.091  0.00  0.00    +0.000 A 
ATOM      5  C   UNL     1       3.445   4.855  17.412  0.00  0.00    +0.000 A 
ATOM      6  C   UNL     1       2.554   5.453  18.359  0.00  0.00    +0.000 A 
ATOM      7  C   UNL     1       1.628   4.560  18.915  0.00  0.00    +0.000 A 
ATOM      8  C   UNL     1       2.618   6.950  18.688  0.00  0.00    +0.000 A 
ATOM      9  C   UNL     1       3.483   7.547  17.816  0.00  0.00    +0.000 A 
ATOM     10  C   UNL     1       3.334   9.017  17.717  0.00  0.00    +0.000 A 
ATOM     11  N   UNL     1       2.268   9.709  18.005  0.00  0.00    +0.000 NA
ATOM     12  C   UNL     1       1.248   8.985  18.587  0.00  0.00    +0.000 A 
ATOM     13  C   UNL     1       0.089   9.332  19.280  0.00  0.00    +0.000 A 
ATOM     14  C   UNL     1       0.734   9.727  20.470  0.00  0.00    +0.000 A 
ATOM     15  N   UNL     1       1.553   8.605  20.752  0.00  0.00    +0.000 NA
ATOM     16  N   UNL     1       1.622   7.854  19.377  0.00  0.00    +0.000 N 
ATOM     17  C   UNL     1       4.429   6.934  16.822  0.00  0.00    +0.000 C 
ATOM     18  O   UNL     1       4.428   5.526  16.727  0.00  0.00    +0.000 OA
ENDROOT
BRANCH  14  19
ATOM     19  C   UNL     1       0.141  10.885  21.325  0.00  0.00    +0.000 A 
ATOM     20  C   UNL     1       0.234  12.266  21.005  0.00  0.00    +0.000 A 
ATOM     21  C   UNL     1      -0.280  13.301  21.847  0.00  0.00    +0.000 A 
ATOM     22  C   UNL     1      -1.036  12.968  22.978  0.00  0.00    +0.000 A 
ATOM     23  F   UNL     1      -1.443  13.902  23.825  0.00  0.00    +0.000 F 
ATOM     24  C   UNL     1      -1.414  11.633  23.149  0.00  0.00    +0.000 A 
ATOM     25  C   UNL     1      -0.841  10.604  22.351  0.00  0.00    +0.000 A 
ENDBRANCH  14  19
TORSDOF 1
ENDMDL
MODEL 7
REMARK VINA RESULT:      -7.0      2.552      4.319
REMARK  Name = 
REMARK  2 active torsions:
REMARK  status: ('A' for Active; 'I' for Inactive)
REMARK    1  A    between atoms: C_1  and  C_2
REMARK    2  A    between atoms: C_14  and  C_15
REMARK                            x       y       z     vdW  Elec       q    Type
REMARK                         _______ _______ _______ _____ _____    ______ ____
ROOT
ATOM      1  C   UNL     1       3.333  14.845  21.889  0.00  0.00    +0.000 C 
ATOM      2  C   UNL     1       1.962  14.426  21.419  0.00  0.00    +0.000 A 
ATOM      3  C   UNL     1       0.899  15.323  21.559  0.00  0.00    +0.000 A 
ATOM      4  C   UNL     1      -0.350  14.946  21.107  0.00  0.00    +0.000 A 
ATOM      5  C   UNL     1      -0.537  13.656  20.583  0.00  0.00    +0.000 A 
ATOM      6  C   UNL     1       0.496  12.672  20.473  0.00  0.00    +0.000 A 
ATOM      7  C   UNL     1       1.759  13.122  20.885  0.00  0.00    +0.000 A 
ATOM      8  C   UNL     1       0.215  11.269  19.922  0.00  0.00    +0.000 A 
ATOM      9  C   UNL     1      -1.057  11.246  19.425  0.00  0.00    +0.000 A 
ATOM     10  C   UNL     1      -1.329  10.131  18.490  0.00  0.00    +0.000 A 
ATOM     11  N   UNL     1      -0.447   9.471  17.794  0.00  0.00    +0.000 NA
ATOM     12  C   UNL     1       0.866   9.775  18.086  0.00  0.00    +0.000 A 
ATOM     13  C   UNL     1       2.086   9.160  17.808  0.00  0.00    +0.000 A 
ATOM     14  C   UNL     1       1.936   8.099  18.726  0.00  0.00    +0.000 A 
ATOM     15  N   UNL     1       1.618   8.786  19.924  0.00  0.00    +0.000 NA
ATOM     16  N   UNL     1       1.155  10.196  19.420  0.00  0.00    +0.000 N 
ATOM     17  C   UNL     1      -2.154  12.268  19.536  0.00  0.00    +0.000 C 
ATOM     18  O   UNL     1      -1.850  13.458  20.231  0.00  0.00    +0.000 OA
ENDROOT
BRANCH  14  19
ATOM     19  C   UNL     1       2.535   6.700  18.397  0.00  0.00    +0.000 A 
ATOM     20  C   UNL     1       3.671   6.471  17.575  0.00  0.00    +0.000 A 
ATOM     21  C   UNL     1       4.155   5.165  17.256  0.00  0.00    +0.000 A 
ATOM     22  C   UNL     1       3.591   4.042  17.874  0.00  0.00    +0.000 A 
ATOM     23  F   UNL     1       3.956   2.816  17.526  0.00  0.00    +0.000 F 
ATOM     24  C   UNL     1       2.688   4.249  18.921  0.00  0.00    +0.000 A 
ATOM     25  C   UNL     1       2.159   5.544  19.182  0.00  0.00    +0.000 A 
ENDBRANCH  14  19
TORSDOF 1
ENDMDL
MODEL 8
REMARK VINA RESULT:      -6.9      3.837      8.407
REMARK  Name = 
REMARK  2 active torsions:
REMARK  status: ('A' for Active; 'I' for Inactive)
REMARK    1  A    between atoms: C_1  and  C_2
REMARK    2  A    between atoms: C_14  and  C_15
REMARK                            x       y       z     vdW  Elec       q    Type
REMARK                         _______ _______ _______ _____ _____    ______ ____
ROOT
ATOM      1  C   UNL     1       7.832   7.763  17.101  0.00  0.00    +0.000 C 
ATOM      2  C   UNL     1       6.909   6.670  17.577  0.00  0.00    +0.000 A 
ATOM      3  C   UNL     1       7.378   5.353  17.599  0.00  0.00    +0.000 A 
ATOM      4  C   UNL     1       6.539   4.359  18.059  0.00  0.00    +0.000 A 
ATOM      5  C   UNL     1       5.220   4.678  18.426  0.00  0.00    +0.000 A 
ATOM      6  C   UNL     1       4.662   5.995  18.364  0.00  0.00    +0.000 A 
ATOM      7  C   UNL     1       5.571   6.981  17.954  0.00  0.00    +0.000 A 
ATOM      8  C   UNL     1       3.203   6.269  18.749  0.00  0.00    +0.000 A 
ATOM      9  C   UNL     1       2.681   5.132  19.298  0.00  0.00    +0.000 A 
ATOM     10  C   UNL     1       1.453   5.348  20.099  0.00  0.00    +0.000 A 
ATOM     11  N   UNL     1       1.084   6.462  20.666  0.00  0.00    +0.000 NA
ATOM     12  C   UNL     1       1.864   7.556  20.353  0.00  0.00    +0.000 A 
ATOM     13  C   UNL     1       1.698   8.934  20.496  0.00  0.00    +0.000 A 
ATOM     14  C   UNL     1       0.752   9.083  19.462  0.00  0.00    +0.000 A 
ATOM     15  N   UNL     1       1.396   8.442  18.374  0.00  0.00    +0.000 NA
ATOM     16  N   UNL     1       2.491   7.563  19.070  0.00  0.00    +0.000 N 
ATOM     17  C   UNL     1       3.250   3.743  19.366  0.00  0.00    +0.000 C 
ATOM     18  O   UNL     1       4.534   3.553  18.811  0.00  0.00    +0.000 OA
ENDROOT
BRANCH  14  19
ATOM     19  C   UNL     1      -0.369  10.157  19.586  0.00  0.00    +0.000 A 
ATOM     20  C   UNL     1      -0.447  11.139  20.609  0.00  0.00    +0.000 A 
ATOM     21  C   UNL     1      -1.524  12.073  20.716  0.00  0.00    +0.000 A 
ATOM     22  C   UNL     1      -2.490  12.142  19.705  0.00  0.00    +0.000 A 
ATOM     23  F   UNL     1      -3.548  12.931  19.824  0.00  0.00    +0.000 F 
ATOM     24  C   UNL     1      -2.271  11.412  18.533  0.00  0.00    +0.000 A 
ATOM     25  C   UNL     1      -1.240  10.434  18.465  0.00  0.00    +0.000 A 
ENDBRANCH  14  19
TORSDOF 1
ENDMDL
MODEL 9
REMARK VINA RESULT:      -6.8      2.886      4.447
REMARK  Name = 
REMARK  2 active torsions:
REMARK  status: ('A' for Active; 'I' for Inactive)
REMARK    1  A    between atoms: C_1  and  C_2
REMARK    2  A    between atoms: C_14  and  C_15
REMARK                            x       y       z     vdW  Elec       q    Type
REMARK                         _______ _______ _______ _____ _____    ______ ____
ROOT
ATOM      1  C   UNL     1       3.886  14.578  21.540  0.00  0.00    +0.000 C 
ATOM      2  C   UNL     1       2.587  14.283  20.835  0.00  0.00    +0.000 A 
ATOM      3  C   UNL     1       1.697  15.335  20.595  0.00  0.00    +0.000 A 
ATOM      4  C   UNL     1       0.519  15.067  19.927  0.00  0.00    +0.000 A 
ATOM      5  C   UNL     1       0.211  13.744  19.568  0.00  0.00    +0.000 A 
ATOM      6  C   UNL     1       1.049  12.617  19.843  0.00  0.00    +0.000 A 
ATOM      7  C   UNL     1       2.263  12.947  20.464  0.00  0.00    +0.000 A 
ATOM      8  C   UNL     1       0.637  11.193  19.452  0.00  0.00    +0.000 A 
ATOM      9  C   UNL     1      -0.491  11.265  18.684  0.00  0.00    +0.000 A 
ATOM     10  C   UNL     1      -0.766  10.050  17.885  0.00  0.00    +0.000 A 
ATOM     11  N   UNL     1       0.105   9.154  17.513  0.00  0.00    +0.000 NA
ATOM     12  C   UNL     1       1.365   9.313  18.051  0.00  0.00    +0.000 A 
ATOM     13  C   UNL     1       2.484   8.487  18.153  0.00  0.00    +0.000 A 
ATOM     14  C   UNL     1       1.962   7.645  19.156  0.00  0.00    +0.000 A 
ATOM     15  N   UNL     1       1.538   8.575  20.137  0.00  0.00    +0.000 NA
ATOM     16  N   UNL     1       1.449   9.923  19.341  0.00  0.00    +0.000 N 
ATOM     17  C   UNL     1      -1.385  12.438  18.391  0.00  0.00    +0.000 C 
ATOM     18  O   UNL     1      -1.017  13.677  18.956  0.00  0.00    +0.000 OA
ENDROOT
BRANCH  14  19
ATOM     19  C   UNL     1       2.352   6.137  19.181  0.00  0.00    +0.000 A 
ATOM     20  C   UNL     1       2.183   5.269  20.292  0.00  0.00    +0.000 A 
ATOM     21  C   UNL     1       2.604   3.903  20.289  0.00  0.00    +0.000 A 
ATOM     22  C   UNL     1       3.083   3.324  19.107  0.00  0.00    +0.000 A 
ATOM     23  F   UNL     1       3.568   2.091  19.099  0.00  0.00    +0.000 F 
ATOM     24  C   UNL     1       2.968   4.054  17.921  0.00  0.00    +0.000 A 
ATOM     25  C   UNL     1       2.617   5.433  17.944  0.00  0.00    +0.000 A 
ENDBRANCH  14  19
TORSDOF 1
ENDMDL
