MODEL 1
REMARK VINA RESULT:      -6.4      0.000      0.000
REMARK  Name = 
REMARK  3 active torsions:
REMARK  status: ('A' for Active; 'I' for Inactive)
REMARK    1  A    between atoms: N_3  and  C_4
REMARK    2  A    between atoms: C_4  and  C_5
REMARK    3  A    between atoms: N_9  and  C_10
REMARK                            x       y       z     vdW  Elec       q    Type
REMARK                         _______ _______ _______ _____ _____    ______ ____
ROOT
ATOM      1  O   UNL     1       2.893   4.758  17.478  0.00  0.00    +0.000 OA
ATOM      2  C   UNL     1       3.417   3.666  17.654  0.00  0.00    +0.000 C 
ATOM      3  N   UNL     1       2.796   2.660  18.366  0.00  0.00    +0.000 N 
ATOM      4  N   UNL     1       4.648   3.255  17.190  0.00  0.00    +0.000 N 
ATOM      5  H   UNL     1       3.413   2.034  18.863  0.00  0.00    +0.000 HD
ATOM      6  H   UNL     1       4.841   2.270  17.287  0.00  0.00    +0.000 HD
ENDROOT
BRANCH   4   7
ATOM      7  C   UNL     1       5.595   4.024  16.479  0.00  0.00    +0.000 A 
ATOM      8  C   UNL     1       5.875   3.850  15.127  0.00  0.00    +0.000 A 
ATOM      9  C   UNL     1       6.832   4.663  14.539  0.00  0.00    +0.000 A 
ATOM     10  N   UNL     1       7.511   5.626  15.197  0.00  0.00    +0.000 NA
ATOM     11  C   UNL     1       7.216   5.783  16.502  0.00  0.00    +0.000 A 
ATOM     12  C   UNL     1       6.278   5.019  17.179  0.00  0.00    +0.000 A 
ENDBRANCH   4   7
BRANCH   3  13
ATOM     13  C   UNL     1       1.538   2.946  19.031  0.00  0.00    +0.000 C 
BRANCH  13  14
ATOM     14  C   UNL     1       1.780   3.443  20.434  0.00  0.00    +0.000 C 
ATOM     15 BR   UNL     1       1.701   5.366  20.654  0.00  0.00    +0.000 Br
ATOM     16  C   UNL     1       1.285   2.630  21.611  0.00  0.00    +0.000 C 
ATOM     17  C   UNL     1       2.758   2.703  21.319  0.00  0.00    +0.000 C 
ENDBRANCH  13  14
ENDBRANCH   3  13
TORSDOF 3
ENDMDL
MODEL 2
REMARK VINA RESULT:      -6.3      0.143      1.216
REMARK  Name = 
REMARK  3 active torsions:
REMARK  status: ('A' for Active; 'I' for Inactive)
REMARK    1  A    between atoms: N_3  and  C_4
REMARK    2  A    between atoms: C_4  and  C_5
REMARK    3  A    between atoms: N_9  and  C_10
REMARK                            x       y       z     vdW  Elec       q    Type
REMARK                         _______ _______ _______ _____ _____    ______ ____
ROOT
ATOM      1  O   UNL     1       2.899   4.635  17.503  0.00  0.00    +0.000 OA
ATOM      2  C   UNL     1       3.489   3.589  17.738  0.00  0.00    +0.000 C 
ATOM      3  N   UNL     1       2.915   2.573  18.474  0.00  0.00    +0.000 N 
ATOM      4  N   UNL     1       4.758   3.244  17.324  0.00  0.00    +0.000 N 
ATOM      5  H   UNL     1       3.558   2.010  19.013  0.00  0.00    +0.000 HD
ATOM      6  H   UNL     1       5.013   2.278  17.467  0.00  0.00    +0.000 HD
ENDROOT
BRANCH   4   7
ATOM      7  C   UNL     1       5.672   4.046  16.607  0.00  0.00    +0.000 A 
ATOM      8  C   UNL     1       6.408   5.080  17.177  0.00  0.00    +0.000 A 
ATOM      9  C   UNL     1       7.271   5.803  16.369  0.00  0.00    +0.000 A 
ATOM     10  N   UNL     1       7.450   5.564  15.053  0.00  0.00    +0.000 NA
ATOM     11  C   UNL     1       6.735   4.552  14.524  0.00  0.00    +0.000 A 
ATOM     12  C   UNL     1       5.846   3.773  15.249  0.00  0.00    +0.000 A 
ENDBRANCH   4   7
BRANCH   3  13
ATOM     13  C   UNL     1       1.622   2.799  19.093  0.00  0.00    +0.000 C 
BRANCH  13  14
ATOM     14  C   UNL     1       1.790   3.357  20.484  0.00  0.00    +0.000 C 
ATOM     15 BR   UNL     1       1.661   5.284  20.623  0.00  0.00    +0.000 Br
ATOM     16  C   UNL     1       1.258   2.580  21.670  0.00  0.00    +0.000 C 
ATOM     17  C   UNL     1       2.741   2.674  21.441  0.00  0.00    +0.000 C 
ENDBRANCH  13  14
ENDBRANCH   3  13
TORSDOF 3
ENDMDL
MODEL 3
REMARK VINA RESULT:      -6.0      1.765      2.270
REMARK  Name = 
REMARK  3 active torsions:
REMARK  status: ('A' for Active; 'I' for Inactive)
REMARK    1  A    between atoms: N_3  and  C_4
REMARK    2  A    between atoms: C_4  and  C_5
REMARK    3  A    between atoms: N_9  and  C_10
REMARK                            x       y       z     vdW  Elec       q    Type
REMARK                         _______ _______ _______ _____ _____    ______ ____
ROOT
ATOM      1  O   UNL     1       4.304   5.226  19.736  0.00  0.00    +0.000 OA
ATOM      2  C   UNL     1       3.499   5.328  18.820  0.00  0.00    +0.000 C 
ATOM      3  N   UNL     1       2.139   5.215  19.021  0.00  0.00    +0.000 N 
ATOM      4  N   UNL     1       3.783   5.575  17.493  0.00  0.00    +0.000 N 
ATOM      5  H   UNL     1       1.615   4.837  18.246  0.00  0.00    +0.000 HD
ATOM      6  H   UNL     1       2.987   5.795  16.913  0.00  0.00    +0.000 HD
ENDROOT
BRANCH   4   7
ATOM      7  C   UNL     1       5.058   5.690  16.897  0.00  0.00    +0.000 A 
ATOM      8  C   UNL     1       6.067   6.517  17.381  0.00  0.00    +0.000 A 
ATOM      9  C   UNL     1       7.277   6.550  16.706  0.00  0.00    +0.000 A 
ATOM     10  N   UNL     1       7.546   5.820  15.604  0.00  0.00    +0.000 NA
ATOM     11  C   UNL     1       6.559   5.018  15.159  0.00  0.00    +0.000 A 
ATOM     12  C   UNL     1       5.314   4.918  15.763  0.00  0.00    +0.000 A 
ENDBRANCH   4   7
BRANCH   3  13
ATOM     13  C   UNL     1       1.655   4.840  20.337  0.00  0.00    +0.000 C 
BRANCH  13  14
ATOM     14  C   UNL     1       1.602   3.340  20.476  0.00  0.00    +0.000 C 
ATOM     15 BR   UNL     1       1.016   2.383  18.897  0.00  0.00    +0.000 Br
ATOM     16  C   UNL     1       2.637   2.630  21.322  0.00  0.00    +0.000 C 
ATOM     17  C   UNL     1       1.219   2.737  21.809  0.00  0.00    +0.000 C 
ENDBRANCH  13  14
ENDBRANCH   3  13
TORSDOF 3
ENDMDL
MODEL 4
REMARK VINA RESULT:      -6.0      1.735      1.901
REMARK  Name = 
REMARK  3 active torsions:
REMARK  status: ('A' for Active; 'I' for Inactive)
REMARK    1  A    between atoms: N_3  and  C_4
REMARK    2  A    between atoms: C_4  and  C_5
REMARK    3  A    between atoms: N_9  and  C_10
REMARK                            x       y       z     vdW  Elec       q    Type
REMARK                         _______ _______ _______ _____ _____    ______ ____
ROOT
ATOM      1  O   UNL     1       4.353   5.027  19.655  0.00  0.00    +0.000 OA
ATOM      2  C   UNL     1       3.521   5.242  18.784  0.00  0.00    +0.000 C 
ATOM      3  N   UNL     1       2.166   5.237  19.045  0.00  0.00    +0.000 N 
ATOM      4  N   UNL     1       3.768   5.525  17.456  0.00  0.00    +0.000 N 
ATOM      5  H   UNL     1       1.577   4.943  18.279  0.00  0.00    +0.000 HD
ATOM      6  H   UNL     1       2.970   5.839  16.925  0.00  0.00    +0.000 HD
ENDROOT
BRANCH   4   7
ATOM      7  C   UNL     1       5.021   5.556  16.807  0.00  0.00    +0.000 A 
ATOM      8  C   UNL     1       5.375   4.701  15.767  0.00  0.00    +0.000 A 
ATOM      9  C   UNL     1       6.639   4.823  15.212  0.00  0.00    +0.000 A 
ATOM     10  N   UNL     1       7.555   5.729  15.613  0.00  0.00    +0.000 NA
ATOM     11  C   UNL     1       7.187   6.552  16.614  0.00  0.00    +0.000 A 
ATOM     12  C   UNL     1       5.948   6.508  17.234  0.00  0.00    +0.000 A 
ENDBRANCH   4   7
BRANCH   3  13
ATOM     13  C   UNL     1       1.708   4.845  20.364  0.00  0.00    +0.000 C 
BRANCH  13  14
ATOM     14  C   UNL     1       1.622   3.344  20.472  0.00  0.00    +0.000 C 
ATOM     15 BR   UNL     1       1.002   2.434  18.879  0.00  0.00    +0.000 Br
ATOM     16  C   UNL     1       2.649   2.593  21.294  0.00  0.00    +0.000 C 
ATOM     17  C   UNL     1       1.238   2.721  21.796  0.00  0.00    +0.000 C 
ENDBRANCH  13  14
ENDBRANCH   3  13
TORSDOF 3
ENDMDL
MODEL 5
REMARK VINA RESULT:      -6.0      2.825      6.184
REMARK  Name = 
REMARK  3 active torsions:
REMARK  status: ('A' for Active; 'I' for Inactive)
REMARK    1  A    between atoms: N_3  and  C_4
REMARK    2  A    between atoms: C_4  and  C_5
REMARK    3  A    between atoms: N_9  and  C_10
REMARK                            x       y       z     vdW  Elec       q    Type
REMARK                         _______ _______ _______ _____ _____    ______ ____
ROOT
ATOM      1  O   UNL     1       4.836   5.351  19.523  0.00  0.00    +0.000 OA
ATOM      2  C   UNL     1       5.253   4.296  19.065  0.00  0.00    +0.000 C 
ATOM      3  N   UNL     1       6.547   4.155  18.606  0.00  0.00    +0.000 N 
ATOM      4  N   UNL     1       4.553   3.114  18.940  0.00  0.00    +0.000 N 
ATOM      5  H   UNL     1       6.671   3.495  17.852  0.00  0.00    +0.000 HD
ATOM      6  H   UNL     1       5.107   2.306  18.699  0.00  0.00    +0.000 HD
ENDROOT
BRANCH   4   7
ATOM      7  C   UNL     1       3.193   2.889  19.244  0.00  0.00    +0.000 A 
ATOM      8  C   UNL     1       2.205   2.703  18.282  0.00  0.00    +0.000 A 
ATOM      9  C   UNL     1       0.901   2.497  18.703  0.00  0.00    +0.000 A 
ATOM     10  N   UNL     1       0.524   2.457  19.998  0.00  0.00    +0.000 NA
ATOM     11  C   UNL     1       1.498   2.629  20.913  0.00  0.00    +0.000 A 
ATOM     12  C   UNL     1       2.830   2.844  20.591  0.00  0.00    +0.000 A 
ENDBRANCH   4   7
BRANCH   3  13
ATOM     13  C   UNL     1       7.402   5.326  18.551  0.00  0.00    +0.000 C 
BRANCH  13  14
ATOM     14  C   UNL     1       7.168   6.096  17.275  0.00  0.00    +0.000 C 
ATOM     15 BR   UNL     1       7.076   5.021  15.667  0.00  0.00    +0.000 Br
ATOM     16  C   UNL     1       6.278   7.321  17.294  0.00  0.00    +0.000 C 
ATOM     17  C   UNL     1       7.764   7.478  17.129  0.00  0.00    +0.000 C 
ENDBRANCH  13  14
ENDBRANCH   3  13
TORSDOF 3
ENDMDL
MODEL 6
REMARK VINA RESULT:      -5.9      2.227      6.336
REMARK  Name = 
REMARK  3 active torsions:
REMARK  status: ('A' for Active; 'I' for Inactive)
REMARK    1  A    between atoms: N_3  and  C_4
REMARK    2  A    between atoms: C_4  and  C_5
REMARK    3  A    between atoms: N_9  and  C_10
REMARK                            x       y       z     vdW  Elec       q    Type
REMARK                         _______ _______ _______ _____ _____    ______ ____
ROOT
ATOM      1  O   UNL     1       4.760   5.360  18.706  0.00  0.00    +0.000 OA
ATOM      2  C   UNL     1       5.141   4.206  18.558  0.00  0.00    +0.000 C 
ATOM      3  N   UNL     1       6.281   3.895  17.845  0.00  0.00    +0.000 N 
ATOM      4  N   UNL     1       4.545   3.067  19.057  0.00  0.00    +0.000 N 
ATOM      5  H   UNL     1       6.268   3.003  17.372  0.00  0.00    +0.000 HD
ATOM      6  H   UNL     1       5.090   2.223  18.978  0.00  0.00    +0.000 HD
ENDROOT
BRANCH   4   7
ATOM      7  C   UNL     1       3.335   2.982  19.780  0.00  0.00    +0.000 A 
ATOM      8  C   UNL     1       3.265   2.719  21.144  0.00  0.00    +0.000 A 
ATOM      9  C   UNL     1       2.017   2.652  21.743  0.00  0.00    +0.000 A 
ATOM     10  N   UNL     1       0.854   2.834  21.084  0.00  0.00    +0.000 NA
ATOM     11  C   UNL     1       0.945   3.097  19.766  0.00  0.00    +0.000 A 
ATOM     12  C   UNL     1       2.145   3.182  19.077  0.00  0.00    +0.000 A 
ENDBRANCH   4   7
BRANCH   3  13
ATOM     13  C   UNL     1       6.982   4.957  17.146  0.00  0.00    +0.000 C 
BRANCH  13  14
ATOM     14  C   UNL     1       6.400   5.161  15.770  0.00  0.00    +0.000 C 
ATOM     15 BR   UNL     1       5.199   6.671  15.597  0.00  0.00    +0.000 Br
ATOM     16  C   UNL     1       7.240   4.852  14.549  0.00  0.00    +0.000 C 
ATOM     17  C   UNL     1       6.092   3.953  14.914  0.00  0.00    +0.000 C 
ENDBRANCH  13  14
ENDBRANCH   3  13
TORSDOF 3
ENDMDL
MODEL 7
REMARK VINA RESULT:      -5.8      1.608      1.778
REMARK  Name = 
REMARK  3 active torsions:
REMARK  status: ('A' for Active; 'I' for Inactive)
REMARK    1  A    between atoms: N_3  and  C_4
REMARK    2  A    between atoms: C_4  and  C_5
REMARK    3  A    between atoms: N_9  and  C_10
REMARK                            x       y       z     vdW  Elec       q    Type
REMARK                         _______ _______ _______ _____ _____    ______ ____
ROOT
ATOM      1  O   UNL     1       3.843   3.135  17.756  0.00  0.00    +0.000 OA
ATOM      2  C   UNL     1       4.547   3.138  18.758  0.00  0.00    +0.000 C 
ATOM      3  N   UNL     1       4.220   2.416  19.887  0.00  0.00    +0.000 N 
ATOM      4  N   UNL     1       5.737   3.814  18.931  0.00  0.00    +0.000 N 
ATOM      5  H   UNL     1       4.528   2.815  20.762  0.00  0.00    +0.000 HD
ATOM      6  H   UNL     1       6.260   3.565  19.756  0.00  0.00    +0.000 HD
ENDROOT
BRANCH   4   7
ATOM      7  C   UNL     1       6.357   4.700  18.023  0.00  0.00    +0.000 A 
ATOM      8  C   UNL     1       6.537   4.422  16.671  0.00  0.00    +0.000 A 
ATOM      9  C   UNL     1       7.168   5.369  15.879  0.00  0.00    +0.000 A 
ATOM     10  N   UNL     1       7.617   6.556  16.336  0.00  0.00    +0.000 NA
ATOM     11  C   UNL     1       7.424   6.808  17.645  0.00  0.00    +0.000 A 
ATOM     12  C   UNL     1       6.806   5.925  18.518  0.00  0.00    +0.000 A 
ENDBRANCH   4   7
BRANCH   3  13
ATOM     13  C   UNL     1       2.942   1.731  19.935  0.00  0.00    +0.000 C 
BRANCH  13  14
ATOM     14  C   UNL     1       1.851   2.671  20.382  0.00  0.00    +0.000 C 
ATOM     15 BR   UNL     1       0.505   3.071  19.049  0.00  0.00    +0.000 Br
ATOM     16  C   UNL     1       1.357   2.616  21.813  0.00  0.00    +0.000 C 
ATOM     17  C   UNL     1       2.188   3.781  21.353  0.00  0.00    +0.000 C 
ENDBRANCH  13  14
ENDBRANCH   3  13
TORSDOF 3
ENDMDL
MODEL 8
REMARK VINA RESULT:      -5.8      2.235      6.262
REMARK  Name = 
REMARK  3 active torsions:
REMARK  status: ('A' for Active; 'I' for Inactive)
REMARK    1  A    between atoms: N_3  and  C_4
REMARK    2  A    between atoms: C_4  and  C_5
REMARK    3  A    between atoms: N_9  and  C_10
REMARK                            x       y       z     vdW  Elec       q    Type
REMARK                         _______ _______ _______ _____ _____    ______ ____
ROOT
ATOM      1  O   UNL     1       4.751   5.362  18.601  0.00  0.00    +0.000 OA
ATOM      2  C   UNL     1       5.150   4.210  18.485  0.00  0.00    +0.000 C 
ATOM      3  N   UNL     1       6.308   3.899  17.803  0.00  0.00    +0.000 N 
ATOM      4  N   UNL     1       4.557   3.074  18.996  0.00  0.00    +0.000 N 
ATOM      5  H   UNL     1       6.316   2.998  17.349  0.00  0.00    +0.000 HD
ATOM      6  H   UNL     1       5.114   2.235  18.946  0.00  0.00    +0.000 HD
ENDROOT
BRANCH   4   7
ATOM      7  C   UNL     1       3.334   2.988  19.696  0.00  0.00    +0.000 A 
ATOM      8  C   UNL     1       2.089   3.180  19.104  0.00  0.00    +0.000 A 
ATOM      9  C   UNL     1       0.956   3.076  19.897  0.00  0.00    +0.000 A 
ATOM     10  N   UNL     1       0.982   2.792  21.215  0.00  0.00    +0.000 NA
ATOM     11  C   UNL     1       2.197   2.601  21.765  0.00  0.00    +0.000 A 
ATOM     12  C   UNL     1       3.386   2.685  21.057  0.00  0.00    +0.000 A 
ENDBRANCH   4   7
BRANCH   3  13
ATOM     13  C   UNL     1       7.010   4.955  17.097  0.00  0.00    +0.000 C 
BRANCH  13  14
ATOM     14  C   UNL     1       6.419   5.160  15.725  0.00  0.00    +0.000 C 
ATOM     15 BR   UNL     1       5.210   6.664  15.561  0.00  0.00    +0.000 Br
ATOM     16  C   UNL     1       7.254   4.857  14.498  0.00  0.00    +0.000 C 
ATOM     17  C   UNL     1       6.112   3.952  14.868  0.00  0.00    +0.000 C 
ENDBRANCH  13  14
ENDBRANCH   3  13
TORSDOF 3
ENDMDL
MODEL 9
REMARK VINA RESULT:      -5.8      2.171      2.752
REMARK  Name = 
REMARK  3 active torsions:
REMARK  status: ('A' for Active; 'I' for Inactive)
REMARK    1  A    between atoms: N_3  and  C_4
REMARK    2  A    between atoms: C_4  and  C_5
REMARK    3  A    between atoms: N_9  and  C_10
REMARK                            x       y       z     vdW  Elec       q    Type
REMARK                         _______ _______ _______ _____ _____    ______ ____
ROOT
ATOM      1  O   UNL     1       4.168   3.971  17.375  0.00  0.00    +0.000 OA
ATOM      2  C   UNL     1       4.785   3.626  18.373  0.00  0.00    +0.000 C 
ATOM      3  N   UNL     1       4.421   2.520  19.115  0.00  0.00    +0.000 N 
ATOM      4  N   UNL     1       5.903   4.233  18.906  0.00  0.00    +0.000 N 
ATOM      5  H   UNL     1       4.626   2.574  20.103  0.00  0.00    +0.000 HD
ATOM      6  H   UNL     1       6.374   3.713  19.630  0.00  0.00    +0.000 HD
ENDROOT
BRANCH   4   7
ATOM      7  C   UNL     1       6.527   5.418  18.460  0.00  0.00    +0.000 A 
ATOM      8  C   UNL     1       7.694   5.935  19.016  0.00  0.00    +0.000 A 
ATOM      9  C   UNL     1       8.210   7.111  18.496  0.00  0.00    +0.000 A 
ATOM     10  N   UNL     1       7.654   7.791  17.471  0.00  0.00    +0.000 NA
ATOM     11  C   UNL     1       6.532   7.267  16.942  0.00  0.00    +0.000 A 
ATOM     12  C   UNL     1       5.938   6.098  17.393  0.00  0.00    +0.000 A 
ENDBRANCH   4   7
BRANCH   3  13
ATOM     13  C   UNL     1       3.199   1.818  18.773  0.00  0.00    +0.000 C 
BRANCH  13  14
ATOM     14  C   UNL     1       2.010   2.467  19.438  0.00  0.00    +0.000 C 
ATOM     15 BR   UNL     1       2.213   2.820  21.331  0.00  0.00    +0.000 Br
ATOM     16  C   UNL     1       1.183   3.476  18.670  0.00  0.00    +0.000 C 
ATOM     17  C   UNL     1       0.618   2.114  18.963  0.00  0.00    +0.000 C 
ENDBRANCH  13  14
ENDBRANCH   3  13
TORSDOF 3
ENDMDL
