MODEL 1
REMARK VINA RESULT:      -7.1      0.000      0.000
REMARK  Name = 
REMARK  6 active torsions:
REMARK  status: ('A' for Active; 'I' for Inactive)
REMARK    1  A    between atoms: C_1  and  O_2
REMARK    2  A    between atoms: O_2  and  C_3
REMARK    3  A    between atoms: C_6  and  C_7
REMARK    4  A    between atoms: C_7  and  C_9
REMARK    5  A    between atoms: C_9  and  S_10
REMARK    6  A    between atoms: S_10  and  C_11
REMARK                            x       y       z     vdW  Elec       q    Type
REMARK                         _______ _______ _______ _____ _____    ______ ____
ROOT
ATOM      1  C   UNL     1       6.263   6.340  17.879  0.00  0.00    +0.000 C 
ENDROOT
BRANCH   1   2
ATOM      2  C   UNL     1       4.836   6.386  17.351  0.00  0.00    +0.000 C 
ATOM      3  O   UNL     1       4.527   6.958  16.305  0.00  0.00    +0.000 OA
BRANCH   2   7
ATOM      4  C   UNL     1       1.785   4.223  19.486  0.00  0.00    +0.000 A 
ATOM      5  C   UNL     1       2.390   5.353  20.035  0.00  0.00    +0.000 A 
ATOM      6  C   UNL     1       3.373   6.042  19.324  0.00  0.00    +0.000 A 
ATOM      7  C   UNL     1       3.774   5.604  18.054  0.00  0.00    +0.000 A 
ATOM      8  C   UNL     1       3.187   4.453  17.516  0.00  0.00    +0.000 A 
ATOM      9  C   UNL     1       2.195   3.767  18.233  0.00  0.00    +0.000 A 
BRANCH   4  11
ATOM     10  C   UNL     1       1.362   2.788  21.318  0.00  0.00    +0.000 C 
ATOM     11  O   UNL     1       0.851   3.619  20.281  0.00  0.00    +0.000 OA
ENDBRANCH   4  11
ENDBRANCH   2   7
ENDBRANCH   1   2
BRANCH   1  12
ATOM     12  S   UNL     1       7.032   4.718  17.613  0.00  0.00    +0.000 S 
BRANCH  12  13
ATOM     13  C   UNL     1       6.946   4.647  15.875  0.00  0.00    +0.000 A 
ATOM     14  N   UNL     1       7.596   5.521  15.104  0.00  0.00    +0.000 NA
ATOM     15  N   UNL     1       7.284   5.069  13.881  0.00  0.00    +0.000 N 
ATOM     16  C   UNL     1       6.442   3.993  13.948  0.00  0.00    +0.000 A 
ATOM     17  N   UNL     1       5.963   3.375  12.861  0.00  0.00    +0.000 N 
ATOM     18  N   UNL     1       6.213   3.703  15.203  0.00  0.00    +0.000 NA
ATOM     19  H   UNL     1       7.660   5.532  13.064  0.00  0.00    +0.000 HD
ATOM     20  H   UNL     1       6.429   3.427  11.963  0.00  0.00    +0.000 HD
ATOM     21  H   UNL     1       5.493   2.487  13.018  0.00  0.00    +0.000 HD
ENDBRANCH  12  13
ENDBRANCH   1  12
TORSDOF 5
ENDMDL
MODEL 2
REMARK VINA RESULT:      -7.0      0.122      1.143
REMARK  Name = 
REMARK  6 active torsions:
REMARK  status: ('A' for Active; 'I' for Inactive)
REMARK    1  A    between atoms: C_1  and  O_2
REMARK    2  A    between atoms: O_2  and  C_3
REMARK    3  A    between atoms: C_6  and  C_7
REMARK    4  A    between atoms: C_7  and  C_9
REMARK    5  A    between atoms: C_9  and  S_10
REMARK    6  A    between atoms: S_10  and  C_11
REMARK                            x       y       z     vdW  Elec       q    Type
REMARK                         _______ _______ _______ _____ _____    ______ ____
ROOT
ATOM      1  C   UNL     1       6.338   6.395  17.786  0.00  0.00    +0.000 C 
ENDROOT
BRANCH   1   2
ATOM      2  C   UNL     1       4.892   6.436  17.312  0.00  0.00    +0.000 C 
ATOM      3  O   UNL     1       4.550   6.959  16.250  0.00  0.00    +0.000 OA
BRANCH   2   7
ATOM      4  C   UNL     1       1.870   4.247  19.462  0.00  0.00    +0.000 A 
ATOM      5  C   UNL     1       2.306   3.834  18.203  0.00  0.00    +0.000 A 
ATOM      6  C   UNL     1       3.291   4.555  17.526  0.00  0.00    +0.000 A 
ATOM      7  C   UNL     1       3.848   5.709  18.095  0.00  0.00    +0.000 A 
ATOM      8  C   UNL     1       3.389   6.139  19.345  0.00  0.00    +0.000 A 
ATOM      9  C   UNL     1       2.403   5.407  20.025  0.00  0.00    +0.000 A 
BRANCH   4  11
ATOM     10  C   UNL     1       1.244   2.792  21.218  0.00  0.00    +0.000 C 
ATOM     11  O   UNL     1       0.890   3.475  20.020  0.00  0.00    +0.000 OA
ENDBRANCH   4  11
ENDBRANCH   2   7
ENDBRANCH   1   2
BRANCH   1  12
ATOM     12  S   UNL     1       7.088   4.762  17.532  0.00  0.00    +0.000 S 
BRANCH  12  13
ATOM     13  C   UNL     1       6.977   4.667  15.797  0.00  0.00    +0.000 A 
ATOM     14  N   UNL     1       7.606   5.538  15.005  0.00  0.00    +0.000 NA
ATOM     15  N   UNL     1       7.280   5.066  13.793  0.00  0.00    +0.000 N 
ATOM     16  C   UNL     1       6.451   3.982  13.886  0.00  0.00    +0.000 A 
ATOM     17  N   UNL     1       5.963   3.345  12.815  0.00  0.00    +0.000 N 
ATOM     18  N   UNL     1       6.244   3.706  15.149  0.00  0.00    +0.000 NA
ATOM     19  H   UNL     1       7.639   5.523  12.964  0.00  0.00    +0.000 HD
ATOM     20  H   UNL     1       6.415   3.390  11.909  0.00  0.00    +0.000 HD
ATOM     21  H   UNL     1       5.505   2.454  12.991  0.00  0.00    +0.000 HD
ENDBRANCH  12  13
ENDBRANCH   1  12
TORSDOF 5
ENDMDL
MODEL 3
REMARK VINA RESULT:      -6.9      1.266      1.374
REMARK  Name = 
REMARK  6 active torsions:
REMARK  status: ('A' for Active; 'I' for Inactive)
REMARK    1  A    between atoms: C_1  and  O_2
REMARK    2  A    between atoms: O_2  and  C_3
REMARK    3  A    between atoms: C_6  and  C_7
REMARK    4  A    between atoms: C_7  and  C_9
REMARK    5  A    between atoms: C_9  and  S_10
REMARK    6  A    between atoms: S_10  and  C_11
REMARK                            x       y       z     vdW  Elec       q    Type
REMARK                         _______ _______ _______ _____ _____    ______ ____
ROOT
ATOM      1  C   UNL     1       4.400   7.220  17.131  0.00  0.00    +0.000 C 
ENDROOT
BRANCH   1   2
ATOM      2  C   UNL     1       3.072   7.308  17.868  0.00  0.00    +0.000 C 
ATOM      3  O   UNL     1       2.388   8.332  17.897  0.00  0.00    +0.000 OA
BRANCH   2   7
ATOM      4  C   UNL     1       1.444   3.806  19.775  0.00  0.00    +0.000 A 
ATOM      5  C   UNL     1       1.932   4.878  20.522  0.00  0.00    +0.000 A 
ATOM      6  C   UNL     1       2.450   6.006  19.884  0.00  0.00    +0.000 A 
ATOM      7  C   UNL     1       2.498   6.074  18.485  0.00  0.00    +0.000 A 
ATOM      8  C   UNL     1       2.036   4.986  17.736  0.00  0.00    +0.000 A 
ATOM      9  C   UNL     1       1.511   3.857  18.382  0.00  0.00    +0.000 A 
BRANCH   4  11
ATOM     10  C   UNL     1       1.574   2.572  21.788  0.00  0.00    +0.000 C 
ATOM     11  O   UNL     1       0.979   2.749  20.507  0.00  0.00    +0.000 OA
ENDBRANCH   4  11
ENDBRANCH   2   7
ENDBRANCH   1   2
BRANCH   1  12
ATOM     12  S   UNL     1       5.441   5.877  17.768  0.00  0.00    +0.000 S 
BRANCH  12  13
ATOM     13  C   UNL     1       6.157   5.341  16.274  0.00  0.00    +0.000 A 
ATOM     14  N   UNL     1       7.308   5.850  15.826  0.00  0.00    +0.000 NA
ATOM     15  N   UNL     1       7.487   5.133  14.707  0.00  0.00    +0.000 N 
ATOM     16  C   UNL     1       6.447   4.270  14.495  0.00  0.00    +0.000 A 
ATOM     17  N   UNL     1       6.377   3.463  13.430  0.00  0.00    +0.000 N 
ATOM     18  N   UNL     1       5.590   4.381  15.477  0.00  0.00    +0.000 NA
ATOM     19  H   UNL     1       8.313   5.284  14.142  0.00  0.00    +0.000 HD
ATOM     20  H   UNL     1       7.201   3.186  12.909  0.00  0.00    +0.000 HD
ATOM     21  H   UNL     1       5.660   2.742  13.458  0.00  0.00    +0.000 HD
ENDBRANCH  12  13
ENDBRANCH   1  12
TORSDOF 5
ENDMDL
MODEL 4
REMARK VINA RESULT:      -6.8      2.341      3.154
REMARK  Name = 
REMARK  6 active torsions:
REMARK  status: ('A' for Active; 'I' for Inactive)
REMARK    1  A    between atoms: C_1  and  O_2
REMARK    2  A    between atoms: O_2  and  C_3
REMARK    3  A    between atoms: C_6  and  C_7
REMARK    4  A    between atoms: C_7  and  C_9
REMARK    5  A    between atoms: C_9  and  S_10
REMARK    6  A    between atoms: S_10  and  C_11
REMARK                            x       y       z     vdW  Elec       q    Type
REMARK                         _______ _______ _______ _____ _____    ______ ____
ROOT
ATOM      1  C   UNL     1       5.463   3.880  15.955  0.00  0.00    +0.000 C 
ENDROOT
BRANCH   1   2
ATOM      2  C   UNL     1       4.513   4.805  16.703  0.00  0.00    +0.000 C 
ATOM      3  O   UNL     1       4.414   6.007  16.454  0.00  0.00    +0.000 OA
BRANCH   2   7
ATOM      4  C   UNL     1       1.892   3.067  19.645  0.00  0.00    +0.000 A 
ATOM      5  C   UNL     1       3.270   2.857  19.689  0.00  0.00    +0.000 A 
ATOM      6  C   UNL     1       4.102   3.435  18.729  0.00  0.00    +0.000 A 
ATOM      7  C   UNL     1       3.566   4.223  17.702  0.00  0.00    +0.000 A 
ATOM      8  C   UNL     1       2.180   4.409  17.641  0.00  0.00    +0.000 A 
ATOM      9  C   UNL     1       1.348   3.832  18.613  0.00  0.00    +0.000 A 
BRANCH   4  11
ATOM     10  C   UNL     1       1.667   2.596  21.951  0.00  0.00    +0.000 C 
ATOM     11  O   UNL     1       1.176   2.437  20.625  0.00  0.00    +0.000 OA
ENDBRANCH   4  11
ENDBRANCH   2   7
ENDBRANCH   1   2
BRANCH   1  12
ATOM     12  S   UNL     1       6.975   4.739  15.437  0.00  0.00    +0.000 S 
BRANCH  12  13
ATOM     13  C   UNL     1       7.431   5.452  16.959  0.00  0.00    +0.000 A 
ATOM     14  N   UNL     1       7.620   6.768  17.088  0.00  0.00    +0.000 NA
ATOM     15  N   UNL     1       7.905   6.860  18.395  0.00  0.00    +0.000 N 
ATOM     16  C   UNL     1       7.923   5.628  18.989  0.00  0.00    +0.000 A 
ATOM     17  N   UNL     1       8.209   5.449  20.285  0.00  0.00    +0.000 N 
ATOM     18  N   UNL     1       7.624   4.717  18.099  0.00  0.00    +0.000 NA
ATOM     19  H   UNL     1       8.082   7.767  18.807  0.00  0.00    +0.000 HD
ATOM     20  H   UNL     1       8.098   6.189  20.968  0.00  0.00    +0.000 HD
ATOM     21  H   UNL     1       8.024   4.524  20.663  0.00  0.00    +0.000 HD
ENDBRANCH  12  13
ENDBRANCH   1  12
TORSDOF 5
ENDMDL
MODEL 5
REMARK VINA RESULT:      -6.7      3.644      5.601
REMARK  Name = 
REMARK  6 active torsions:
REMARK  status: ('A' for Active; 'I' for Inactive)
REMARK    1  A    between atoms: C_1  and  O_2
REMARK    2  A    between atoms: O_2  and  C_3
REMARK    3  A    between atoms: C_6  and  C_7
REMARK    4  A    between atoms: C_7  and  C_9
REMARK    5  A    between atoms: C_9  and  S_10
REMARK    6  A    between atoms: S_10  and  C_11
REMARK                            x       y       z     vdW  Elec       q    Type
REMARK                         _______ _______ _______ _____ _____    ______ ____
ROOT
ATOM      1  C   UNL     1       2.944   5.539  20.300  0.00  0.00    +0.000 C 
ENDROOT
BRANCH   1   2
ATOM      2  C   UNL     1       3.215   6.237  18.975  0.00  0.00    +0.000 C 
ATOM      3  O   UNL     1       2.555   7.198  18.578  0.00  0.00    +0.000 OA
BRANCH   2   7
ATOM      4  C   UNL     1       6.585   5.133  16.533  0.00  0.00    +0.000 A 
ATOM      5  C   UNL     1       5.539   5.898  16.020  0.00  0.00    +0.000 A 
ATOM      6  C   UNL     1       4.459   6.250  16.831  0.00  0.00    +0.000 A 
ATOM      7  C   UNL     1       4.404   5.830  18.167  0.00  0.00    +0.000 A 
ATOM      8  C   UNL     1       5.440   5.038  18.673  0.00  0.00    +0.000 A 
ATOM      9  C   UNL     1       6.527   4.692  17.856  0.00  0.00    +0.000 A 
BRANCH   4  11
ATOM     10  C   UNL     1       7.209   4.861  14.269  0.00  0.00    +0.000 C 
ATOM     11  O   UNL     1       7.579   4.834  15.643  0.00  0.00    +0.000 OA
ENDBRANCH   4  11
ENDBRANCH   2   7
ENDBRANCH   1   2
BRANCH   1  12
ATOM     12  S   UNL     1       1.462   4.493  20.225  0.00  0.00    +0.000 S 
BRANCH  12  13
ATOM     13  C   UNL     1       2.069   3.215  19.211  0.00  0.00    +0.000 A 
ATOM     14  N   UNL     1       1.517   2.936  18.027  0.00  0.00    +0.000 NA
ATOM     15  N   UNL     1       2.312   1.944  17.600  0.00  0.00    +0.000 N 
ATOM     16  C   UNL     1       3.264   1.632  18.530  0.00  0.00    +0.000 A 
ATOM     17  N   UNL     1       4.163   0.656  18.353  0.00  0.00    +0.000 N 
ATOM     18  N   UNL     1       3.133   2.426  19.562  0.00  0.00    +0.000 NA
ATOM     19  H   UNL     1       2.149   1.527  16.692  0.00  0.00    +0.000 HD
ATOM     20  H   UNL     1       4.421   0.323  17.431  0.00  0.00    +0.000 HD
ATOM     21  H   UNL     1       4.930   0.623  19.019  0.00  0.00    +0.000 HD
ENDBRANCH  12  13
ENDBRANCH   1  12
TORSDOF 5
ENDMDL
MODEL 6
REMARK VINA RESULT:      -6.6      2.662      3.925
REMARK  Name = 
REMARK  6 active torsions:
REMARK  status: ('A' for Active; 'I' for Inactive)
REMARK    1  A    between atoms: C_1  and  O_2
REMARK    2  A    between atoms: O_2  and  C_3
REMARK    3  A    between atoms: C_6  and  C_7
REMARK    4  A    between atoms: C_7  and  C_9
REMARK    5  A    between atoms: C_9  and  S_10
REMARK    6  A    between atoms: S_10  and  C_11
REMARK                            x       y       z     vdW  Elec       q    Type
REMARK                         _______ _______ _______ _____ _____    ______ ____
ROOT
ATOM      1  C   UNL     1       4.308   3.456  17.432  0.00  0.00    +0.000 C 
ENDROOT
BRANCH   1   2
ATOM      2  C   UNL     1       2.861   3.917  17.527  0.00  0.00    +0.000 C 
ATOM      3  O   UNL     1       1.941   3.368  16.918  0.00  0.00    +0.000 OA
BRANCH   2   7
ATOM      4  C   UNL     1       1.870   7.138  20.209  0.00  0.00    +0.000 A 
ATOM      5  C   UNL     1       2.356   7.387  18.926  0.00  0.00    +0.000 A 
ATOM      6  C   UNL     1       2.666   6.328  18.071  0.00  0.00    +0.000 A 
ATOM      7  C   UNL     1       2.504   5.001  18.491  0.00  0.00    +0.000 A 
ATOM      8  C   UNL     1       2.044   4.751  19.789  0.00  0.00    +0.000 A 
ATOM      9  C   UNL     1       1.728   5.819  20.643  0.00  0.00    +0.000 A 
BRANCH   4  11
ATOM     10  C   UNL     1       0.923   9.302  20.304  0.00  0.00    +0.000 C 
ATOM     11  O   UNL     1       1.620   8.250  20.963  0.00  0.00    +0.000 OA
ENDBRANCH   4  11
ENDBRANCH   2   7
ENDBRANCH   1   2
BRANCH   1  12
ATOM     12  S   UNL     1       5.236   4.393  16.185  0.00  0.00    +0.000 S 
BRANCH  12  13
ATOM     13  C   UNL     1       6.373   5.201  17.227  0.00  0.00    +0.000 A 
ATOM     14  N   UNL     1       6.906   6.382  16.902  0.00  0.00    +0.000 NA
ATOM     15  N   UNL     1       7.662   6.628  17.982  0.00  0.00    +0.000 N 
ATOM     16  C   UNL     1       7.599   5.599  18.881  0.00  0.00    +0.000 A 
ATOM     17  N   UNL     1       8.286   5.593  20.029  0.00  0.00    +0.000 N 
ATOM     18  N   UNL     1       6.786   4.680  18.426  0.00  0.00    +0.000 NA
ATOM     19  H   UNL     1       8.189   7.490  18.038  0.00  0.00    +0.000 HD
ATOM     20  H   UNL     1       8.614   6.446  20.466  0.00  0.00    +0.000 HD
ATOM     21  H   UNL     1       8.036   4.871  20.701  0.00  0.00    +0.000 HD
ENDBRANCH  12  13
ENDBRANCH   1  12
TORSDOF 5
ENDMDL
MODEL 7
REMARK VINA RESULT:      -6.6      0.667      1.177
REMARK  Name = 
REMARK  6 active torsions:
REMARK  status: ('A' for Active; 'I' for Inactive)
REMARK    1  A    between atoms: C_1  and  O_2
REMARK    2  A    between atoms: O_2  and  C_3
REMARK    3  A    between atoms: C_6  and  C_7
REMARK    4  A    between atoms: C_7  and  C_9
REMARK    5  A    between atoms: C_9  and  S_10
REMARK    6  A    between atoms: S_10  and  C_11
REMARK                            x       y       z     vdW  Elec       q    Type
REMARK                         _______ _______ _______ _____ _____    ______ ____
ROOT
ATOM      1  C   UNL     1       6.000   6.356  17.953  0.00  0.00    +0.000 C 
ENDROOT
BRANCH   1   2
ATOM      2  C   UNL     1       4.519   6.498  17.634  0.00  0.00    +0.000 C 
ATOM      3  O   UNL     1       4.090   7.274  16.779  0.00  0.00    +0.000 OA
BRANCH   2   7
ATOM      4  C   UNL     1       1.740   3.894  19.644  0.00  0.00    +0.000 A 
ATOM      5  C   UNL     1       2.538   4.789  20.355  0.00  0.00    +0.000 A 
ATOM      6  C   UNL     1       3.428   5.628  19.684  0.00  0.00    +0.000 A 
ATOM      7  C   UNL     1       3.541   5.576  18.288  0.00  0.00    +0.000 A 
ATOM      8  C   UNL     1       2.762   4.658  17.577  0.00  0.00    +0.000 A 
ATOM      9  C   UNL     1       1.863   3.820  18.256  0.00  0.00    +0.000 A 
BRANCH   4  11
ATOM     10  C   UNL     1       1.459   2.681  21.654  0.00  0.00    +0.000 C 
ATOM     11  O   UNL     1       0.921   3.110  20.408  0.00  0.00    +0.000 OA
ENDBRANCH   4  11
ENDBRANCH   2   7
ENDBRANCH   1   2
BRANCH   1  12
ATOM     12  S   UNL     1       6.557   4.633  17.833  0.00  0.00    +0.000 S 
BRANCH  12  13
ATOM     13  C   UNL     1       6.698   4.501  16.102  0.00  0.00    +0.000 A 
ATOM     14  N   UNL     1       6.088   3.529  15.420  0.00  0.00    +0.000 NA
ATOM     15  N   UNL     1       6.433   3.841  14.163  0.00  0.00    +0.000 N 
ATOM     16  C   UNL     1       7.254   4.934  14.127  0.00  0.00    +0.000 A 
ATOM     17  N   UNL     1       7.759   5.429  12.991  0.00  0.00    +0.000 N 
ATOM     18  N   UNL     1       7.438   5.374  15.346  0.00  0.00    +0.000 NA
ATOM     19  H   UNL     1       6.091   3.277  13.395  0.00  0.00    +0.000 HD
ATOM     20  H   UNL     1       7.323   5.263  12.091  0.00  0.00    +0.000 HD
ATOM     21  H   UNL     1       8.209   6.339  13.056  0.00  0.00    +0.000 HD
ENDBRANCH  12  13
ENDBRANCH   1  12
TORSDOF 5
ENDMDL
MODEL 8
REMARK VINA RESULT:      -6.6      2.242      3.023
REMARK  Name = 
REMARK  6 active torsions:
REMARK  status: ('A' for Active; 'I' for Inactive)
REMARK    1  A    between atoms: C_1  and  O_2
REMARK    2  A    between atoms: O_2  and  C_3
REMARK    3  A    between atoms: C_6  and  C_7
REMARK    4  A    between atoms: C_7  and  C_9
REMARK    5  A    between atoms: C_9  and  S_10
REMARK    6  A    between atoms: S_10  and  C_11
REMARK                            x       y       z     vdW  Elec       q    Type
REMARK                         _______ _______ _______ _____ _____    ______ ____
ROOT
ATOM      1  C   UNL     1       5.041   5.724  15.553  0.00  0.00    +0.000 C 
ENDROOT
BRANCH   1   2
ATOM      2  C   UNL     1       4.453   6.044  16.919  0.00  0.00    +0.000 C 
ATOM      3  O   UNL     1       4.460   7.177  17.402  0.00  0.00    +0.000 OA
BRANCH   2   7
ATOM      4  C   UNL     1       2.368   3.040  19.194  0.00  0.00    +0.000 A 
ATOM      5  C   UNL     1       2.859   4.197  19.799  0.00  0.00    +0.000 A 
ATOM      6  C   UNL     1       3.527   5.160  19.042  0.00  0.00    +0.000 A 
ATOM      7  C   UNL     1       3.724   4.976  17.667  0.00  0.00    +0.000 A 
ATOM      8  C   UNL     1       3.258   3.802  17.066  0.00  0.00    +0.000 A 
ATOM      9  C   UNL     1       2.581   2.839  17.830  0.00  0.00    +0.000 A 
BRANCH   4  11
ATOM     10  C   UNL     1       1.526   2.624  21.364  0.00  0.00    +0.000 C 
ATOM     11  O   UNL     1       1.749   2.160  20.037  0.00  0.00    +0.000 OA
ENDBRANCH   4  11
ENDBRANCH   2   7
ENDBRANCH   1   2
BRANCH   1  12
ATOM     12  S   UNL     1       6.555   4.730  15.682  0.00  0.00    +0.000 S 
BRANCH  12  13
ATOM     13  C   UNL     1       7.230   5.431  17.127  0.00  0.00    +0.000 A 
ATOM     14  N   UNL     1       7.636   6.702  17.166  0.00  0.00    +0.000 NA
ATOM     15  N   UNL     1       8.028   6.807  18.444  0.00  0.00    +0.000 N 
ATOM     16  C   UNL     1       7.893   5.618  19.107  0.00  0.00    +0.000 A 
ATOM     17  N   UNL     1       8.241   5.456  20.389  0.00  0.00    +0.000 N 
ATOM     18  N   UNL     1       7.386   4.728  18.293  0.00  0.00    +0.000 NA
ATOM     19  H   UNL     1       8.377   7.691  18.790  0.00  0.00    +0.000 HD
ATOM     20  H   UNL     1       8.301   6.235  21.034  0.00  0.00    +0.000 HD
ATOM     21  H   UNL     1       7.938   4.592  20.833  0.00  0.00    +0.000 HD
ENDBRANCH  12  13
ENDBRANCH   1  12
TORSDOF 5
ENDMDL
MODEL 9
REMARK VINA RESULT:      -6.6      1.283      1.757
REMARK  Name = 
REMARK  6 active torsions:
REMARK  status: ('A' for Active; 'I' for Inactive)
REMARK    1  A    between atoms: C_1  and  O_2
REMARK    2  A    between atoms: O_2  and  C_3
REMARK    3  A    between atoms: C_6  and  C_7
REMARK    4  A    between atoms: C_7  and  C_9
REMARK    5  A    between atoms: C_9  and  S_10
REMARK    6  A    between atoms: S_10  and  C_11
REMARK                            x       y       z     vdW  Elec       q    Type
REMARK                         _______ _______ _______ _____ _____    ______ ____
ROOT
ATOM      1  C   UNL     1       4.355   7.304  16.963  0.00  0.00    +0.000 C 
ENDROOT
BRANCH   1   2
ATOM      2  C   UNL     1       3.079   7.382  17.790  0.00  0.00    +0.000 C 
ATOM      3  O   UNL     1       2.341   8.369  17.791  0.00  0.00    +0.000 OA
BRANCH   2   7
ATOM      4  C   UNL     1       1.708   3.849  19.835  0.00  0.00    +0.000 A 
ATOM      5  C   UNL     1       1.501   4.021  18.467  0.00  0.00    +0.000 A 
ATOM      6  C   UNL     1       1.958   5.171  17.823  0.00  0.00    +0.000 A 
ATOM      7  C   UNL     1       2.623   6.174  18.541  0.00  0.00    +0.000 A 
ATOM      8  C   UNL     1       2.805   6.015  19.919  0.00  0.00    +0.000 A 
ATOM      9  C   UNL     1       2.349   4.854  20.561  0.00  0.00    +0.000 A 
BRANCH   4  11
ATOM     10  C   UNL     1       1.482   2.461  21.736  0.00  0.00    +0.000 C 
ATOM     11  O   UNL     1       1.200   2.693  20.361  0.00  0.00    +0.000 OA
ENDBRANCH   4  11
ENDBRANCH   2   7
ENDBRANCH   1   2
BRANCH   1  12
ATOM     12  S   UNL     1       5.524   6.091  17.637  0.00  0.00    +0.000 S 
BRANCH  12  13
ATOM     13  C   UNL     1       6.191   5.484  16.147  0.00  0.00    +0.000 A 
ATOM     14  N   UNL     1       7.373   5.901  15.686  0.00  0.00    +0.000 NA
ATOM     15  N   UNL     1       7.493   5.158  14.576  0.00  0.00    +0.000 N 
ATOM     16  C   UNL     1       6.392   4.370  14.382  0.00  0.00    +0.000 A 
ATOM     17  N   UNL     1       6.257   3.556  13.328  0.00  0.00    +0.000 N 
ATOM     18  N   UNL     1       5.550   4.557  15.366  0.00  0.00    +0.000 NA
ATOM     19  H   UNL     1       8.325   5.240  14.006  0.00  0.00    +0.000 HD
ATOM     20  H   UNL     1       7.055   3.213  12.807  0.00  0.00    +0.000 HD
ATOM     21  H   UNL     1       5.489   2.890  13.369  0.00  0.00    +0.000 HD
ENDBRANCH  12  13
ENDBRANCH   1  12
TORSDOF 5
ENDMDL
