MODEL 1
REMARK VINA RESULT:      -8.4      0.000      0.000
REMARK  Name = 
REMARK  7 active torsions:
REMARK  status: ('A' for Active; 'I' for Inactive)
REMARK    1  A    between atoms: N_1  and  C_2
REMARK    2  A    between atoms: C_2  and  C_3
REMARK    3  A    between atoms: N_5  and  C_6
REMARK    4  A    between atoms: C_6  and  C_7
REMARK    5  A    between atoms: C_6  and  C_14
REMARK    6  A    between atoms: C_7  and  C_8
REMARK    7  A    between atoms: N_16  and  C_17
REMARK                            x       y       z     vdW  Elec       q    Type
REMARK                         _______ _______ _______ _____ _____    ______ ____
ROOT
ATOM      1  C   UNL     1       3.942   4.507  17.353  0.00  0.00    +0.000 C 
ENDROOT
BRANCH   1   4
ATOM      2  C   UNL     1       5.902   4.587  15.769  0.00  0.00    +0.000 C 
ATOM      3  O   UNL     1       5.228   4.341  14.768  0.00  0.00    +0.000 OA
ATOM      4  N   UNL     1       5.363   4.713  17.025  0.00  0.00    +0.000 N 
ATOM      5  H   UNL     1       5.959   4.985  17.802  0.00  0.00    +0.000 HD
BRANCH   2   6
ATOM      6  C   UNL     1       7.435   4.673  15.709  0.00  0.00    +0.000 C 
BRANCH   6   7
ATOM      7  N   UNL     1       8.009   4.228  16.991  0.00  0.00    +0.000 NA
ATOM      8  H   UNL     1       8.974   3.939  16.838  0.00  0.00    +0.000 HD
ATOM      9  H   UNL     1       7.511   3.384  17.286  0.00  0.00    +0.000 HD
ENDBRANCH   6   7
ENDBRANCH   2   6
ENDBRANCH   1   4
BRANCH   1  10
ATOM     10  C   UNL     1       3.548   5.665  18.319  0.00  0.00    +0.000 C 
ATOM     11  O   UNL     1       4.241   5.853  19.323  0.00  0.00    +0.000 OA
ATOM     12  N   UNL     1       2.461   6.451  17.961  0.00  0.00    +0.000 N 
ATOM     13  H   UNL     1       1.831   6.095  17.256  0.00  0.00    +0.000 HD
BRANCH  12  14
ATOM     14  C   UNL     1       2.016   7.619  18.625  0.00  0.00    +0.000 A 
ATOM     15  C   UNL     1       1.851   8.832  17.961  0.00  0.00    +0.000 A 
ATOM     16  C   UNL     1       1.297   9.932  18.613  0.00  0.00    +0.000 A 
ATOM     17  C   UNL     1       0.912   9.853  19.953  0.00  0.00    +0.000 A 
ATOM     18  C   UNL     1       0.268  10.936  20.571  0.00  0.00    +0.000 A 
ATOM     19  C   UNL     1      -0.087  10.879  21.915  0.00  0.00    +0.000 A 
ATOM     20  C   UNL     1       0.249   9.759  22.669  0.00  0.00    +0.000 A 
ATOM     21  C   UNL     1       0.865   8.661  22.060  0.00  0.00    +0.000 A 
ATOM     22  C   UNL     1       1.162   8.669  20.680  0.00  0.00    +0.000 A 
ATOM     23  C   UNL     1       1.685   7.548  19.990  0.00  0.00    +0.000 A 
ENDBRANCH  12  14
ENDBRANCH   1  10
BRANCH   1  24
ATOM     24  C   UNL     1       3.619   3.085  17.853  0.00  0.00    +0.000 C 
BRANCH  24  25
ATOM     25  C   UNL     1       2.794   2.996  19.116  0.00  0.00    +0.000 A 
ATOM     26  C   UNL     1       3.388   2.714  20.351  0.00  0.00    +0.000 A 
ATOM     27  C   UNL     1       2.609   2.667  21.513  0.00  0.00    +0.000 A 
ATOM     28  C   UNL     1       1.245   2.909  21.460  0.00  0.00    +0.000 A 
ATOM     29  C   UNL     1       0.640   3.200  20.244  0.00  0.00    +0.000 A 
ATOM     30  C   UNL     1       1.410   3.249  19.086  0.00  0.00    +0.000 A 
ENDBRANCH  24  25
ENDBRANCH   1  24
TORSDOF 7
ENDMDL
MODEL 2
REMARK VINA RESULT:      -8.3      0.676      1.154
REMARK  Name = 
REMARK  7 active torsions:
REMARK  status: ('A' for Active; 'I' for Inactive)
REMARK    1  A    between atoms: N_1  and  C_2
REMARK    2  A    between atoms: C_2  and  C_3
REMARK    3  A    between atoms: N_5  and  C_6
REMARK    4  A    between atoms: C_6  and  C_7
REMARK    5  A    between atoms: C_6  and  C_14
REMARK    6  A    between atoms: C_7  and  C_8
REMARK    7  A    between atoms: N_16  and  C_17
REMARK                            x       y       z     vdW  Elec       q    Type
REMARK                         _______ _______ _______ _____ _____    ______ ____
ROOT
ATOM      1  C   UNL     1       4.061   4.503  17.194  0.00  0.00    +0.000 C 
ENDROOT
BRANCH   1   4
ATOM      2  C   UNL     1       5.872   4.564  15.441  0.00  0.00    +0.000 C 
ATOM      3  O   UNL     1       5.120   4.261  14.514  0.00  0.00    +0.000 OA
ATOM      4  N   UNL     1       5.442   4.729  16.733  0.00  0.00    +0.000 N 
ATOM      5  H   UNL     1       6.096   5.047  17.444  0.00  0.00    +0.000 HD
BRANCH   2   6
ATOM      6  C   UNL     1       7.391   4.684  15.242  0.00  0.00    +0.000 C 
BRANCH   6   7
ATOM      7  N   UNL     1       7.674   5.501  14.050  0.00  0.00    +0.000 NA
ATOM      8  H   UNL     1       6.924   5.369  13.373  0.00  0.00    +0.000 HD
ATOM      9  H   UNL     1       8.517   5.129  13.603  0.00  0.00    +0.000 HD
ENDBRANCH   6   7
ENDBRANCH   2   6
ENDBRANCH   1   4
BRANCH   1  10
ATOM     10  C   UNL     1       3.719   5.694  18.140  0.00  0.00    +0.000 C 
ATOM     11  O   UNL     1       4.532   5.999  19.017  0.00  0.00    +0.000 OA
ATOM     12  N   UNL     1       2.533   6.375  17.902  0.00  0.00    +0.000 N 
ATOM     13  H   UNL     1       1.839   5.929  17.321  0.00  0.00    +0.000 HD
BRANCH  12  14
ATOM     14  C   UNL     1       2.097   7.552  18.557  0.00  0.00    +0.000 A 
ATOM     15  C   UNL     1       1.961   8.766  17.887  0.00  0.00    +0.000 A 
ATOM     16  C   UNL     1       1.414   9.876  18.529  0.00  0.00    +0.000 A 
ATOM     17  C   UNL     1       1.008   9.806  19.862  0.00  0.00    +0.000 A 
ATOM     18  C   UNL     1       0.372  10.901  20.468  0.00  0.00    +0.000 A 
ATOM     19  C   UNL     1      -0.005  10.853  21.807  0.00  0.00    +0.000 A 
ATOM     20  C   UNL     1       0.302   9.730  22.569  0.00  0.00    +0.000 A 
ATOM     21  C   UNL     1       0.911   8.622  21.971  0.00  0.00    +0.000 A 
ATOM     22  C   UNL     1       1.229   8.621  20.596  0.00  0.00    +0.000 A 
ATOM     23  C   UNL     1       1.743   7.490  19.917  0.00  0.00    +0.000 A 
ENDBRANCH  12  14
ENDBRANCH   1  10
BRANCH   1  24
ATOM     24  C   UNL     1       3.823   3.099  17.782  0.00  0.00    +0.000 C 
BRANCH  24  25
ATOM     25  C   UNL     1       2.906   3.025  18.980  0.00  0.00    +0.000 A 
ATOM     26  C   UNL     1       1.515   3.027  18.830  0.00  0.00    +0.000 A 
ATOM     27  C   UNL     1       0.684   2.926  19.951  0.00  0.00    +0.000 A 
ATOM     28  C   UNL     1       1.225   2.814  21.224  0.00  0.00    +0.000 A 
ATOM     29  C   UNL     1       2.604   2.801  21.392  0.00  0.00    +0.000 A 
ATOM     30  C   UNL     1       3.434   2.899  20.279  0.00  0.00    +0.000 A 
ENDBRANCH  24  25
ENDBRANCH   1  24
TORSDOF 7
ENDMDL
MODEL 3
REMARK VINA RESULT:      -8.2      1.120      1.463
REMARK  Name = 
REMARK  7 active torsions:
REMARK  status: ('A' for Active; 'I' for Inactive)
REMARK    1  A    between atoms: N_1  and  C_2
REMARK    2  A    between atoms: C_2  and  C_3
REMARK    3  A    between atoms: N_5  and  C_6
REMARK    4  A    between atoms: C_6  and  C_7
REMARK    5  A    between atoms: C_6  and  C_14
REMARK    6  A    between atoms: C_7  and  C_8
REMARK    7  A    between atoms: N_16  and  C_17
REMARK                            x       y       z     vdW  Elec       q    Type
REMARK                         _______ _______ _______ _____ _____    ______ ____
ROOT
ATOM      1  C   UNL     1       3.859   3.654  17.252  0.00  0.00    +0.000 C 
ENDROOT
BRANCH   1   4
ATOM      2  C   UNL     1       6.232   4.225  16.622  0.00  0.00    +0.000 C 
ATOM      3  O   UNL     1       6.078   3.978  15.426  0.00  0.00    +0.000 OA
ATOM      4  N   UNL     1       5.223   4.127  17.546  0.00  0.00    +0.000 N 
ATOM      5  H   UNL     1       5.393   4.410  18.508  0.00  0.00    +0.000 HD
BRANCH   2   6
ATOM      6  C   UNL     1       7.612   4.571  17.203  0.00  0.00    +0.000 C 
BRANCH   6   7
ATOM      7  N   UNL     1       7.694   6.017  17.468  0.00  0.00    +0.000 NA
ATOM      8  H   UNL     1       6.751   6.382  17.600  0.00  0.00    +0.000 HD
ATOM      9  H   UNL     1       8.050   6.475  16.624  0.00  0.00    +0.000 HD
ENDBRANCH   6   7
ENDBRANCH   2   6
ENDBRANCH   1   4
BRANCH   1  10
ATOM     10  C   UNL     1       2.915   4.865  17.520  0.00  0.00    +0.000 C 
ATOM     11  O   UNL     1       1.717   4.747  17.245  0.00  0.00    +0.000 OA
ATOM     12  N   UNL     1       3.476   5.994  18.101  0.00  0.00    +0.000 N 
ATOM     13  H   UNL     1       4.481   6.084  18.086  0.00  0.00    +0.000 HD
BRANCH  12  14
ATOM     14  C   UNL     1       2.779   7.146  18.539  0.00  0.00    +0.000 A 
ATOM     15  C   UNL     1       2.562   8.241  17.708  0.00  0.00    +0.000 A 
ATOM     16  C   UNL     1       1.769   9.308  18.128  0.00  0.00    +0.000 A 
ATOM     17  C   UNL     1       1.188   9.314  19.397  0.00  0.00    +0.000 A 
ATOM     18  C   UNL     1       0.315  10.347  19.772  0.00  0.00    +0.000 A 
ATOM     19  C   UNL     1      -0.241  10.380  21.048  0.00  0.00    +0.000 A 
ATOM     20  C   UNL     1       0.116   9.411  21.980  0.00  0.00    +0.000 A 
ATOM     21  C   UNL     1       0.964   8.361  21.611  0.00  0.00    +0.000 A 
ATOM     22  C   UNL     1       1.474   8.266  20.299  0.00  0.00    +0.000 A 
ATOM     23  C   UNL     1       2.245   7.171  19.841  0.00  0.00    +0.000 A 
ENDBRANCH  12  14
ENDBRANCH   1  10
BRANCH   1  24
ATOM     24  C   UNL     1       3.485   2.347  17.977  0.00  0.00    +0.000 C 
BRANCH  24  25
ATOM     25  C   UNL     1       2.708   2.498  19.264  0.00  0.00    +0.000 A 
ATOM     26  C   UNL     1       1.309   2.462  19.276  0.00  0.00    +0.000 A 
ATOM     27  C   UNL     1       0.611   2.573  20.483  0.00  0.00    +0.000 A 
ATOM     28  C   UNL     1       1.292   2.710  21.684  0.00  0.00    +0.000 A 
ATOM     29  C   UNL     1       2.681   2.738  21.693  0.00  0.00    +0.000 A 
ATOM     30  C   UNL     1       3.379   2.627  20.494  0.00  0.00    +0.000 A 
ENDBRANCH  24  25
ENDBRANCH   1  24
TORSDOF 7
ENDMDL
MODEL 4
REMARK VINA RESULT:      -8.2      2.576      4.783
REMARK  Name = 
REMARK  7 active torsions:
REMARK  status: ('A' for Active; 'I' for Inactive)
REMARK    1  A    between atoms: N_1  and  C_2
REMARK    2  A    between atoms: C_2  and  C_3
REMARK    3  A    between atoms: N_5  and  C_6
REMARK    4  A    between atoms: C_6  and  C_7
REMARK    5  A    between atoms: C_6  and  C_14
REMARK    6  A    between atoms: C_7  and  C_8
REMARK    7  A    between atoms: N_16  and  C_17
REMARK                            x       y       z     vdW  Elec       q    Type
REMARK                         _______ _______ _______ _____ _____    ______ ____
ROOT
ATOM      1  C   UNL     1       5.091   5.574  16.718  0.00  0.00    +0.000 C 
ENDROOT
BRANCH   1   4
ATOM      2  C   UNL     1       7.145   6.525  17.828  0.00  0.00    +0.000 C 
ATOM      3  O   UNL     1       7.259   7.461  17.037  0.00  0.00    +0.000 OA
ATOM      4  N   UNL     1       6.128   5.606  17.764  0.00  0.00    +0.000 N 
ATOM      5  H   UNL     1       6.046   4.895  18.486  0.00  0.00    +0.000 HD
BRANCH   2   6
ATOM      6  C   UNL     1       8.205   6.245  18.905  0.00  0.00    +0.000 C 
BRANCH   6   7
ATOM      7  N   UNL     1       7.603   5.475  20.007  0.00  0.00    +0.000 NA
ATOM      8  H   UNL     1       6.861   4.886  19.632  0.00  0.00    +0.000 HD
ATOM      9  H   UNL     1       7.139   6.134  20.638  0.00  0.00    +0.000 HD
ENDBRANCH   6   7
ENDBRANCH   2   6
ENDBRANCH   1   4
BRANCH   1  10
ATOM     10  C   UNL     1       3.762   6.000  17.413  0.00  0.00    +0.000 C 
ATOM     11  O   UNL     1       2.896   5.141  17.602  0.00  0.00    +0.000 OA
ATOM     12  N   UNL     1       3.654   7.322  17.825  0.00  0.00    +0.000 N 
ATOM     13  H   UNL     1       4.303   7.992  17.439  0.00  0.00    +0.000 HD
BRANCH  12  14
ATOM     14  C   UNL     1       2.595   7.881  18.579  0.00  0.00    +0.000 A 
ATOM     15  C   UNL     1       2.266   7.419  19.851  0.00  0.00    +0.000 A 
ATOM     16  C   UNL     1       1.300   8.069  20.617  0.00  0.00    +0.000 A 
ATOM     17  C   UNL     1       0.624   9.186  20.123  0.00  0.00    +0.000 A 
ATOM     18  C   UNL     1      -0.276   9.887  20.939  0.00  0.00    +0.000 A 
ATOM     19  C   UNL     1      -0.981  10.981  20.445  0.00  0.00    +0.000 A 
ATOM     20  C   UNL     1      -0.833  11.349  19.111  0.00  0.00    +0.000 A 
ATOM     21  C   UNL     1       0.081  10.676  18.294  0.00  0.00    +0.000 A 
ATOM     22  C   UNL     1       0.863   9.615  18.800  0.00  0.00    +0.000 A 
ATOM     23  C   UNL     1       1.878   8.971  18.052  0.00  0.00    +0.000 A 
ENDBRANCH  12  14
ENDBRANCH   1  10
BRANCH   1  24
ATOM     24  C   UNL     1       5.036   4.247  15.937  0.00  0.00    +0.000 C 
BRANCH  24  25
ATOM     25  C   UNL     1       5.765   4.223  14.614  0.00  0.00    +0.000 A 
ATOM     26  C   UNL     1       5.256   3.520  13.517  0.00  0.00    +0.000 A 
ATOM     27  C   UNL     1       5.932   3.537  12.292  0.00  0.00    +0.000 A 
ATOM     28  C   UNL     1       7.108   4.257  12.144  0.00  0.00    +0.000 A 
ATOM     29  C   UNL     1       7.624   4.969  13.219  0.00  0.00    +0.000 A 
ATOM     30  C   UNL     1       6.954   4.956  14.439  0.00  0.00    +0.000 A 
ENDBRANCH  24  25
ENDBRANCH   1  24
TORSDOF 7
ENDMDL
MODEL 5
REMARK VINA RESULT:      -8.2      2.612      4.792
REMARK  Name = 
REMARK  7 active torsions:
REMARK  status: ('A' for Active; 'I' for Inactive)
REMARK    1  A    between atoms: N_1  and  C_2
REMARK    2  A    between atoms: C_2  and  C_3
REMARK    3  A    between atoms: N_5  and  C_6
REMARK    4  A    between atoms: C_6  and  C_7
REMARK    5  A    between atoms: C_6  and  C_14
REMARK    6  A    between atoms: C_7  and  C_8
REMARK    7  A    between atoms: N_16  and  C_17
REMARK                            x       y       z     vdW  Elec       q    Type
REMARK                         _______ _______ _______ _____ _____    ______ ____
ROOT
ATOM      1  C   UNL     1       5.194   5.813  16.407  0.00  0.00    +0.000 C 
ENDROOT
BRANCH   1   4
ATOM      2  C   UNL     1       6.805   5.406  18.302  0.00  0.00    +0.000 C 
ATOM      3  O   UNL     1       6.303   4.330  18.628  0.00  0.00    +0.000 OA
ATOM      4  N   UNL     1       6.359   6.154  17.242  0.00  0.00    +0.000 N 
ATOM      5  H   UNL     1       6.857   6.999  16.978  0.00  0.00    +0.000 HD
BRANCH   2   6
ATOM      6  C   UNL     1       7.925   6.057  19.129  0.00  0.00    +0.000 C 
BRANCH   6   7
ATOM      7  N   UNL     1       8.060   5.360  20.420  0.00  0.00    +0.000 NA
ATOM      8  H   UNL     1       9.021   5.456  20.747  0.00  0.00    +0.000 HD
ATOM      9  H   UNL     1       7.923   4.359  20.256  0.00  0.00    +0.000 HD
ENDBRANCH   6   7
ENDBRANCH   2   6
ENDBRANCH   1   4
BRANCH   1  10
ATOM     10  C   UNL     1       3.936   6.100  17.282  0.00  0.00    +0.000 C 
ATOM     11  O   UNL     1       3.275   5.142  17.693  0.00  0.00    +0.000 OA
ATOM     12  N   UNL     1       3.663   7.426  17.589  0.00  0.00    +0.000 N 
ATOM     13  H   UNL     1       4.116   8.142  17.039  0.00  0.00    +0.000 HD
BRANCH  12  14
ATOM     14  C   UNL     1       2.653   7.894  18.464  0.00  0.00    +0.000 A 
ATOM     15  C   UNL     1       2.407   7.297  19.698  0.00  0.00    +0.000 A 
ATOM     16  C   UNL     1       1.490   7.853  20.588  0.00  0.00    +0.000 A 
ATOM     17  C   UNL     1       0.782   9.010  20.260  0.00  0.00    +0.000 A 
ATOM     18  C   UNL     1      -0.066   9.614  21.200  0.00  0.00    +0.000 A 
ATOM     19  C   UNL     1      -0.802  10.748  20.870  0.00  0.00    +0.000 A 
ATOM     20  C   UNL     1      -0.741  11.255  19.576  0.00  0.00    +0.000 A 
ATOM     21  C   UNL     1       0.121  10.680  18.637  0.00  0.00    +0.000 A 
ATOM     22  C   UNL     1       0.935   9.579  18.976  0.00  0.00    +0.000 A 
ATOM     23  C   UNL     1       1.902   9.027  18.102  0.00  0.00    +0.000 A 
ENDBRANCH  12  14
ENDBRANCH   1  10
BRANCH   1  24
ATOM     24  C   UNL     1       5.264   4.405  15.786  0.00  0.00    +0.000 C 
BRANCH  24  25
ATOM     25  C   UNL     1       5.901   4.311  14.419  0.00  0.00    +0.000 A 
ATOM     26  C   UNL     1       7.094   4.981  14.128  0.00  0.00    +0.000 A 
ATOM     27  C   UNL     1       7.683   4.855  12.865  0.00  0.00    +0.000 A 
ATOM     28  C   UNL     1       7.101   4.059  11.889  0.00  0.00    +0.000 A 
ATOM     29  C   UNL     1       5.921   3.379  12.164  0.00  0.00    +0.000 A 
ATOM     30  C   UNL     1       5.332   3.500  13.419  0.00  0.00    +0.000 A 
ENDBRANCH  24  25
ENDBRANCH   1  24
TORSDOF 7
ENDMDL
MODEL 6
REMARK VINA RESULT:      -8.2      2.291      4.438
REMARK  Name = 
REMARK  7 active torsions:
REMARK  status: ('A' for Active; 'I' for Inactive)
REMARK    1  A    between atoms: N_1  and  C_2
REMARK    2  A    between atoms: C_2  and  C_3
REMARK    3  A    between atoms: N_5  and  C_6
REMARK    4  A    between atoms: C_6  and  C_7
REMARK    5  A    between atoms: C_6  and  C_14
REMARK    6  A    between atoms: C_7  and  C_8
REMARK    7  A    between atoms: N_16  and  C_17
REMARK                            x       y       z     vdW  Elec       q    Type
REMARK                         _______ _______ _______ _____ _____    ______ ____
ROOT
ATOM      1  C   UNL     1       3.393   5.602  19.334  0.00  0.00    +0.000 C 
ENDROOT
BRANCH   1   4
ATOM      2  C   UNL     1       3.634   3.096  19.220  0.00  0.00    +0.000 C 
ATOM      3  O   UNL     1       4.744   3.080  19.752  0.00  0.00    +0.000 OA
ATOM      4  N   UNL     1       2.915   4.246  19.015  0.00  0.00    +0.000 N 
ATOM      5  H   UNL     1       1.975   4.190  18.634  0.00  0.00    +0.000 HD
BRANCH   2   6
ATOM      6  C   UNL     1       2.999   1.822  18.642  0.00  0.00    +0.000 C 
BRANCH   6   7
ATOM      7  N   UNL     1       4.041   0.808  18.406  0.00  0.00    +0.000 NA
ATOM      8  H   UNL     1       4.955   1.256  18.455  0.00  0.00    +0.000 HD
ATOM      9  H   UNL     1       3.948   0.476  17.442  0.00  0.00    +0.000 HD
ENDBRANCH   6   7
ENDBRANCH   2   6
ENDBRANCH   1   4
BRANCH   1  10
ATOM     10  C   UNL     1       2.219   6.312  20.075  0.00  0.00    +0.000 C 
ATOM     11  O   UNL     1       1.414   5.617  20.701  0.00  0.00    +0.000 OA
ATOM     12  N   UNL     1       2.181   7.699  20.025  0.00  0.00    +0.000 N 
ATOM     13  H   UNL     1       2.737   8.163  19.321  0.00  0.00    +0.000 HD
BRANCH  12  14
ATOM     14  C   UNL     1       1.282   8.538  20.726  0.00  0.00    +0.000 A 
ATOM     15  C   UNL     1       1.160   8.500  22.112  0.00  0.00    +0.000 A 
ATOM     16  C   UNL     1       0.357   9.422  22.782  0.00  0.00    +0.000 A 
ATOM     17  C   UNL     1      -0.360  10.393  22.081  0.00  0.00    +0.000 A 
ATOM     18  C   UNL     1      -1.088  11.373  22.772  0.00  0.00    +0.000 A 
ATOM     19  C   UNL     1      -1.834  12.324  22.081  0.00  0.00    +0.000 A 
ATOM     20  C   UNL     1      -1.905  12.267  20.693  0.00  0.00    +0.000 A 
ATOM     21  C   UNL     1      -1.162  11.313  19.990  0.00  0.00    +0.000 A 
ATOM     22  C   UNL     1      -0.337  10.390  20.669  0.00  0.00    +0.000 A 
ATOM     23  C   UNL     1       0.518   9.477  20.007  0.00  0.00    +0.000 A 
ENDBRANCH  12  14
ENDBRANCH   1  10
BRANCH   1  24
ATOM     24  C   UNL     1       3.969   6.361  18.122  0.00  0.00    +0.000 C 
BRANCH  24  25
ATOM     25  C   UNL     1       5.088   5.672  17.377  0.00  0.00    +0.000 A 
ATOM     26  C   UNL     1       4.925   5.249  16.053  0.00  0.00    +0.000 A 
ATOM     27  C   UNL     1       5.986   4.643  15.371  0.00  0.00    +0.000 A 
ATOM     28  C   UNL     1       7.213   4.460  15.991  0.00  0.00    +0.000 A 
ATOM     29  C   UNL     1       7.396   4.882  17.302  0.00  0.00    +0.000 A 
ATOM     30  C   UNL     1       6.345   5.488  17.984  0.00  0.00    +0.000 A 
ENDBRANCH  24  25
ENDBRANCH   1  24
TORSDOF 7
ENDMDL
MODEL 7
REMARK VINA RESULT:      -8.2      1.184      1.930
REMARK  Name = 
REMARK  7 active torsions:
REMARK  status: ('A' for Active; 'I' for Inactive)
REMARK    1  A    between atoms: N_1  and  C_2
REMARK    2  A    between atoms: C_2  and  C_3
REMARK    3  A    between atoms: N_5  and  C_6
REMARK    4  A    between atoms: C_6  and  C_7
REMARK    5  A    between atoms: C_6  and  C_14
REMARK    6  A    between atoms: C_7  and  C_8
REMARK    7  A    between atoms: N_16  and  C_17
REMARK                            x       y       z     vdW  Elec       q    Type
REMARK                         _______ _______ _______ _____ _____    ______ ____
ROOT
ATOM      1  C   UNL     1       3.804   3.392  17.109  0.00  0.00    +0.000 C 
ENDROOT
BRANCH   1   4
ATOM      2  C   UNL     1       5.776   4.345  15.860  0.00  0.00    +0.000 C 
ATOM      3  O   UNL     1       5.242   4.259  14.754  0.00  0.00    +0.000 OA
ATOM      4  N   UNL     1       5.150   3.985  17.027  0.00  0.00    +0.000 N 
ATOM      5  H   UNL     1       5.615   4.143  17.917  0.00  0.00    +0.000 HD
BRANCH   2   6
ATOM      6  C   UNL     1       7.243   4.773  16.017  0.00  0.00    +0.000 C 
BRANCH   6   7
ATOM      7  N   UNL     1       7.812   4.164  17.231  0.00  0.00    +0.000 NA
ATOM      8  H   UNL     1       7.366   4.578  18.048  0.00  0.00    +0.000 HD
ATOM      9  H   UNL     1       8.798   4.434  17.289  0.00  0.00    +0.000 HD
ENDBRANCH   6   7
ENDBRANCH   2   6
ENDBRANCH   1   4
BRANCH   1  10
ATOM     10  C   UNL     1       2.841   4.555  17.496  0.00  0.00    +0.000 C 
ATOM     11  O   UNL     1       1.690   4.538  17.050  0.00  0.00    +0.000 OA
ATOM     12  N   UNL     1       3.328   5.521  18.366  0.00  0.00    +0.000 N 
ATOM     13  H   UNL     1       4.327   5.577  18.501  0.00  0.00    +0.000 HD
BRANCH  12  14
ATOM     14  C   UNL     1       2.588   6.583  18.939  0.00  0.00    +0.000 A 
ATOM     15  C   UNL     1       2.038   6.499  20.216  0.00  0.00    +0.000 A 
ATOM     16  C   UNL     1       1.420   7.604  20.799  0.00  0.00    +0.000 A 
ATOM     17  C   UNL     1       1.319   8.815  20.113  0.00  0.00    +0.000 A 
ATOM     18  C   UNL     1       0.780   9.945  20.746  0.00  0.00    +0.000 A 
ATOM     19  C   UNL     1       0.643  11.148  20.058  0.00  0.00    +0.000 A 
ATOM     20  C   UNL     1       0.991  11.215  18.713  0.00  0.00    +0.000 A 
ATOM     21  C   UNL     1       1.554  10.104  18.077  0.00  0.00    +0.000 A 
ATOM     22  C   UNL     1       1.775   8.900  18.779  0.00  0.00    +0.000 A 
ATOM     23  C   UNL     1       2.439   7.782  18.219  0.00  0.00    +0.000 A 
ENDBRANCH  12  14
ENDBRANCH   1  10
BRANCH   1  24
ATOM     24  C   UNL     1       3.729   2.141  18.005  0.00  0.00    +0.000 C 
BRANCH  24  25
ATOM     25  C   UNL     1       2.934   2.284  19.282  0.00  0.00    +0.000 A 
ATOM     26  C   UNL     1       3.565   2.528  20.506  0.00  0.00    +0.000 A 
ATOM     27  C   UNL     1       2.807   2.689  21.671  0.00  0.00    +0.000 A 
ATOM     28  C   UNL     1       1.423   2.619  21.629  0.00  0.00    +0.000 A 
ATOM     29  C   UNL     1       0.777   2.387  20.421  0.00  0.00    +0.000 A 
ATOM     30  C   UNL     1       1.527   2.227  19.260  0.00  0.00    +0.000 A 
ENDBRANCH  24  25
ENDBRANCH   1  24
TORSDOF 7
ENDMDL
MODEL 8
REMARK VINA RESULT:      -8.1      2.264      4.376
REMARK  Name = 
REMARK  7 active torsions:
REMARK  status: ('A' for Active; 'I' for Inactive)
REMARK    1  A    between atoms: N_1  and  C_2
REMARK    2  A    between atoms: C_2  and  C_3
REMARK    3  A    between atoms: N_5  and  C_6
REMARK    4  A    between atoms: C_6  and  C_7
REMARK    5  A    between atoms: C_6  and  C_14
REMARK    6  A    between atoms: C_7  and  C_8
REMARK    7  A    between atoms: N_16  and  C_17
REMARK                            x       y       z     vdW  Elec       q    Type
REMARK                         _______ _______ _______ _____ _____    ______ ____
ROOT
ATOM      1  C   UNL     1       3.224   5.331  19.705  0.00  0.00    +0.000 C 
ENDROOT
BRANCH   1   4
ATOM      2  C   UNL     1       1.375   3.625  19.547  0.00  0.00    +0.000 C 
ATOM      3  O   UNL     1       0.901   3.892  20.651  0.00  0.00    +0.000 OA
ATOM      4  N   UNL     1       2.455   4.282  19.013  0.00  0.00    +0.000 N 
ATOM      5  H   UNL     1       2.760   4.065  18.068  0.00  0.00    +0.000 HD
BRANCH   2   6
ATOM      6  C   UNL     1       0.853   2.449  18.707  0.00  0.00    +0.000 C 
BRANCH   6   7
ATOM      7  N   UNL     1       1.895   2.009  17.763  0.00  0.00    +0.000 NA
ATOM      8  H   UNL     1       1.510   2.018  16.819  0.00  0.00    +0.000 HD
ATOM      9  H   UNL     1       2.111   1.029  17.963  0.00  0.00    +0.000 HD
ENDBRANCH   6   7
ENDBRANCH   2   6
ENDBRANCH   1   4
BRANCH   1  10
ATOM     10  C   UNL     1       2.439   6.660  19.485  0.00  0.00    +0.000 C 
ATOM     11  O   UNL     1       2.071   6.942  18.341  0.00  0.00    +0.000 OA
ATOM     12  N   UNL     1       2.158   7.427  20.608  0.00  0.00    +0.000 N 
ATOM     13  H   UNL     1       2.679   7.238  21.452  0.00  0.00    +0.000 HD
BRANCH  12  14
ATOM     14  C   UNL     1       1.357   8.593  20.648  0.00  0.00    +0.000 A 
ATOM     15  C   UNL     1       1.159   9.395  19.527  0.00  0.00    +0.000 A 
ATOM     16  C   UNL     1       0.269  10.466  19.566  0.00  0.00    +0.000 A 
ATOM     17  C   UNL     1      -0.432  10.775  20.732  0.00  0.00    +0.000 A 
ATOM     18  C   UNL     1      -1.396  11.795  20.732  0.00  0.00    +0.000 A 
ATOM     19  C   UNL     1      -2.074  12.133  21.899  0.00  0.00    +0.000 A 
ATOM     20  C   UNL     1      -1.755  11.492  23.092  0.00  0.00    +0.000 A 
ATOM     21  C   UNL     1      -0.816  10.455  23.101  0.00  0.00    +0.000 A 
ATOM     22  C   UNL     1      -0.176  10.044  21.913  0.00  0.00    +0.000 A 
ATOM     23  C   UNL     1       0.698   8.932  21.844  0.00  0.00    +0.000 A 
ENDBRANCH  12  14
ENDBRANCH   1  10
BRANCH   1  24
ATOM     24  C   UNL     1       4.715   5.368  19.317  0.00  0.00    +0.000 C 
BRANCH  24  25
ATOM     25  C   UNL     1       5.020   5.276  17.840  0.00  0.00    +0.000 A 
ATOM     26  C   UNL     1       5.225   4.040  17.217  0.00  0.00    +0.000 A 
ATOM     27  C   UNL     1       5.475   3.977  15.842  0.00  0.00    +0.000 A 
ATOM     28  C   UNL     1       5.514   5.133  15.076  0.00  0.00    +0.000 A 
ATOM     29  C   UNL     1       5.303   6.368  15.675  0.00  0.00    +0.000 A 
ATOM     30  C   UNL     1       5.053   6.436  17.043  0.00  0.00    +0.000 A 
ENDBRANCH  24  25
ENDBRANCH   1  24
TORSDOF 7
ENDMDL
MODEL 9
REMARK VINA RESULT:      -8.1      2.270      4.428
REMARK  Name = 
REMARK  7 active torsions:
REMARK  status: ('A' for Active; 'I' for Inactive)
REMARK    1  A    between atoms: N_1  and  C_2
REMARK    2  A    between atoms: C_2  and  C_3
REMARK    3  A    between atoms: N_5  and  C_6
REMARK    4  A    between atoms: C_6  and  C_7
REMARK    5  A    between atoms: C_6  and  C_14
REMARK    6  A    between atoms: C_7  and  C_8
REMARK    7  A    between atoms: N_16  and  C_17
REMARK                            x       y       z     vdW  Elec       q    Type
REMARK                         _______ _______ _______ _____ _____    ______ ____
ROOT
ATOM      1  C   UNL     1       3.309   5.755  19.159  0.00  0.00    +0.000 C 
ENDROOT
BRANCH   1   4
ATOM      2  C   UNL     1       3.909   3.310  19.296  0.00  0.00    +0.000 C 
ATOM      3  O   UNL     1       5.104   3.515  19.506  0.00  0.00    +0.000 OA
ATOM      4  N   UNL     1       2.988   4.317  19.152  0.00  0.00    +0.000 N 
ATOM      5  H   UNL     1       2.003   4.086  19.048  0.00  0.00    +0.000 HD
BRANCH   2   6
ATOM      6  C   UNL     1       3.360   1.892  19.073  0.00  0.00    +0.000 C 
BRANCH   6   7
ATOM      7  N   UNL     1       2.628   1.837  17.796  0.00  0.00    +0.000 NA
ATOM      8  H   UNL     1       1.891   1.137  17.868  0.00  0.00    +0.000 HD
ATOM      9  H   UNL     1       3.269   1.488  17.078  0.00  0.00    +0.000 HD
ENDBRANCH   6   7
ENDBRANCH   2   6
ENDBRANCH   1   4
BRANCH   1  10
ATOM     10  C   UNL     1       2.182   6.445  19.987  0.00  0.00    +0.000 C 
ATOM     11  O   UNL     1       1.492   5.747  20.735  0.00  0.00    +0.000 OA
ATOM     12  N   UNL     1       2.057   7.823  19.866  0.00  0.00    +0.000 N 
ATOM     13  H   UNL     1       2.506   8.272  19.081  0.00  0.00    +0.000 HD
BRANCH  12  14
ATOM     14  C   UNL     1       1.192   8.654  20.617  0.00  0.00    +0.000 A 
ATOM     15  C   UNL     1       1.138   8.606  22.007  0.00  0.00    +0.000 A 
ATOM     16  C   UNL     1       0.367   9.520  22.722  0.00  0.00    +0.000 A 
ATOM     17  C   UNL     1      -0.385  10.494  22.064  0.00  0.00    +0.000 A 
ATOM     18  C   UNL     1      -1.081  11.468  22.797  0.00  0.00    +0.000 A 
ATOM     19  C   UNL     1      -1.862  12.421  22.151  0.00  0.00    +0.000 A 
ATOM     20  C   UNL     1      -2.001  12.375  20.768  0.00  0.00    +0.000 A 
ATOM     21  C   UNL     1      -1.291  11.428  20.023  0.00  0.00    +0.000 A 
ATOM     22  C   UNL     1      -0.432  10.503  20.653  0.00  0.00    +0.000 A 
ATOM     23  C   UNL     1       0.392   9.596  19.944  0.00  0.00    +0.000 A 
ENDBRANCH  12  14
ENDBRANCH   1  10
BRANCH   1  24
ATOM     24  C   UNL     1       3.559   6.344  17.757  0.00  0.00    +0.000 C 
BRANCH  24  25
ATOM     25  C   UNL     1       4.815   5.883  17.056  0.00  0.00    +0.000 A 
ATOM     26  C   UNL     1       6.065   6.422  17.378  0.00  0.00    +0.000 A 
ATOM     27  C   UNL     1       7.220   5.957  16.738  0.00  0.00    +0.000 A 
ATOM     28  C   UNL     1       7.144   4.952  15.786  0.00  0.00    +0.000 A 
ATOM     29  C   UNL     1       5.913   4.398  15.460  0.00  0.00    +0.000 A 
ATOM     30  C   UNL     1       4.762   4.856  16.094  0.00  0.00    +0.000 A 
ENDBRANCH  24  25
ENDBRANCH   1  24
TORSDOF 7
ENDMDL
