MODEL 1
REMARK VINA RESULT:      -8.1      0.000      0.000
REMARK  Name = 
REMARK  4 active torsions:
REMARK  status: ('A' for Active; 'I' for Inactive)
REMARK    1  A    between atoms: C_1  and  C_2
REMARK    2  A    between atoms: C_6  and  N_7
REMARK    3  A    between atoms: C_8  and  C_10
REMARK    4  A    between atoms: C_15  and  C_16
REMARK                            x       y       z     vdW  Elec       q    Type
REMARK                         _______ _______ _______ _____ _____    ______ ____
ROOT
ATOM      1  C   UNL     1       1.292   9.363  19.227  0.00  0.00    +0.000 A 
ATOM      2  C   UNL     1       0.831  10.529  18.745  0.00  0.00    +0.000 A 
ATOM      3  N   UNL     1       0.090  11.430  19.458  0.00  0.00    +0.000 N 
ATOM      4  C   UNL     1      -0.341  11.151  20.755  0.00  0.00    +0.000 A 
ATOM      5  N   UNL     1      -1.170  12.027  21.355  0.00  0.00    +0.000 NA
ATOM      6  C   UNL     1      -1.588  11.737  22.614  0.00  0.00    +0.000 A 
ATOM      7  C   UNL     1      -2.506  12.719  23.277  0.00  0.00    +0.000 C 
ATOM      8  C   UNL     1      -1.201  10.584  23.298  0.00  0.00    +0.000 A 
ATOM      9  C   UNL     1      -0.345   9.693  22.669  0.00  0.00    +0.000 A 
ATOM     10  C   UNL     1       0.090   9.979  21.383  0.00  0.00    +0.000 A 
ATOM     11  C   UNL     1       0.983   9.059  20.654  0.00  0.00    +0.000 A 
ATOM     12  O   UNL     1       1.432   8.058  21.211  0.00  0.00    +0.000 OA
ATOM     13  H   UNL     1      -0.288  12.264  19.029  0.00  0.00    +0.000 HD
ENDROOT
BRANCH   1  15
ATOM     14  N   UNL     1       2.360   7.216  18.860  0.00  0.00    +0.000 N 
ATOM     15  C   UNL     1       2.039   8.447  18.325  0.00  0.00    +0.000 C 
ATOM     16  O   UNL     1       2.277   8.816  17.174  0.00  0.00    +0.000 OA
ATOM     17  H   UNL     1       2.006   7.008  19.799  0.00  0.00    +0.000 HD
BRANCH  14  23
ATOM     18  C   UNL     1       2.533   2.476  17.479  0.00  0.00    +0.000 C 
ATOM     19  C   UNL     1       3.154   3.841  17.520  0.00  0.00    +0.000 A 
ATOM     20  C   UNL     1       4.381   4.081  16.893  0.00  0.00    +0.000 A 
ATOM     21  C   UNL     1       4.947   5.351  16.930  0.00  0.00    +0.000 A 
ATOM     22  C   UNL     1       4.289   6.390  17.583  0.00  0.00    +0.000 A 
ATOM     23  C   UNL     1       3.059   6.181  18.207  0.00  0.00    +0.000 A 
ATOM     24  C   UNL     1       2.504   4.893  18.189  0.00  0.00    +0.000 A 
ENDBRANCH  14  23
ENDBRANCH   1  15
TORSDOF 2
ENDMDL
MODEL 2
REMARK VINA RESULT:      -8.0      0.555      1.456
REMARK  Name = 
REMARK  4 active torsions:
REMARK  status: ('A' for Active; 'I' for Inactive)
REMARK    1  A    between atoms: C_1  and  C_2
REMARK    2  A    between atoms: C_6  and  N_7
REMARK    3  A    between atoms: C_8  and  C_10
REMARK    4  A    between atoms: C_15  and  C_16
REMARK                            x       y       z     vdW  Elec       q    Type
REMARK                         _______ _______ _______ _____ _____    ______ ____
ROOT
ATOM      1  C   UNL     1       1.460   9.072  19.226  0.00  0.00    +0.000 A 
ATOM      2  C   UNL     1       1.058  10.249  18.716  0.00  0.00    +0.000 A 
ATOM      3  N   UNL     1       0.343  11.191  19.400  0.00  0.00    +0.000 N 
ATOM      4  C   UNL     1      -0.125  10.953  20.691  0.00  0.00    +0.000 A 
ATOM      5  N   UNL     1      -0.927  11.873  21.261  0.00  0.00    +0.000 NA
ATOM      6  C   UNL     1      -1.382  11.622  22.515  0.00  0.00    +0.000 A 
ATOM      7  C   UNL     1      -2.270  12.653  23.144  0.00  0.00    +0.000 C 
ATOM      8  C   UNL     1      -1.059  10.465  23.225  0.00  0.00    +0.000 A 
ATOM      9  C   UNL     1      -0.229   9.528  22.628  0.00  0.00    +0.000 A 
ATOM     10  C   UNL     1       0.243   9.775  21.346  0.00  0.00    +0.000 A 
ATOM     11  C   UNL     1       1.110   8.805  20.651  0.00  0.00    +0.000 A 
ATOM     12  O   UNL     1       1.505   7.796  21.232  0.00  0.00    +0.000 OA
ATOM     13  H   UNL     1       0.010  12.034  18.949  0.00  0.00    +0.000 HD
ENDROOT
BRANCH   1  15
ATOM     14  N   UNL     1       2.359   6.845  18.879  0.00  0.00    +0.000 N 
ATOM     15  C   UNL     1       2.185   8.110  18.353  0.00  0.00    +0.000 C 
ATOM     16  O   UNL     1       2.534   8.478  17.232  0.00  0.00    +0.000 OA
ATOM     17  H   UNL     1       1.923   6.653  19.786  0.00  0.00    +0.000 HD
BRANCH  14  23
ATOM     18  C   UNL     1       6.582   4.793  17.343  0.00  0.00    +0.000 C 
ATOM     19  C   UNL     1       5.089   4.741  17.487  0.00  0.00    +0.000 A 
ATOM     20  C   UNL     1       4.371   3.629  17.038  0.00  0.00    +0.000 A 
ATOM     21  C   UNL     1       2.987   3.587  17.181  0.00  0.00    +0.000 A 
ATOM     22  C   UNL     1       2.314   4.648  17.782  0.00  0.00    +0.000 A 
ATOM     23  C   UNL     1       3.008   5.764  18.249  0.00  0.00    +0.000 A 
ATOM     24  C   UNL     1       4.400   5.814  18.081  0.00  0.00    +0.000 A 
ENDBRANCH  14  23
ENDBRANCH   1  15
TORSDOF 2
ENDMDL
MODEL 3
REMARK VINA RESULT:      -7.9      1.944      3.230
REMARK  Name = 
REMARK  4 active torsions:
REMARK  status: ('A' for Active; 'I' for Inactive)
REMARK    1  A    between atoms: C_1  and  C_2
REMARK    2  A    between atoms: C_6  and  N_7
REMARK    3  A    between atoms: C_8  and  C_10
REMARK    4  A    between atoms: C_15  and  C_16
REMARK                            x       y       z     vdW  Elec       q    Type
REMARK                         _______ _______ _______ _____ _____    ______ ____
ROOT
ATOM      1  C   UNL     1       2.350   7.227  19.153  0.00  0.00    +0.000 A 
ATOM      2  C   UNL     1       1.970   7.035  20.427  0.00  0.00    +0.000 A 
ATOM      3  N   UNL     1       1.272   7.940  21.178  0.00  0.00    +0.000 N 
ATOM      4  C   UNL     1       0.978   9.213  20.692  0.00  0.00    +0.000 A 
ATOM      5  N   UNL     1       0.396  10.097  21.526  0.00  0.00    +0.000 NA
ATOM      6  C   UNL     1       0.124  11.336  21.042  0.00  0.00    +0.000 A 
ATOM      7  C   UNL     1      -0.526  12.312  21.974  0.00  0.00    +0.000 C 
ATOM      8  C   UNL     1       0.422  11.724  19.735  0.00  0.00    +0.000 A 
ATOM      9  C   UNL     1       1.017  10.803  18.886  0.00  0.00    +0.000 A 
ATOM     10  C   UNL     1       1.299   9.533  19.371  0.00  0.00    +0.000 A 
ATOM     11  C   UNL     1       1.951   8.518  18.522  0.00  0.00    +0.000 A 
ATOM     12  O   UNL     1       2.178   8.752  17.336  0.00  0.00    +0.000 OA
ATOM     13  H   UNL     1       1.066   7.772  22.154  0.00  0.00    +0.000 HD
ENDROOT
BRANCH   1  15
ATOM     14  N   UNL     1       4.391   6.591  18.006  0.00  0.00    +0.000 N 
ATOM     15  C   UNL     1       3.157   6.182  18.469  0.00  0.00    +0.000 C 
ATOM     16  O   UNL     1       2.706   5.038  18.401  0.00  0.00    +0.000 OA
ATOM     17  H   UNL     1       4.677   7.550  18.225  0.00  0.00    +0.000 HD
BRANCH  14  23
ATOM     18  C   UNL     1       5.689   4.190  13.888  0.00  0.00    +0.000 C 
ATOM     19  C   UNL     1       5.986   4.603  15.300  0.00  0.00    +0.000 A 
ATOM     20  C   UNL     1       7.186   4.228  15.912  0.00  0.00    +0.000 A 
ATOM     21  C   UNL     1       7.455   4.619  17.220  0.00  0.00    +0.000 A 
ATOM     22  C   UNL     1       6.535   5.394  17.920  0.00  0.00    +0.000 A 
ATOM     23  C   UNL     1       5.334   5.791  17.330  0.00  0.00    +0.000 A 
ATOM     24  C   UNL     1       5.056   5.374  16.020  0.00  0.00    +0.000 A 
ENDBRANCH  14  23
ENDBRANCH   1  15
TORSDOF 2
ENDMDL
MODEL 4
REMARK VINA RESULT:      -7.9      1.910      2.542
REMARK  Name = 
REMARK  4 active torsions:
REMARK  status: ('A' for Active; 'I' for Inactive)
REMARK    1  A    between atoms: C_1  and  C_2
REMARK    2  A    between atoms: C_6  and  N_7
REMARK    3  A    between atoms: C_8  and  C_10
REMARK    4  A    between atoms: C_15  and  C_16
REMARK                            x       y       z     vdW  Elec       q    Type
REMARK                         _______ _______ _______ _____ _____    ______ ____
ROOT
ATOM      1  C   UNL     1       2.262   8.066  18.493  0.00  0.00    +0.000 A 
ATOM      2  C   UNL     1       1.996   9.051  17.618  0.00  0.00    +0.000 A 
ATOM      3  N   UNL     1       1.248  10.160  17.895  0.00  0.00    +0.000 N 
ATOM      4  C   UNL     1       0.600  10.312  19.120  0.00  0.00    +0.000 A 
ATOM      5  N   UNL     1      -0.220  11.368  19.283  0.00  0.00    +0.000 NA
ATOM      6  C   UNL     1      -0.852  11.497  20.478  0.00  0.00    +0.000 A 
ATOM      7  C   UNL     1      -1.758  12.677  20.654  0.00  0.00    +0.000 C 
ATOM      8  C   UNL     1      -0.689  10.590  21.526  0.00  0.00    +0.000 A 
ATOM      9  C   UNL     1       0.161   9.509  21.346  0.00  0.00    +0.000 A 
ATOM     10  C   UNL     1       0.812   9.369  20.129  0.00  0.00    +0.000 A 
ATOM     11  C   UNL     1       1.711   8.228  19.870  0.00  0.00    +0.000 A 
ATOM     12  O   UNL     1       1.969   7.424  20.765  0.00  0.00    +0.000 OA
ATOM     13  H   UNL     1       1.024  10.841  17.181  0.00  0.00    +0.000 HD
ENDROOT
BRANCH   1  15
ATOM     14  N   UNL     1       4.348   7.139  17.672  0.00  0.00    +0.000 N 
ATOM     15  C   UNL     1       3.043   6.884  18.044  0.00  0.00    +0.000 C 
ATOM     16  O   UNL     1       2.507   5.776  18.074  0.00  0.00    +0.000 OA
ATOM     17  H   UNL     1       4.690   8.097  17.797  0.00  0.00    +0.000 HD
BRANCH  14  23
ATOM     18  C   UNL     1       5.881   4.153  14.048  0.00  0.00    +0.000 C 
ATOM     19  C   UNL     1       6.050   4.713  15.430  0.00  0.00    +0.000 A 
ATOM     20  C   UNL     1       7.133   4.324  16.224  0.00  0.00    +0.000 A 
ATOM     21  C   UNL     1       7.286   4.852  17.502  0.00  0.00    +0.000 A 
ATOM     22  C   UNL     1       6.367   5.777  17.991  0.00  0.00    +0.000 A 
ATOM     23  C   UNL     1       5.284   6.191  17.214  0.00  0.00    +0.000 A 
ATOM     24  C   UNL     1       5.119   5.637  15.936  0.00  0.00    +0.000 A 
ENDBRANCH  14  23
ENDBRANCH   1  15
TORSDOF 2
ENDMDL
MODEL 5
REMARK VINA RESULT:      -7.8      1.631      2.435
REMARK  Name = 
REMARK  4 active torsions:
REMARK  status: ('A' for Active; 'I' for Inactive)
REMARK    1  A    between atoms: C_1  and  C_2
REMARK    2  A    between atoms: C_6  and  N_7
REMARK    3  A    between atoms: C_8  and  C_10
REMARK    4  A    between atoms: C_15  and  C_16
REMARK                            x       y       z     vdW  Elec       q    Type
REMARK                         _______ _______ _______ _____ _____    ______ ____
ROOT
ATOM      1  C   UNL     1       2.123   8.149  18.659  0.00  0.00    +0.000 A 
ATOM      2  C   UNL     1       2.087   9.109  17.718  0.00  0.00    +0.000 A 
ATOM      3  N   UNL     1       1.473  10.321  17.864  0.00  0.00    +0.000 N 
ATOM      4  C   UNL     1       0.729  10.626  19.002  0.00  0.00    +0.000 A 
ATOM      5  N   UNL     1       0.049  11.789  19.029  0.00  0.00    +0.000 NA
ATOM      6  C   UNL     1      -0.679  12.068  20.141  0.00  0.00    +0.000 A 
ATOM      7  C   UNL     1      -1.428  13.366  20.164  0.00  0.00    +0.000 C 
ATOM      8  C   UNL     1      -0.752  11.209  21.238  0.00  0.00    +0.000 A 
ATOM      9  C   UNL     1      -0.045  10.017  21.198  0.00  0.00    +0.000 A 
ATOM     10  C   UNL     1       0.704   9.723  20.067  0.00  0.00    +0.000 A 
ATOM     11  C   UNL     1       1.459   8.460  19.958  0.00  0.00    +0.000 A 
ATOM     12  O   UNL     1       1.511   7.682  20.909  0.00  0.00    +0.000 OA
ATOM     13  H   UNL     1       1.420  10.983  17.101  0.00  0.00    +0.000 HD
ENDROOT
BRANCH   1  15
ATOM     14  N   UNL     1       2.136   5.730  18.840  0.00  0.00    +0.000 N 
ATOM     15  C   UNL     1       2.776   6.850  18.349  0.00  0.00    +0.000 C 
ATOM     16  O   UNL     1       3.793   6.851  17.655  0.00  0.00    +0.000 OA
ATOM     17  H   UNL     1       1.240   5.875  19.314  0.00  0.00    +0.000 HD
BRANCH  14  23
ATOM     18  C   UNL     1       4.754   1.908  20.556  0.00  0.00    +0.000 C 
ATOM     19  C   UNL     1       3.844   2.499  19.519  0.00  0.00    +0.000 A 
ATOM     20  C   UNL     1       3.400   1.727  18.442  0.00  0.00    +0.000 A 
ATOM     21  C   UNL     1       2.552   2.281  17.488  0.00  0.00    +0.000 A 
ATOM     22  C   UNL     1       2.135   3.605  17.608  0.00  0.00    +0.000 A 
ATOM     23  C   UNL     1       2.555   4.394  18.680  0.00  0.00    +0.000 A 
ATOM     24  C   UNL     1       3.430   3.839  19.625  0.00  0.00    +0.000 A 
ENDBRANCH  14  23
ENDBRANCH   1  15
TORSDOF 2
ENDMDL
MODEL 6
REMARK VINA RESULT:      -7.6      6.712      9.201
REMARK  Name = 
REMARK  4 active torsions:
REMARK  status: ('A' for Active; 'I' for Inactive)
REMARK    1  A    between atoms: C_1  and  C_2
REMARK    2  A    between atoms: C_6  and  N_7
REMARK    3  A    between atoms: C_8  and  C_10
REMARK    4  A    between atoms: C_15  and  C_16
REMARK                            x       y       z     vdW  Elec       q    Type
REMARK                         _______ _______ _______ _____ _____    ______ ____
ROOT
ATOM      1  C   UNL     1       7.465   7.110  18.134  0.00  0.00    +0.000 A 
ATOM      2  C   UNL     1       7.822   6.241  19.095  0.00  0.00    +0.000 A 
ATOM      3  N   UNL     1       7.192   5.055  19.348  0.00  0.00    +0.000 N 
ATOM      4  C   UNL     1       6.030   4.690  18.670  0.00  0.00    +0.000 A 
ATOM      5  N   UNL     1       5.391   3.568  19.053  0.00  0.00    +0.000 NA
ATOM      6  C   UNL     1       4.256   3.231  18.388  0.00  0.00    +0.000 A 
ATOM      7  C   UNL     1       3.553   1.979  18.817  0.00  0.00    +0.000 C 
ATOM      8  C   UNL     1       3.732   3.993  17.343  0.00  0.00    +0.000 A 
ATOM      9  C   UNL     1       4.402   5.144  16.956  0.00  0.00    +0.000 A 
ATOM     10  C   UNL     1       5.564   5.497  17.628  0.00  0.00    +0.000 A 
ATOM     11  C   UNL     1       6.308   6.721  17.277  0.00  0.00    +0.000 A 
ATOM     12  O   UNL     1       5.958   7.408  16.319  0.00  0.00    +0.000 OA
ATOM     13  H   UNL     1       7.462   4.467  20.126  0.00  0.00    +0.000 HD
ENDROOT
BRANCH   1  15
ATOM     14  N   UNL     1       8.621   8.963  19.189  0.00  0.00    +0.000 N 
ATOM     15  C   UNL     1       8.203   8.394  18.003  0.00  0.00    +0.000 C 
ATOM     16  O   UNL     1       8.428   8.833  16.875  0.00  0.00    +0.000 OA
ATOM     17  H   UNL     1       8.451   8.431  20.048  0.00  0.00    +0.000 HD
BRANCH  14  23
ATOM     18  C   UNL     1      10.944  12.747  17.023  0.00  0.00    +0.000 C 
ATOM     19  C   UNL     1      10.484  12.045  18.267  0.00  0.00    +0.000 A 
ATOM     20  C   UNL     1      10.731  12.599  19.527  0.00  0.00    +0.000 A 
ATOM     21  C   UNL     1      10.296  11.944  20.675  0.00  0.00    +0.000 A 
ATOM     22  C   UNL     1       9.604  10.740  20.572  0.00  0.00    +0.000 A 
ATOM     23  C   UNL     1       9.335  10.171  19.327  0.00  0.00    +0.000 A 
ATOM     24  C   UNL     1       9.797  10.821  18.173  0.00  0.00    +0.000 A 
ENDBRANCH  14  23
ENDBRANCH   1  15
TORSDOF 2
ENDMDL
MODEL 7
REMARK VINA RESULT:      -7.5      6.578      8.964
REMARK  Name = 
REMARK  4 active torsions:
REMARK  status: ('A' for Active; 'I' for Inactive)
REMARK    1  A    between atoms: C_1  and  C_2
REMARK    2  A    between atoms: C_6  and  N_7
REMARK    3  A    between atoms: C_8  and  C_10
REMARK    4  A    between atoms: C_15  and  C_16
REMARK                            x       y       z     vdW  Elec       q    Type
REMARK                         _______ _______ _______ _____ _____    ______ ____
ROOT
ATOM      1  C   UNL     1       7.272   6.858  17.939  0.00  0.00    +0.000 A 
ATOM      2  C   UNL     1       7.622   6.113  19.000  0.00  0.00    +0.000 A 
ATOM      3  N   UNL     1       6.944   5.009  19.436  0.00  0.00    +0.000 N 
ATOM      4  C   UNL     1       5.741   4.617  18.850  0.00  0.00    +0.000 A 
ATOM      5  N   UNL     1       5.062   3.595  19.406  0.00  0.00    +0.000 NA
ATOM      6  C   UNL     1       3.888   3.231  18.830  0.00  0.00    +0.000 A 
ATOM      7  C   UNL     1       3.141   2.090  19.451  0.00  0.00    +0.000 C 
ATOM      8  C   UNL     1       3.363   3.868  17.705  0.00  0.00    +0.000 A 
ATOM      9  C   UNL     1       4.074   4.917  17.141  0.00  0.00    +0.000 A 
ATOM     10  C   UNL     1       5.276   5.296  17.721  0.00  0.00    +0.000 A 
ATOM     11  C   UNL     1       6.066   6.418  17.180  0.00  0.00    +0.000 A 
ATOM     12  O   UNL     1       5.715   6.984  16.146  0.00  0.00    +0.000 OA
ATOM     13  H   UNL     1       7.214   4.520  20.280  0.00  0.00    +0.000 HD
ENDROOT
BRANCH   1  15
ATOM     14  N   UNL     1       8.099   9.046  18.583  0.00  0.00    +0.000 N 
ATOM     15  C   UNL     1       8.067   8.071  17.607  0.00  0.00    +0.000 C 
ATOM     16  O   UNL     1       8.666   8.108  16.532  0.00  0.00    +0.000 OA
ATOM     17  H   UNL     1       7.636   8.833  19.472  0.00  0.00    +0.000 HD
BRANCH  14  23
ATOM     18  C   UNL     1      11.942  11.821  19.975  0.00  0.00    +0.000 C 
ATOM     19  C   UNL     1      10.675  11.657  19.188  0.00  0.00    +0.000 A 
ATOM     20  C   UNL     1      10.207  12.692  18.373  0.00  0.00    +0.000 A 
ATOM     21  C   UNL     1       9.034  12.530  17.642  0.00  0.00    +0.000 A 
ATOM     22  C   UNL     1       8.328  11.331  17.711  0.00  0.00    +0.000 A 
ATOM     23  C   UNL     1       8.780  10.278  18.507  0.00  0.00    +0.000 A 
ATOM     24  C   UNL     1       9.949  10.455  19.262  0.00  0.00    +0.000 A 
ENDBRANCH  14  23
ENDBRANCH   1  15
TORSDOF 2
ENDMDL
MODEL 8
REMARK VINA RESULT:      -7.5      2.414      7.839
REMARK  Name = 
REMARK  4 active torsions:
REMARK  status: ('A' for Active; 'I' for Inactive)
REMARK    1  A    between atoms: C_1  and  C_2
REMARK    2  A    between atoms: C_6  and  N_7
REMARK    3  A    between atoms: C_8  and  C_10
REMARK    4  A    between atoms: C_15  and  C_16
REMARK                            x       y       z     vdW  Elec       q    Type
REMARK                         _______ _______ _______ _____ _____    ______ ____
ROOT
ATOM      1  C   UNL     1       1.939   7.496  19.890  0.00  0.00    +0.000 A 
ATOM      2  C   UNL     1       1.693   6.592  20.854  0.00  0.00    +0.000 A 
ATOM      3  N   UNL     1       2.065   5.278  20.804  0.00  0.00    +0.000 N 
ATOM      4  C   UNL     1       2.661   4.735  19.667  0.00  0.00    +0.000 A 
ATOM      5  N   UNL     1       2.890   3.407  19.638  0.00  0.00    +0.000 NA
ATOM      6  C   UNL     1       3.463   2.891  18.520  0.00  0.00    +0.000 A 
ATOM      7  C   UNL     1       3.719   1.415  18.496  0.00  0.00    +0.000 C 
ATOM      8  C   UNL     1       3.815   3.670  17.416  0.00  0.00    +0.000 A 
ATOM      9  C   UNL     1       3.577   5.035  17.462  0.00  0.00    +0.000 A 
ATOM     10  C   UNL     1       2.993   5.573  18.600  0.00  0.00    +0.000 A 
ATOM     11  C   UNL     1       2.695   7.015  18.698  0.00  0.00    +0.000 A 
ATOM     12  O   UNL     1       3.041   7.784  17.803  0.00  0.00    +0.000 OA
ATOM     13  H   UNL     1       1.799   4.624  21.528  0.00  0.00    +0.000 HD
ENDROOT
BRANCH   1  15
ATOM     14  N   UNL     1       1.153   9.552  18.869  0.00  0.00    +0.000 N 
ATOM     15  C   UNL     1       1.427   8.884  20.046  0.00  0.00    +0.000 C 
ATOM     16  O   UNL     1       1.242   9.321  21.182  0.00  0.00    +0.000 OA
ATOM     17  H   UNL     1       1.258   9.024  17.997  0.00  0.00    +0.000 HD
BRANCH  14  23
ATOM     18  C   UNL     1       2.110  14.386  18.521  0.00  0.00    +0.000 C 
ATOM     19  C   UNL     1       1.123  13.257  18.581  0.00  0.00    +0.000 A 
ATOM     20  C   UNL     1      -0.249  13.511  18.489  0.00  0.00    +0.000 A 
ATOM     21  C   UNL     1      -1.158  12.458  18.540  0.00  0.00    +0.000 A 
ATOM     22  C   UNL     1      -0.704  11.148  18.672  0.00  0.00    +0.000 A 
ATOM     23  C   UNL     1       0.661  10.868  18.755  0.00  0.00    +0.000 A 
ATOM     24  C   UNL     1       1.572  11.933  18.728  0.00  0.00    +0.000 A 
ENDBRANCH  14  23
ENDBRANCH   1  15
TORSDOF 2
ENDMDL
MODEL 9
REMARK VINA RESULT:      -7.4      1.998      8.283
REMARK  Name = 
REMARK  4 active torsions:
REMARK  status: ('A' for Active; 'I' for Inactive)
REMARK    1  A    between atoms: C_1  and  C_2
REMARK    2  A    between atoms: C_6  and  N_7
REMARK    3  A    between atoms: C_8  and  C_10
REMARK    4  A    between atoms: C_15  and  C_16
REMARK                            x       y       z     vdW  Elec       q    Type
REMARK                         _______ _______ _______ _____ _____    ______ ____
ROOT
ATOM      1  C   UNL     1       2.830   6.158  19.211  0.00  0.00    +0.000 A 
ATOM      2  C   UNL     1       3.086   4.842  19.301  0.00  0.00    +0.000 A 
ATOM      3  N   UNL     1       3.885   4.143  18.441  0.00  0.00    +0.000 N 
ATOM      4  C   UNL     1       4.433   4.743  17.308  0.00  0.00    +0.000 A 
ATOM      5  N   UNL     1       5.109   3.968  16.437  0.00  0.00    +0.000 NA
ATOM      6  C   UNL     1       5.629   4.565  15.335  0.00  0.00    +0.000 A 
ATOM      7  C   UNL     1       6.382   3.697  14.373  0.00  0.00    +0.000 C 
ATOM      8  C   UNL     1       5.491   5.928  15.071  0.00  0.00    +0.000 A 
ATOM      9  C   UNL     1       4.796   6.715  15.977  0.00  0.00    +0.000 A 
ATOM     10  C   UNL     1       4.261   6.115  17.109  0.00  0.00    +0.000 A 
ATOM     11  C   UNL     1       3.494   6.895  18.097  0.00  0.00    +0.000 A 
ATOM     12  O   UNL     1       3.389   8.116  17.981  0.00  0.00    +0.000 OA
ATOM     13  H   UNL     1       3.994   3.140  18.516  0.00  0.00    +0.000 HD
ENDROOT
BRANCH   1  15
ATOM     14  N   UNL     1       1.811   8.162  20.123  0.00  0.00    +0.000 N 
ATOM     15  C   UNL     1       1.894   6.786  20.182  0.00  0.00    +0.000 C 
ATOM     16  O   UNL     1       1.238   6.056  20.926  0.00  0.00    +0.000 OA
ATOM     17  H   UNL     1       2.340   8.631  19.381  0.00  0.00    +0.000 HD
BRANCH  14  23
ATOM     18  C   UNL     1      -1.493  11.823  20.428  0.00  0.00    +0.000 C 
ATOM     19  C   UNL     1      -0.633  10.790  21.095  0.00  0.00    +0.000 A 
ATOM     20  C   UNL     1      -0.667  10.627  22.483  0.00  0.00    +0.000 A 
ATOM     21  C   UNL     1       0.130   9.663  23.093  0.00  0.00    +0.000 A 
ATOM     22  C   UNL     1       0.955   8.849  22.321  0.00  0.00    +0.000 A 
ATOM     23  C   UNL     1       1.000   8.983  20.933  0.00  0.00    +0.000 A 
ATOM     24  C   UNL     1       0.215   9.973  20.324  0.00  0.00    +0.000 A 
ENDBRANCH  14  23
ENDBRANCH   1  15
TORSDOF 2
ENDMDL
