MODEL 1
REMARK VINA RESULT:      -9.1      0.000      0.000
REMARK  Name = 
REMARK  12 active torsions:
REMARK  status: ('A' for Active; 'I' for Inactive)
REMARK    1  A    between atoms: C_1  and  O_2
REMARK    2  A    between atoms: O_2  and  C_3
REMARK    3  A    between atoms: C_3  and  C_5
REMARK    4  A    between atoms: C_8  and  C_9
REMARK    5  A    between atoms: C_9  and  O_10
REMARK    6  A    between atoms: O_10  and  C_11
REMARK    7  A    between atoms: C_15  and  O_16
REMARK    8  A    between atoms: O_16  and  C_17
REMARK    9  A    between atoms: C_17  and  C_18
REMARK   10  A    between atoms: C_29  and  O_30
REMARK   11  A    between atoms: O_30  and  C_31
REMARK   12  A    between atoms: C_31  and  C_32
REMARK                            x       y       z     vdW  Elec       q    Type
REMARK                         _______ _______ _______ _____ _____    ______ ____
ROOT
ATOM      1  C   UNL     1       1.990   5.955  18.773  0.00  0.00    +0.000 C 
ENDROOT
BRANCH   1   5
ATOM      2  C   UNL     1       5.370   5.048  16.225  0.00  0.00    +0.000 A 
ATOM      3  C   UNL     1       5.242   6.303  16.818  0.00  0.00    +0.000 A 
ATOM      4  C   UNL     1       4.153   6.587  17.640  0.00  0.00    +0.000 A 
ATOM      5  C   UNL     1       3.167   5.616  17.879  0.00  0.00    +0.000 A 
ATOM      6  C   UNL     1       3.302   4.346  17.288  0.00  0.00    +0.000 A 
ATOM      7  C   UNL     1       4.405   4.061  16.472  0.00  0.00    +0.000 A 
BRANCH   2   8
ATOM      8  C   UNL     1       6.559   4.811  15.357  0.00  0.00    +0.000 C 
ATOM      9  O   UNL     1       7.514   5.570  15.305  0.00  0.00    +0.000 OA
BRANCH   8  11
ATOM     10  C   UNL     1       6.348   3.874  13.233  0.00  0.00    +0.000 C 
ATOM     11  O   UNL     1       6.420   3.665  14.645  0.00  0.00    +0.000 OA
ENDBRANCH   8  11
ENDBRANCH   2   8
BRANCH   6  12
ATOM     12  O   UNL     1       2.329   3.434  17.596  0.00  0.00    +0.000 OA
BRANCH  12  13
ATOM     13  C   UNL     1       2.722   2.275  18.341  0.00  0.00    +0.000 C 
BRANCH  13  14
ATOM     14  C   UNL     1       2.444   2.470  19.791  0.00  0.00    +0.000 A 
ATOM     15  N   UNL     1       1.177   2.587  20.299  0.00  0.00    +0.000 NA
ATOM     16  N   UNL     1       1.311   2.719  21.611  0.00  0.00    +0.000 NA
ATOM     17  N   UNL     1       2.630   2.669  21.827  0.00  0.00    +0.000 N 
ATOM     18  N   UNL     1       3.401   2.536  20.735  0.00  0.00    +0.000 NA
ATOM     19  H   UNL     1       3.021   2.732  22.763  0.00  0.00    +0.000 HD
ENDBRANCH  13  14
ENDBRANCH  12  13
ENDBRANCH   6  12
ENDBRANCH   1   5
BRANCH   1  20
ATOM     20  O   UNL     1       2.401   6.769  19.872  0.00  0.00    +0.000 OA
BRANCH  20  21
ATOM     21  C   UNL     1       1.783   7.971  20.082  0.00  0.00    +0.000 A 
ATOM     22  C   UNL     1       1.451   8.228  21.413  0.00  0.00    +0.000 A 
ATOM     23  C   UNL     1       0.832   9.425  21.764  0.00  0.00    +0.000 A 
ATOM     24  C   UNL     1       0.522  10.361  20.775  0.00  0.00    +0.000 A 
ATOM     25  C   UNL     1       0.795  10.094  19.430  0.00  0.00    +0.000 A 
ATOM     26  C   UNL     1       1.431   8.895  19.091  0.00  0.00    +0.000 A 
BRANCH  25  27
ATOM     27  O   UNL     1       0.437  11.082  18.546  0.00  0.00    +0.000 OA
BRANCH  27  28
ATOM     28  C   UNL     1      -0.399  12.146  19.042  0.00  0.00    +0.000 C 
BRANCH  28  29
ATOM     29  C   UNL     1      -1.868  11.966  18.676  0.00  0.00    +0.000 A 
ATOM     30  C   UNL     1      -2.231  11.281  17.524  0.00  0.00    +0.000 A 
ATOM     31  C   UNL     1      -3.579  11.097  17.243  0.00  0.00    +0.000 A 
ATOM     32  C   UNL     1      -4.544  11.488  18.173  0.00  0.00    +0.000 A 
ATOM     33  C   UNL     1      -5.899  11.180  17.965  0.00  0.00    +0.000 A 
ATOM     34  C   UNL     1      -6.836  11.425  18.963  0.00  0.00    +0.000 A 
ATOM     35  C   UNL     1      -6.428  12.036  20.142  0.00  0.00    +0.000 A 
ATOM     36  C   UNL     1      -5.084  12.407  20.311  0.00  0.00    +0.000 A 
ATOM     37  C   UNL     1      -4.111  12.125  19.353  0.00  0.00    +0.000 A 
ATOM     38  N   UNL     1      -2.800  12.395  19.579  0.00  0.00    +0.000 NA
ENDBRANCH  28  29
ENDBRANCH  27  28
ENDBRANCH  25  27
ENDBRANCH  20  21
ENDBRANCH   1  20
TORSDOF 11
ENDMDL
MODEL 2
REMARK VINA RESULT:      -9.1      0.824      1.443
REMARK  Name = 
REMARK  12 active torsions:
REMARK  status: ('A' for Active; 'I' for Inactive)
REMARK    1  A    between atoms: C_1  and  O_2
REMARK    2  A    between atoms: O_2  and  C_3
REMARK    3  A    between atoms: C_3  and  C_5
REMARK    4  A    between atoms: C_8  and  C_9
REMARK    5  A    between atoms: C_9  and  O_10
REMARK    6  A    between atoms: O_10  and  C_11
REMARK    7  A    between atoms: C_15  and  O_16
REMARK    8  A    between atoms: O_16  and  C_17
REMARK    9  A    between atoms: C_17  and  C_18
REMARK   10  A    between atoms: C_29  and  O_30
REMARK   11  A    between atoms: O_30  and  C_31
REMARK   12  A    between atoms: C_31  and  C_32
REMARK                            x       y       z     vdW  Elec       q    Type
REMARK                         _______ _______ _______ _____ _____    ______ ____
ROOT
ATOM      1  C   UNL     1       2.074   6.280  18.490  0.00  0.00    +0.000 C 
ENDROOT
BRANCH   1   5
ATOM      2  C   UNL     1       5.668   5.168  16.349  0.00  0.00    +0.000 A 
ATOM      3  C   UNL     1       5.478   6.478  16.790  0.00  0.00    +0.000 A 
ATOM      4  C   UNL     1       4.320   6.827  17.482  0.00  0.00    +0.000 A 
ATOM      5  C   UNL     1       3.326   5.869  17.740  0.00  0.00    +0.000 A 
ATOM      6  C   UNL     1       3.524   4.545  17.304  0.00  0.00    +0.000 A 
ATOM      7  C   UNL     1       4.695   4.195  16.620  0.00  0.00    +0.000 A 
BRANCH   2   8
ATOM      8  C   UNL     1       6.930   4.862  15.616  0.00  0.00    +0.000 C 
ATOM      9  O   UNL     1       7.916   4.377  16.149  0.00  0.00    +0.000 OA
BRANCH   8  11
ATOM     10  C   UNL     1       6.518   4.102  13.450  0.00  0.00    +0.000 C 
ATOM     11  O   UNL     1       6.827   5.204  14.307  0.00  0.00    +0.000 OA
ENDBRANCH   8  11
ENDBRANCH   2   8
BRANCH   6  12
ATOM     12  O   UNL     1       2.536   3.654  17.625  0.00  0.00    +0.000 OA
BRANCH  12  13
ATOM     13  C   UNL     1       2.898   2.536  18.446  0.00  0.00    +0.000 C 
BRANCH  13  14
ATOM     14  C   UNL     1       2.301   2.672  19.803  0.00  0.00    +0.000 A 
ATOM     15  N   UNL     1       3.055   2.781  20.942  0.00  0.00    +0.000 NA
ATOM     16  N   UNL     1       2.198   2.910  21.946  0.00  0.00    +0.000 NA
ATOM     17  N   UNL     1       0.991   2.879  21.371  0.00  0.00    +0.000 N 
ATOM     18  N   UNL     1       0.977   2.712  20.039  0.00  0.00    +0.000 NA
ATOM     19  H   UNL     1       0.137   2.974  21.915  0.00  0.00    +0.000 HD
ENDBRANCH  13  14
ENDBRANCH  12  13
ENDBRANCH   6  12
ENDBRANCH   1   5
BRANCH   1  20
ATOM     20  O   UNL     1       2.403   7.008  19.674  0.00  0.00    +0.000 OA
BRANCH  20  21
ATOM     21  C   UNL     1       1.604   8.048  20.062  0.00  0.00    +0.000 A 
ATOM     22  C   UNL     1       1.106   7.942  21.363  0.00  0.00    +0.000 A 
ATOM     23  C   UNL     1       0.293   8.943  21.887  0.00  0.00    +0.000 A 
ATOM     24  C   UNL     1      -0.045  10.046  21.098  0.00  0.00    +0.000 A 
ATOM     25  C   UNL     1       0.398  10.138  19.775  0.00  0.00    +0.000 A 
ATOM     26  C   UNL     1       1.227   9.134  19.265  0.00  0.00    +0.000 A 
BRANCH  25  27
ATOM     27  O   UNL     1      -0.005  11.260  19.093  0.00  0.00    +0.000 OA
BRANCH  27  28
ATOM     28  C   UNL     1      -1.090  11.114  18.156  0.00  0.00    +0.000 C 
BRANCH  28  29
ATOM     29  C   UNL     1      -2.430  11.572  18.724  0.00  0.00    +0.000 A 
ATOM     30  C   UNL     1      -2.480  12.426  19.817  0.00  0.00    +0.000 A 
ATOM     31  C   UNL     1      -3.715  12.859  20.281  0.00  0.00    +0.000 A 
ATOM     32  C   UNL     1      -4.876  12.536  19.577  0.00  0.00    +0.000 A 
ATOM     33  C   UNL     1      -6.114  13.083  19.955  0.00  0.00    +0.000 A 
ATOM     34  C   UNL     1      -7.238  12.891  19.160  0.00  0.00    +0.000 A 
ATOM     35  C   UNL     1      -7.139  12.099  18.024  0.00  0.00    +0.000 A 
ATOM     36  C   UNL     1      -5.915  11.494  17.694  0.00  0.00    +0.000 A 
ATOM     37  C   UNL     1      -4.756  11.713  18.440  0.00  0.00    +0.000 A 
ATOM     38  N   UNL     1      -3.560  11.208  18.046  0.00  0.00    +0.000 NA
ENDBRANCH  28  29
ENDBRANCH  27  28
ENDBRANCH  25  27
ENDBRANCH  20  21
ENDBRANCH   1  20
TORSDOF 11
ENDMDL
MODEL 3
REMARK VINA RESULT:      -8.8      5.226      9.689
REMARK  Name = 
REMARK  12 active torsions:
REMARK  status: ('A' for Active; 'I' for Inactive)
REMARK    1  A    between atoms: C_1  and  O_2
REMARK    2  A    between atoms: O_2  and  C_3
REMARK    3  A    between atoms: C_3  and  C_5
REMARK    4  A    between atoms: C_8  and  C_9
REMARK    5  A    between atoms: C_9  and  O_10
REMARK    6  A    between atoms: O_10  and  C_11
REMARK    7  A    between atoms: C_15  and  O_16
REMARK    8  A    between atoms: O_16  and  C_17
REMARK    9  A    between atoms: C_17  and  C_18
REMARK   10  A    between atoms: C_29  and  O_30
REMARK   11  A    between atoms: O_30  and  C_31
REMARK   12  A    between atoms: C_31  and  C_32
REMARK                            x       y       z     vdW  Elec       q    Type
REMARK                         _______ _______ _______ _____ _____    ______ ____
ROOT
ATOM      1  C   UNL     1       3.343   5.638  17.579  0.00  0.00    +0.000 C 
ENDROOT
BRANCH   1   5
ATOM      2  C   UNL     1       1.478   8.738  19.956  0.00  0.00    +0.000 A 
ATOM      3  C   UNL     1       1.670   8.910  18.585  0.00  0.00    +0.000 A 
ATOM      4  C   UNL     1       2.268   7.906  17.825  0.00  0.00    +0.000 A 
ATOM      5  C   UNL     1       2.690   6.710  18.429  0.00  0.00    +0.000 A 
ATOM      6  C   UNL     1       2.487   6.534  19.811  0.00  0.00    +0.000 A 
ATOM      7  C   UNL     1       1.874   7.540  20.568  0.00  0.00    +0.000 A 
BRANCH   2   8
ATOM      8  C   UNL     1       0.833   9.851  20.709  0.00  0.00    +0.000 C 
ATOM      9  O   UNL     1       0.937   9.994  21.917  0.00  0.00    +0.000 OA
BRANCH   8  11
ATOM     10  C   UNL     1      -0.921  11.378  20.534  0.00  0.00    +0.000 C 
ATOM     11  O   UNL     1       0.121  10.653  19.877  0.00  0.00    +0.000 OA
ENDBRANCH   8  11
ENDBRANCH   2   8
BRANCH   6  12
ATOM     12  O   UNL     1       2.883   5.330  20.326  0.00  0.00    +0.000 OA
BRANCH  12  13
ATOM     13  C   UNL     1       1.866   4.476  20.865  0.00  0.00    +0.000 C 
BRANCH  13  14
ATOM     14  C   UNL     1       1.578   3.354  19.929  0.00  0.00    +0.000 A 
ATOM     15  N   UNL     1       0.360   3.180  19.325  0.00  0.00    +0.000 NA
ATOM     16  N   UNL     1       0.477   2.110  18.550  0.00  0.00    +0.000 NA
ATOM     17  N   UNL     1       1.740   1.703  18.718  0.00  0.00    +0.000 N 
ATOM     18  N   UNL     1       2.480   2.419  19.580  0.00  0.00    +0.000 NA
ATOM     19  H   UNL     1       2.112   0.897  18.222  0.00  0.00    +0.000 HD
ENDBRANCH  13  14
ENDBRANCH  12  13
ENDBRANCH   6  12
ENDBRANCH   1   5
BRANCH   1  20
ATOM     20  O   UNL     1       4.385   6.189  16.773  0.00  0.00    +0.000 OA
BRANCH  20  21
ATOM     21  C   UNL     1       5.602   6.447  17.339  0.00  0.00    +0.000 A 
ATOM     22  C   UNL     1       6.141   5.384  18.065  0.00  0.00    +0.000 A 
ATOM     23  C   UNL     1       7.385   5.511  18.679  0.00  0.00    +0.000 A 
ATOM     24  C   UNL     1       8.084   6.717  18.587  0.00  0.00    +0.000 A 
ATOM     25  C   UNL     1       7.531   7.811  17.912  0.00  0.00    +0.000 A 
ATOM     26  C   UNL     1       6.288   7.666  17.287  0.00  0.00    +0.000 A 
BRANCH  25  27
ATOM     27  O   UNL     1       8.303   8.946  17.896  0.00  0.00    +0.000 OA
BRANCH  27  28
ATOM     28  C   UNL     1       9.057   9.254  19.085  0.00  0.00    +0.000 C 
BRANCH  28  29
ATOM     29  C   UNL     1       9.495  10.714  19.148  0.00  0.00    +0.000 A 
ATOM     30  C   UNL     1       9.572  11.377  20.365  0.00  0.00    +0.000 A 
ATOM     31  C   UNL     1      10.017  12.692  20.392  0.00  0.00    +0.000 A 
ATOM     32  C   UNL     1      10.495  13.289  19.225  0.00  0.00    +0.000 A 
ATOM     33  C   UNL     1      11.078  14.568  19.266  0.00  0.00    +0.000 A 
ATOM     34  C   UNL     1      11.698  15.093  18.138  0.00  0.00    +0.000 A 
ATOM     35  C   UNL     1      11.678  14.369  16.953  0.00  0.00    +0.000 A 
ATOM     36  C   UNL     1      11.029  13.124  16.901  0.00  0.00    +0.000 A 
ATOM     37  C   UNL     1      10.447  12.545  18.029  0.00  0.00    +0.000 A 
ATOM     38  N   UNL     1       9.918  11.296  17.986  0.00  0.00    +0.000 NA
ENDBRANCH  28  29
ENDBRANCH  27  28
ENDBRANCH  25  27
ENDBRANCH  20  21
ENDBRANCH   1  20
TORSDOF 11
ENDMDL
MODEL 4
REMARK VINA RESULT:      -8.8      2.477      4.366
REMARK  Name = 
REMARK  12 active torsions:
REMARK  status: ('A' for Active; 'I' for Inactive)
REMARK    1  A    between atoms: C_1  and  O_2
REMARK    2  A    between atoms: O_2  and  C_3
REMARK    3  A    between atoms: C_3  and  C_5
REMARK    4  A    between atoms: C_8  and  C_9
REMARK    5  A    between atoms: C_9  and  O_10
REMARK    6  A    between atoms: O_10  and  C_11
REMARK    7  A    between atoms: C_15  and  O_16
REMARK    8  A    between atoms: O_16  and  C_17
REMARK    9  A    between atoms: C_17  and  C_18
REMARK   10  A    between atoms: C_29  and  O_30
REMARK   11  A    between atoms: O_30  and  C_31
REMARK   12  A    between atoms: C_31  and  C_32
REMARK                            x       y       z     vdW  Elec       q    Type
REMARK                         _______ _______ _______ _____ _____    ______ ____
ROOT
ATOM      1  C   UNL     1       2.219   7.656  18.250  0.00  0.00    +0.000 C 
ENDROOT
BRANCH   1   5
ATOM      2  C   UNL     1       5.440   5.150  16.804  0.00  0.00    +0.000 A 
ATOM      3  C   UNL     1       5.555   6.540  16.785  0.00  0.00    +0.000 A 
ATOM      4  C   UNL     1       4.515   7.341  17.255  0.00  0.00    +0.000 A 
ATOM      5  C   UNL     1       3.336   6.760  17.750  0.00  0.00    +0.000 A 
ATOM      6  C   UNL     1       3.225   5.357  17.778  0.00  0.00    +0.000 A 
ATOM      7  C   UNL     1       4.277   4.556  17.316  0.00  0.00    +0.000 A 
BRANCH   2   8
ATOM      8  C   UNL     1       6.589   4.354  16.287  0.00  0.00    +0.000 C 
ATOM      9  O   UNL     1       7.735   4.491  16.685  0.00  0.00    +0.000 OA
BRANCH   8  11
ATOM     10  C   UNL     1       6.251   4.027  14.003  0.00  0.00    +0.000 C 
ATOM     11  O   UNL     1       6.185   3.486  15.325  0.00  0.00    +0.000 OA
ENDBRANCH   8  11
ENDBRANCH   2   8
BRANCH   6  12
ATOM     12  O   UNL     1       2.067   4.858  18.311  0.00  0.00    +0.000 OA
BRANCH  12  13
ATOM     13  C   UNL     1       1.984   3.440  18.496  0.00  0.00    +0.000 C 
BRANCH  13  14
ATOM     14  C   UNL     1       2.055   3.098  19.944  0.00  0.00    +0.000 A 
ATOM     15  N   UNL     1       3.194   2.630  20.545  0.00  0.00    +0.000 NA
ATOM     16  N   UNL     1       2.898   2.462  21.827  0.00  0.00    +0.000 NA
ATOM     17  N   UNL     1       1.618   2.837  21.934  0.00  0.00    +0.000 N 
ATOM     18  N   UNL     1       1.021   3.226  20.796  0.00  0.00    +0.000 NA
ATOM     19  H   UNL     1       1.130   2.823  22.825  0.00  0.00    +0.000 HD
ENDBRANCH  13  14
ENDBRANCH  12  13
ENDBRANCH   6  12
ENDBRANCH   1   5
BRANCH   1  20
ATOM     20  O   UNL     1       2.192   7.691  19.677  0.00  0.00    +0.000 OA
BRANCH  20  21
ATOM     21  C   UNL     1       1.401   8.611  20.308  0.00  0.00    +0.000 A 
ATOM     22  C   UNL     1       1.306   8.442  21.691  0.00  0.00    +0.000 A 
ATOM     23  C   UNL     1       0.544   9.323  22.455  0.00  0.00    +0.000 A 
ATOM     24  C   UNL     1      -0.146  10.365  21.830  0.00  0.00    +0.000 A 
ATOM     25  C   UNL     1      -0.107  10.513  20.440  0.00  0.00    +0.000 A 
ATOM     26  C   UNL     1       0.674   9.631  19.685  0.00  0.00    +0.000 A 
BRANCH  25  27
ATOM     27  O   UNL     1      -0.831  11.565  19.937  0.00  0.00    +0.000 OA
BRANCH  27  28
ATOM     28  C   UNL     1      -0.537  11.991  18.592  0.00  0.00    +0.000 C 
BRANCH  28  29
ATOM     29  C   UNL     1       0.279  13.279  18.542  0.00  0.00    +0.000 A 
ATOM     30  C   UNL     1      -0.292  14.492  18.902  0.00  0.00    +0.000 A 
ATOM     31  C   UNL     1       0.491  15.639  18.887  0.00  0.00    +0.000 A 
ATOM     32  C   UNL     1       1.860  15.544  18.634  0.00  0.00    +0.000 A 
ATOM     33  C   UNL     1       2.687  16.674  18.755  0.00  0.00    +0.000 A 
ATOM     34  C   UNL     1       4.068  16.547  18.662  0.00  0.00    +0.000 A 
ATOM     35  C   UNL     1       4.618  15.302  18.383  0.00  0.00    +0.000 A 
ATOM     36  C   UNL     1       3.780  14.191  18.190  0.00  0.00    +0.000 A 
ATOM     37  C   UNL     1       2.394  14.275  18.332  0.00  0.00    +0.000 A 
ATOM     38  N   UNL     1       1.610  13.172  18.248  0.00  0.00    +0.000 NA
ENDBRANCH  28  29
ENDBRANCH  27  28
ENDBRANCH  25  27
ENDBRANCH  20  21
ENDBRANCH   1  20
TORSDOF 11
ENDMDL
MODEL 5
REMARK VINA RESULT:      -8.7      1.928      2.645
REMARK  Name = 
REMARK  12 active torsions:
REMARK  status: ('A' for Active; 'I' for Inactive)
REMARK    1  A    between atoms: C_1  and  O_2
REMARK    2  A    between atoms: O_2  and  C_3
REMARK    3  A    between atoms: C_3  and  C_5
REMARK    4  A    between atoms: C_8  and  C_9
REMARK    5  A    between atoms: C_9  and  O_10
REMARK    6  A    between atoms: O_10  and  C_11
REMARK    7  A    between atoms: C_15  and  O_16
REMARK    8  A    between atoms: O_16  and  C_17
REMARK    9  A    between atoms: C_17  and  C_18
REMARK   10  A    between atoms: C_29  and  O_30
REMARK   11  A    between atoms: O_30  and  C_31
REMARK   12  A    between atoms: C_31  and  C_32
REMARK                            x       y       z     vdW  Elec       q    Type
REMARK                         _______ _______ _______ _____ _____    ______ ____
ROOT
ATOM      1  C   UNL     1       4.174   6.184  19.308  0.00  0.00    +0.000 C 
ENDROOT
BRANCH   1   5
ATOM      2  C   UNL     1       5.954   4.881  15.583  0.00  0.00    +0.000 A 
ATOM      3  C   UNL     1       5.804   6.239  15.864  0.00  0.00    +0.000 A 
ATOM      4  C   UNL     1       5.234   6.651  17.067  0.00  0.00    +0.000 A 
ATOM      5  C   UNL     1       4.797   5.706  18.010  0.00  0.00    +0.000 A 
ATOM      6  C   UNL     1       4.956   4.336  17.729  0.00  0.00    +0.000 A 
ATOM      7  C   UNL     1       5.542   3.927  16.524  0.00  0.00    +0.000 A 
BRANCH   2   8
ATOM      8  C   UNL     1       6.572   4.509  14.278  0.00  0.00    +0.000 C 
ATOM      9  O   UNL     1       6.106   3.662  13.531  0.00  0.00    +0.000 OA
BRANCH   8  11
ATOM     10  C   UNL     1       7.994   5.418  12.670  0.00  0.00    +0.000 C 
ATOM     11  O   UNL     1       7.705   5.222  14.056  0.00  0.00    +0.000 OA
ENDBRANCH   8  11
ENDBRANCH   2   8
BRANCH   6  12
ATOM     12  O   UNL     1       4.548   3.472  18.708  0.00  0.00    +0.000 OA
BRANCH  12  13
ATOM     13  C   UNL     1       3.717   2.373  18.314  0.00  0.00    +0.000 C 
BRANCH  13  14
ATOM     14  C   UNL     1       2.360   2.506  18.911  0.00  0.00    +0.000 A 
ATOM     15  N   UNL     1       1.207   2.334  18.190  0.00  0.00    +0.000 NA
ATOM     16  N   UNL     1       0.205   2.500  19.043  0.00  0.00    +0.000 NA
ATOM     17  N   UNL     1       0.794   2.753  20.217  0.00  0.00    +0.000 N 
ATOM     18  N   UNL     1       2.135   2.794  20.207  0.00  0.00    +0.000 NA
ATOM     19  H   UNL     1       0.253   2.908  21.064  0.00  0.00    +0.000 HD
ENDBRANCH  13  14
ENDBRANCH  12  13
ENDBRANCH   6  12
ENDBRANCH   1   5
BRANCH   1  20
ATOM     20  O   UNL     1       2.752   6.258  19.195  0.00  0.00    +0.000 OA
BRANCH  20  21
ATOM     21  C   UNL     1       2.136   7.475  19.295  0.00  0.00    +0.000 A 
ATOM     22  C   UNL     1       2.175   8.242  18.129  0.00  0.00    +0.000 A 
ATOM     23  C   UNL     1       1.570   9.496  18.092  0.00  0.00    +0.000 A 
ATOM     24  C   UNL     1       0.943   9.997  19.236  0.00  0.00    +0.000 A 
ATOM     25  C   UNL     1       0.946   9.266  20.428  0.00  0.00    +0.000 A 
ATOM     26  C   UNL     1       1.544   8.001  20.448  0.00  0.00    +0.000 A 
BRANCH  25  27
ATOM     27  O   UNL     1       0.309   9.862  21.488  0.00  0.00    +0.000 OA
BRANCH  27  28
ATOM     28  C   UNL     1       0.305  11.302  21.536  0.00  0.00    +0.000 C 
BRANCH  28  29
ATOM     29  C   UNL     1      -1.102  11.891  21.561  0.00  0.00    +0.000 A 
ATOM     30  C   UNL     1      -1.794  12.119  20.380  0.00  0.00    +0.000 A 
ATOM     31  C   UNL     1      -3.090  12.615  20.440  0.00  0.00    +0.000 A 
ATOM     32  C   UNL     1      -3.723  12.762  21.675  0.00  0.00    +0.000 A 
ATOM     33  C   UNL     1      -5.078  13.127  21.742  0.00  0.00    +0.000 A 
ATOM     34  C   UNL     1      -5.749  13.115  22.960  0.00  0.00    +0.000 A 
ATOM     35  C   UNL     1      -5.049  12.801  24.118  0.00  0.00    +0.000 A 
ATOM     36  C   UNL     1      -3.677  12.509  24.051  0.00  0.00    +0.000 A 
ATOM     37  C   UNL     1      -2.988  12.458  22.839  0.00  0.00    +0.000 A 
ATOM     38  N   UNL     1      -1.689  12.070  22.782  0.00  0.00    +0.000 NA
ENDBRANCH  28  29
ENDBRANCH  27  28
ENDBRANCH  25  27
ENDBRANCH  20  21
ENDBRANCH   1  20
TORSDOF 11
ENDMDL
MODEL 6
REMARK VINA RESULT:      -8.6      3.087     10.210
REMARK  Name = 
REMARK  12 active torsions:
REMARK  status: ('A' for Active; 'I' for Inactive)
REMARK    1  A    between atoms: C_1  and  O_2
REMARK    2  A    between atoms: O_2  and  C_3
REMARK    3  A    between atoms: C_3  and  C_5
REMARK    4  A    between atoms: C_8  and  C_9
REMARK    5  A    between atoms: C_9  and  O_10
REMARK    6  A    between atoms: O_10  and  C_11
REMARK    7  A    between atoms: C_15  and  O_16
REMARK    8  A    between atoms: O_16  and  C_17
REMARK    9  A    between atoms: C_17  and  C_18
REMARK   10  A    between atoms: C_29  and  O_30
REMARK   11  A    between atoms: O_30  and  C_31
REMARK   12  A    between atoms: C_31  and  C_32
REMARK                            x       y       z     vdW  Elec       q    Type
REMARK                         _______ _______ _______ _____ _____    ______ ____
ROOT
ATOM      1  C   UNL     1       1.696   7.887  20.020  0.00  0.00    +0.000 C 
ENDROOT
BRANCH   1   5
ATOM      2  C   UNL     1      -0.550  10.852  22.235  0.00  0.00    +0.000 A 
ATOM      3  C   UNL     1       0.017   9.757  22.885  0.00  0.00    +0.000 A 
ATOM      4  C   UNL     1       0.742   8.808  22.166  0.00  0.00    +0.000 A 
ATOM      5  C   UNL     1       0.907   8.939  20.777  0.00  0.00    +0.000 A 
ATOM      6  C   UNL     1       0.342  10.049  20.124  0.00  0.00    +0.000 A 
ATOM      7  C   UNL     1      -0.375  11.007  20.852  0.00  0.00    +0.000 A 
BRANCH   2   8
ATOM      8  C   UNL     1      -1.312  11.829  23.063  0.00  0.00    +0.000 C 
ATOM      9  O   UNL     1      -2.471  11.657  23.409  0.00  0.00    +0.000 OA
BRANCH   8  11
ATOM     10  C   UNL     1      -1.298  14.132  23.426  0.00  0.00    +0.000 C 
ATOM     11  O   UNL     1      -0.553  12.914  23.358  0.00  0.00    +0.000 OA
ENDBRANCH   8  11
ENDBRANCH   2   8
BRANCH   6  12
ATOM     12  O   UNL     1       0.577  10.137  18.778  0.00  0.00    +0.000 OA
BRANCH  12  13
ATOM     13  C   UNL     1      -0.361   9.499  17.902  0.00  0.00    +0.000 C 
BRANCH  13  14
ATOM     14  C   UNL     1      -1.579  10.340  17.741  0.00  0.00    +0.000 A 
ATOM     15  N   UNL     1      -2.850   9.831  17.800  0.00  0.00    +0.000 NA
ATOM     16  N   UNL     1      -3.672  10.860  17.643  0.00  0.00    +0.000 NA
ATOM     17  N   UNL     1      -2.869  11.921  17.507  0.00  0.00    +0.000 N 
ATOM     18  N   UNL     1      -1.550  11.670  17.536  0.00  0.00    +0.000 NA
ATOM     19  H   UNL     1      -3.239  12.860  17.385  0.00  0.00    +0.000 HD
ENDBRANCH  13  14
ENDBRANCH  12  13
ENDBRANCH   6  12
ENDBRANCH   1   5
BRANCH   1  20
ATOM     20  O   UNL     1       1.753   6.664  20.755  0.00  0.00    +0.000 OA
BRANCH  20  21
ATOM     21  C   UNL     1       1.707   5.476  20.079  0.00  0.00    +0.000 A 
ATOM     22  C   UNL     1       1.050   4.448  20.757  0.00  0.00    +0.000 A 
ATOM     23  C   UNL     1       0.920   3.191  20.172  0.00  0.00    +0.000 A 
ATOM     24  C   UNL     1       1.471   2.953  18.910  0.00  0.00    +0.000 A 
ATOM     25  C   UNL     1       2.182   3.956  18.243  0.00  0.00    +0.000 A 
ATOM     26  C   UNL     1       2.293   5.219  18.835  0.00  0.00    +0.000 A 
BRANCH  25  27
ATOM     27  O   UNL     1       2.687   3.606  17.015  0.00  0.00    +0.000 OA
BRANCH  27  28
ATOM     28  C   UNL     1       4.071   3.206  16.955  0.00  0.00    +0.000 C 
BRANCH  28  29
ATOM     29  C   UNL     1       5.030   4.392  16.937  0.00  0.00    +0.000 A 
ATOM     30  C   UNL     1       4.860   5.424  16.025  0.00  0.00    +0.000 A 
ATOM     31  C   UNL     1       5.726   6.510  16.065  0.00  0.00    +0.000 A 
ATOM     32  C   UNL     1       6.670   6.612  17.087  0.00  0.00    +0.000 A 
ATOM     33  C   UNL     1       7.454   7.770  17.220  0.00  0.00    +0.000 A 
ATOM     34  C   UNL     1       8.275   7.938  18.329  0.00  0.00    +0.000 A 
ATOM     35  C   UNL     1       8.361   6.921  19.271  0.00  0.00    +0.000 A 
ATOM     36  C   UNL     1       7.631   5.735  19.092  0.00  0.00    +0.000 A 
ATOM     37  C   UNL     1       6.756   5.559  18.020  0.00  0.00    +0.000 A 
ATOM     38  N   UNL     1       5.977   4.452  17.920  0.00  0.00    +0.000 NA
ENDBRANCH  28  29
ENDBRANCH  27  28
ENDBRANCH  25  27
ENDBRANCH  20  21
ENDBRANCH   1  20
TORSDOF 11
ENDMDL
MODEL 7
REMARK VINA RESULT:      -8.6      1.077      1.688
REMARK  Name = 
REMARK  12 active torsions:
REMARK  status: ('A' for Active; 'I' for Inactive)
REMARK    1  A    between atoms: C_1  and  O_2
REMARK    2  A    between atoms: O_2  and  C_3
REMARK    3  A    between atoms: C_3  and  C_5
REMARK    4  A    between atoms: C_8  and  C_9
REMARK    5  A    between atoms: C_9  and  O_10
REMARK    6  A    between atoms: O_10  and  C_11
REMARK    7  A    between atoms: C_15  and  O_16
REMARK    8  A    between atoms: O_16  and  C_17
REMARK    9  A    between atoms: C_17  and  C_18
REMARK   10  A    between atoms: C_29  and  O_30
REMARK   11  A    between atoms: O_30  and  C_31
REMARK   12  A    between atoms: C_31  and  C_32
REMARK                            x       y       z     vdW  Elec       q    Type
REMARK                         _______ _______ _______ _____ _____    ______ ____
ROOT
ATOM      1  C   UNL     1       2.164   6.712  18.873  0.00  0.00    +0.000 C 
ENDROOT
BRANCH   1   5
ATOM      2  C   UNL     1       5.576   5.367  16.572  0.00  0.00    +0.000 A 
ATOM      3  C   UNL     1       5.528   6.663  17.083  0.00  0.00    +0.000 A 
ATOM      4  C   UNL     1       4.428   7.089  17.827  0.00  0.00    +0.000 A 
ATOM      5  C   UNL     1       3.351   6.220  18.067  0.00  0.00    +0.000 A 
ATOM      6  C   UNL     1       3.404   4.909  17.559  0.00  0.00    +0.000 A 
ATOM      7  C   UNL     1       4.517   4.482  16.823  0.00  0.00    +0.000 A 
BRANCH   2   8
ATOM      8  C   UNL     1       6.781   4.977  15.787  0.00  0.00    +0.000 C 
ATOM      9  O   UNL     1       7.788   4.506  16.292  0.00  0.00    +0.000 OA
BRANCH   8  11
ATOM     10  C   UNL     1       6.329   4.056  13.693  0.00  0.00    +0.000 C 
ATOM     11  O   UNL     1       6.603   5.227  14.466  0.00  0.00    +0.000 OA
ENDBRANCH   8  11
ENDBRANCH   2   8
BRANCH   6  12
ATOM     12  O   UNL     1       2.341   4.104  17.865  0.00  0.00    +0.000 OA
BRANCH  12  13
ATOM     13  C   UNL     1       2.628   2.798  18.382  0.00  0.00    +0.000 C 
BRANCH  13  14
ATOM     14  C   UNL     1       2.389   2.755  19.850  0.00  0.00    +0.000 A 
ATOM     15  N   UNL     1       1.138   2.825  20.405  0.00  0.00    +0.000 NA
ATOM     16  N   UNL     1       1.305   2.731  21.717  0.00  0.00    +0.000 NA
ATOM     17  N   UNL     1       2.626   2.605  21.885  0.00  0.00    +0.000 N 
ATOM     18  N   UNL     1       3.368   2.633  20.766  0.00  0.00    +0.000 NA
ATOM     19  H   UNL     1       3.040   2.497  22.808  0.00  0.00    +0.000 HD
ENDBRANCH  13  14
ENDBRANCH  12  13
ENDBRANCH   6  12
ENDBRANCH   1   5
BRANCH   1  20
ATOM     20  O   UNL     1       2.068   8.137  18.822  0.00  0.00    +0.000 OA
BRANCH  20  21
ATOM     21  C   UNL     1       1.493   8.805  19.868  0.00  0.00    +0.000 A 
ATOM     22  C   UNL     1       0.936   7.981  20.847  0.00  0.00    +0.000 A 
ATOM     23  C   UNL     1       0.333   8.537  21.973  0.00  0.00    +0.000 A 
ATOM     24  C   UNL     1       0.268   9.926  22.110  0.00  0.00    +0.000 A 
ATOM     25  C   UNL     1       0.771  10.765  21.110  0.00  0.00    +0.000 A 
ATOM     26  C   UNL     1       1.386  10.195  19.991  0.00  0.00    +0.000 A 
BRANCH  25  27
ATOM     27  O   UNL     1       0.641  12.111  21.349  0.00  0.00    +0.000 OA
BRANCH  27  28
ATOM     28  C   UNL     1       0.102  12.925  20.288  0.00  0.00    +0.000 C 
BRANCH  28  29
ATOM     29  C   UNL     1      -1.357  12.607  19.980  0.00  0.00    +0.000 A 
ATOM     30  C   UNL     1      -2.372  13.074  20.804  0.00  0.00    +0.000 A 
ATOM     31  C   UNL     1      -3.693  12.803  20.470  0.00  0.00    +0.000 A 
ATOM     32  C   UNL     1      -3.991  12.179  19.258  0.00  0.00    +0.000 A 
ATOM     33  C   UNL     1      -5.325  12.027  18.845  0.00  0.00    +0.000 A 
ATOM     34  C   UNL     1      -5.615  11.554  17.570  0.00  0.00    +0.000 A 
ATOM     35  C   UNL     1      -4.574  11.172  16.734  0.00  0.00    +0.000 A 
ATOM     36  C   UNL     1      -3.246  11.257  17.183  0.00  0.00    +0.000 A 
ATOM     37  C   UNL     1      -2.919  11.780  18.435  0.00  0.00    +0.000 A 
ATOM     38  N   UNL     1      -1.627  11.954  18.809  0.00  0.00    +0.000 NA
ENDBRANCH  28  29
ENDBRANCH  27  28
ENDBRANCH  25  27
ENDBRANCH  20  21
ENDBRANCH   1  20
TORSDOF 11
ENDMDL
MODEL 8
REMARK VINA RESULT:      -8.5      1.160      1.591
REMARK  Name = 
REMARK  12 active torsions:
REMARK  status: ('A' for Active; 'I' for Inactive)
REMARK    1  A    between atoms: C_1  and  O_2
REMARK    2  A    between atoms: O_2  and  C_3
REMARK    3  A    between atoms: C_3  and  C_5
REMARK    4  A    between atoms: C_8  and  C_9
REMARK    5  A    between atoms: C_9  and  O_10
REMARK    6  A    between atoms: O_10  and  C_11
REMARK    7  A    between atoms: C_15  and  O_16
REMARK    8  A    between atoms: O_16  and  C_17
REMARK    9  A    between atoms: C_17  and  C_18
REMARK   10  A    between atoms: C_29  and  O_30
REMARK   11  A    between atoms: O_30  and  C_31
REMARK   12  A    between atoms: C_31  and  C_32
REMARK                            x       y       z     vdW  Elec       q    Type
REMARK                         _______ _______ _______ _____ _____    ______ ____
ROOT
ATOM      1  C   UNL     1       4.011   6.192  18.260  0.00  0.00    +0.000 C 
ENDROOT
BRANCH   1   5
ATOM      2  C   UNL     1       5.795   4.541  14.677  0.00  0.00    +0.000 A 
ATOM      3  C   UNL     1       5.666   5.920  14.838  0.00  0.00    +0.000 A 
ATOM      4  C   UNL     1       5.094   6.445  15.996  0.00  0.00    +0.000 A 
ATOM      5  C   UNL     1       4.635   5.593  17.014  0.00  0.00    +0.000 A 
ATOM      6  C   UNL     1       4.773   4.202  16.854  0.00  0.00    +0.000 A 
ATOM      7  C   UNL     1       5.360   3.679  15.695  0.00  0.00    +0.000 A 
BRANCH   2   8
ATOM      8  C   UNL     1       6.415   4.047  13.415  0.00  0.00    +0.000 C 
ATOM      9  O   UNL     1       7.425   4.532  12.928  0.00  0.00    +0.000 OA
BRANCH   8  11
ATOM     10  C   UNL     1       4.864   3.394  11.802  0.00  0.00    +0.000 C 
ATOM     11  O   UNL     1       5.705   3.016  12.894  0.00  0.00    +0.000 OA
ENDBRANCH   8  11
ENDBRANCH   2   8
BRANCH   6  12
ATOM     12  O   UNL     1       4.343   3.432  17.901  0.00  0.00    +0.000 OA
BRANCH  12  13
ATOM     13  C   UNL     1       3.081   2.770  17.759  0.00  0.00    +0.000 C 
BRANCH  13  14
ATOM     14  C   UNL     1       2.244   2.977  18.973  0.00  0.00    +0.000 A 
ATOM     15  N   UNL     1       2.771   3.294  20.197  0.00  0.00    +0.000 NA
ATOM     16  N   UNL     1       1.743   3.427  21.024  0.00  0.00    +0.000 NA
ATOM     17  N   UNL     1       0.665   3.195  20.268  0.00  0.00    +0.000 N 
ATOM     18  N   UNL     1       0.901   2.887  18.982  0.00  0.00    +0.000 NA
ATOM     19  H   UNL     1      -0.277   3.246  20.649  0.00  0.00    +0.000 HD
ENDBRANCH  13  14
ENDBRANCH  12  13
ENDBRANCH   6  12
ENDBRANCH   1   5
BRANCH   1  20
ATOM     20  O   UNL     1       2.862   6.975  17.930  0.00  0.00    +0.000 OA
BRANCH  20  21
ATOM     21  C   UNL     1       2.178   7.611  18.929  0.00  0.00    +0.000 A 
ATOM     22  C   UNL     1       2.110   6.900  20.128  0.00  0.00    +0.000 A 
ATOM     23  C   UNL     1       1.455   7.443  21.231  0.00  0.00    +0.000 A 
ATOM     24  C   UNL     1       0.844   8.696  21.127  0.00  0.00    +0.000 A 
ATOM     25  C   UNL     1       0.854   9.395  19.915  0.00  0.00    +0.000 A 
ATOM     26  C   UNL     1       1.528   8.845  18.819  0.00  0.00    +0.000 A 
BRANCH  25  27
ATOM     27  O   UNL     1       0.214  10.609  19.928  0.00  0.00    +0.000 OA
BRANCH  27  28
ATOM     28  C   UNL     1      -0.123  11.196  18.656  0.00  0.00    +0.000 C 
BRANCH  28  29
ATOM     29  C   UNL     1      -1.621  11.175  18.371  0.00  0.00    +0.000 A 
ATOM     30  C   UNL     1      -2.161  10.247  17.491  0.00  0.00    +0.000 A 
ATOM     31  C   UNL     1      -3.535  10.227  17.288  0.00  0.00    +0.000 A 
ATOM     32  C   UNL     1      -4.364  11.046  18.055  0.00  0.00    +0.000 A 
ATOM     33  C   UNL     1      -5.762  10.933  17.960  0.00  0.00    +0.000 A 
ATOM     34  C   UNL     1      -6.584  11.632  18.837  0.00  0.00    +0.000 A 
ATOM     35  C   UNL     1      -6.011  12.491  19.766  0.00  0.00    +0.000 A 
ATOM     36  C   UNL     1      -4.616  12.654  19.805  0.00  0.00    +0.000 A 
ATOM     37  C   UNL     1      -3.762  11.926  18.976  0.00  0.00    +0.000 A 
ATOM     38  N   UNL     1      -2.414  12.016  19.101  0.00  0.00    +0.000 NA
ENDBRANCH  28  29
ENDBRANCH  27  28
ENDBRANCH  25  27
ENDBRANCH  20  21
ENDBRANCH   1  20
TORSDOF 11
ENDMDL
MODEL 9
REMARK VINA RESULT:      -8.5      2.585      3.381
REMARK  Name = 
REMARK  12 active torsions:
REMARK  status: ('A' for Active; 'I' for Inactive)
REMARK    1  A    between atoms: C_1  and  O_2
REMARK    2  A    between atoms: O_2  and  C_3
REMARK    3  A    between atoms: C_3  and  C_5
REMARK    4  A    between atoms: C_8  and  C_9
REMARK    5  A    between atoms: C_9  and  O_10
REMARK    6  A    between atoms: O_10  and  C_11
REMARK    7  A    between atoms: C_15  and  O_16
REMARK    8  A    between atoms: O_16  and  C_17
REMARK    9  A    between atoms: C_17  and  C_18
REMARK   10  A    between atoms: C_29  and  O_30
REMARK   11  A    between atoms: O_30  and  C_31
REMARK   12  A    between atoms: C_31  and  C_32
REMARK                            x       y       z     vdW  Elec       q    Type
REMARK                         _______ _______ _______ _____ _____    ______ ____
ROOT
ATOM      1  C   UNL     1       4.153   5.722  19.503  0.00  0.00    +0.000 C 
ENDROOT
BRANCH   1   5
ATOM      2  C   UNL     1       5.910   5.022  15.609  0.00  0.00    +0.000 A 
ATOM      3  C   UNL     1       5.820   6.313  16.128  0.00  0.00    +0.000 A 
ATOM      4  C   UNL     1       5.256   6.531  17.384  0.00  0.00    +0.000 A 
ATOM      5  C   UNL     1       4.766   5.455  18.142  0.00  0.00    +0.000 A 
ATOM      6  C   UNL     1       4.866   4.151  17.621  0.00  0.00    +0.000 A 
ATOM      7  C   UNL     1       5.445   3.936  16.364  0.00  0.00    +0.000 A 
BRANCH   2   8
ATOM      8  C   UNL     1       6.524   4.860  14.260  0.00  0.00    +0.000 C 
ATOM      9  O   UNL     1       7.665   5.209  13.995  0.00  0.00    +0.000 OA
BRANCH   8  11
ATOM     10  C   UNL     1       6.215   3.238  12.615  0.00  0.00    +0.000 C 
ATOM     11  O   UNL     1       5.649   4.296  13.391  0.00  0.00    +0.000 OA
ENDBRANCH   8  11
ENDBRANCH   2   8
BRANCH   6  12
ATOM     12  O   UNL     1       4.408   3.146  18.429  0.00  0.00    +0.000 OA
BRANCH  12  13
ATOM     13  C   UNL     1       3.184   2.503  18.054  0.00  0.00    +0.000 C 
BRANCH  13  14
ATOM     14  C   UNL     1       2.171   2.641  19.136  0.00  0.00    +0.000 A 
ATOM     15  N   UNL     1       2.496   2.646  20.467  0.00  0.00    +0.000 NA
ATOM     16  N   UNL     1       1.359   2.811  21.129  0.00  0.00    +0.000 NA
ATOM     17  N   UNL     1       0.421   2.903  20.180  0.00  0.00    +0.000 N 
ATOM     18  N   UNL     1       0.851   2.784  18.913  0.00  0.00    +0.000 NA
ATOM     19  H   UNL     1      -0.558   3.050  20.409  0.00  0.00    +0.000 HD
ENDBRANCH  13  14
ENDBRANCH  12  13
ENDBRANCH   6  12
ENDBRANCH   1   5
BRANCH   1  20
ATOM     20  O   UNL     1       2.739   5.900  19.400  0.00  0.00    +0.000 OA
BRANCH  20  21
ATOM     21  C   UNL     1       2.233   7.162  19.259  0.00  0.00    +0.000 A 
ATOM     22  C   UNL     1       2.261   7.656  17.954  0.00  0.00    +0.000 A 
ATOM     23  C   UNL     1       1.760   8.924  17.671  0.00  0.00    +0.000 A 
ATOM     24  C   UNL     1       1.247   9.713  18.705  0.00  0.00    +0.000 A 
ATOM     25  C   UNL     1       1.265   9.255  20.026  0.00  0.00    +0.000 A 
ATOM     26  C   UNL     1       1.757   7.974  20.295  0.00  0.00    +0.000 A 
BRANCH  25  27
ATOM     27  O   UNL     1       0.745  10.120  20.958  0.00  0.00    +0.000 OA
BRANCH  27  28
ATOM     28  C   UNL     1      -0.236  11.072  20.505  0.00  0.00    +0.000 C 
BRANCH  28  29
ATOM     29  C   UNL     1      -0.657  12.054  21.594  0.00  0.00    +0.000 A 
ATOM     30  C   UNL     1       0.029  13.248  21.773  0.00  0.00    +0.000 A 
ATOM     31  C   UNL     1      -0.408  14.140  22.745  0.00  0.00    +0.000 A 
ATOM     32  C   UNL     1      -1.591  13.887  23.440  0.00  0.00    +0.000 A 
ATOM     33  C   UNL     1      -2.117  14.847  24.323  0.00  0.00    +0.000 A 
ATOM     34  C   UNL     1      -3.373  14.665  24.889  0.00  0.00    +0.000 A 
ATOM     35  C   UNL     1      -4.074  13.495  24.625  0.00  0.00    +0.000 A 
ATOM     36  C   UNL     1      -3.509  12.509  23.801  0.00  0.00    +0.000 A 
ATOM     37  C   UNL     1      -2.276  12.685  23.173  0.00  0.00    +0.000 A 
ATOM     38  N   UNL     1      -1.794  11.768  22.296  0.00  0.00    +0.000 NA
ENDBRANCH  28  29
ENDBRANCH  27  28
ENDBRANCH  25  27
ENDBRANCH  20  21
ENDBRANCH   1  20
TORSDOF 11
ENDMDL
