MODEL 1
REMARK VINA RESULT:      -7.1      0.000      0.000
REMARK  Name = 
REMARK  6 active torsions:
REMARK  status: ('A' for Active; 'I' for Inactive)
REMARK    1  A    between atoms: C_1  and  C_2
REMARK    2  A    between atoms: C_2  and  N_3
REMARK    3  A    between atoms: N_3  and  C_4
REMARK    4  A    between atoms: N_3  and  C_6
REMARK    5  A    between atoms: C_4  and  C_5
REMARK    6  A    between atoms: C_9  and  N_10
REMARK                            x       y       z     vdW  Elec       q    Type
REMARK                         _______ _______ _______ _____ _____    ______ ____
ROOT
ATOM      1  N   UNL     1      -0.973  10.982  22.858  0.00  0.00    +0.000 N 
ATOM      2  C   UNL     1      -0.415  10.481  21.676  0.00  0.00    +0.000 A 
ATOM      3  N   UNL     1      -0.724  11.040  20.504  0.00  0.00    +0.000 NA
ATOM      4  C   UNL     1      -0.186  10.529  19.388  0.00  0.00    +0.000 A 
ATOM      5  N   UNL     1      -0.695  10.951  18.136  0.00  0.00    +0.000 N 
ATOM      6  C   UNL     1      -1.360  12.264  18.159  0.00  0.00    +0.000 C 
ATOM      7  C   UNL     1      -2.827  12.176  18.603  0.00  0.00    +0.000 C 
ATOM      8  O   UNL     1      -3.557  11.249  17.783  0.00  0.00    +0.000 OA
ATOM      9  C   UNL     1      -3.000   9.936  17.946  0.00  0.00    +0.000 C 
ATOM     10  C   UNL     1      -1.527   9.891  17.500  0.00  0.00    +0.000 C 
ATOM     11  C   UNL     1       0.778   9.523  19.417  0.00  0.00    +0.000 A 
ATOM     12  C   UNL     1       1.524   9.123  18.272  0.00  0.00    +0.000 A 
ATOM     13  C   UNL     1       2.341   8.008  18.304  0.00  0.00    +0.000 A 
ATOM     14  C   UNL     1       2.410   7.277  19.484  0.00  0.00    +0.000 A 
ATOM     15  C   UNL     1       1.732   7.726  20.631  0.00  0.00    +0.000 A 
ATOM     16  C   UNL     1       0.944   8.892  20.644  0.00  0.00    +0.000 A 
ATOM     17  N   UNL     1       0.350   9.368  21.768  0.00  0.00    +0.000 NA
ATOM     18  H   UNL     1      -0.711  10.396  23.636  0.00  0.00    +0.000 HD
ENDROOT
BRANCH   1  22
ATOM     19  C   UNL     1      -3.327  14.458  23.943  0.00  0.00    +0.000 A 
ATOM     20  C   UNL     1      -1.996  14.524  23.504  0.00  0.00    +0.000 A 
ATOM     21  C   UNL     1      -1.256  13.380  23.114  0.00  0.00    +0.000 A 
ATOM     22  C   UNL     1      -1.795  12.089  23.153  0.00  0.00    +0.000 A 
ATOM     23  C   UNL     1      -3.118  12.003  23.579  0.00  0.00    +0.000 A 
ATOM     24  C   UNL     1      -3.862  13.154  23.951  0.00  0.00    +0.000 A 
BRANCH  19  25
ATOM     25  N   UNL     1      -4.060  15.586  24.359  0.00  0.00    +0.000 N 
BRANCH  25  27
ATOM     26  C   UNL     1      -4.375  17.831  25.376  0.00  0.00    +0.000 C 
ATOM     27  C   UNL     1      -3.400  16.710  25.045  0.00  0.00    +0.000 C 
ENDBRANCH  25  27
BRANCH  25  28
ATOM     28  C   UNL     1      -5.471  15.707  23.934  0.00  0.00    +0.000 C 
ATOM     29  C   UNL     1      -5.740  15.935  22.448  0.00  0.00    +0.000 C 
ENDBRANCH  25  28
ENDBRANCH  19  25
ENDBRANCH   1  22
TORSDOF 4
ENDMDL
MODEL 2
REMARK VINA RESULT:      -7.1      0.323      1.538
REMARK  Name = 
REMARK  6 active torsions:
REMARK  status: ('A' for Active; 'I' for Inactive)
REMARK    1  A    between atoms: C_1  and  C_2
REMARK    2  A    between atoms: C_2  and  N_3
REMARK    3  A    between atoms: N_3  and  C_4
REMARK    4  A    between atoms: N_3  and  C_6
REMARK    5  A    between atoms: C_4  and  C_5
REMARK    6  A    between atoms: C_9  and  N_10
REMARK                            x       y       z     vdW  Elec       q    Type
REMARK                         _______ _______ _______ _____ _____    ______ ____
ROOT
ATOM      1  N   UNL     1      -0.728  10.947  22.765  0.00  0.00    +0.000 N 
ATOM      2  C   UNL     1      -0.237  10.459  21.548  0.00  0.00    +0.000 A 
ATOM      3  N   UNL     1      -0.615  11.029  20.401  0.00  0.00    +0.000 NA
ATOM      4  C   UNL     1      -0.141  10.532  19.251  0.00  0.00    +0.000 A 
ATOM      5  N   UNL     1      -0.722  10.964  18.034  0.00  0.00    +0.000 N 
ATOM      6  C   UNL     1      -1.388  12.274  18.110  0.00  0.00    +0.000 C 
ATOM      7  C   UNL     1      -2.827  12.177  18.636  0.00  0.00    +0.000 C 
ATOM      8  O   UNL     1      -3.601  11.255  17.850  0.00  0.00    +0.000 OA
ATOM      9  C   UNL     1      -3.031   9.943  17.967  0.00  0.00    +0.000 C 
ATOM     10  C   UNL     1      -1.586   9.908  17.436  0.00  0.00    +0.000 C 
ATOM     11  C   UNL     1       0.827   9.528  19.214  0.00  0.00    +0.000 A 
ATOM     12  C   UNL     1       1.506   9.142  18.024  0.00  0.00    +0.000 A 
ATOM     13  C   UNL     1       2.327   8.030  17.997  0.00  0.00    +0.000 A 
ATOM     14  C   UNL     1       2.466   7.288  19.163  0.00  0.00    +0.000 A 
ATOM     15  C   UNL     1       1.854   7.722  20.352  0.00  0.00    +0.000 A 
ATOM     16  C   UNL     1       1.065   8.886  20.423  0.00  0.00    +0.000 A 
ATOM     17  N   UNL     1       0.535   9.348  21.584  0.00  0.00    +0.000 NA
ATOM     18  H   UNL     1      -0.419  10.354  23.520  0.00  0.00    +0.000 HD
ENDROOT
BRANCH   1  22
ATOM     19  C   UNL     1      -3.370  14.266  23.659  0.00  0.00    +0.000 A 
ATOM     20  C   UNL     1      -3.779  12.924  23.655  0.00  0.00    +0.000 A 
ATOM     21  C   UNL     1      -2.891  11.849  23.401  0.00  0.00    +0.000 A 
ATOM     22  C   UNL     1      -1.535  12.048  23.118  0.00  0.00    +0.000 A 
ATOM     23  C   UNL     1      -1.107  13.373  23.124  0.00  0.00    +0.000 A 
ATOM     24  C   UNL     1      -1.997  14.446  23.398  0.00  0.00    +0.000 A 
BRANCH  19  25
ATOM     25  N   UNL     1      -4.252  15.341  23.882  0.00  0.00    +0.000 N 
BRANCH  25  27
ATOM     26  C   UNL     1      -6.160  15.579  22.310  0.00  0.00    +0.000 C 
ATOM     27  C   UNL     1      -5.705  15.180  23.707  0.00  0.00    +0.000 C 
ENDBRANCH  25  27
BRANCH  25  28
ATOM     28  C   UNL     1      -3.712  16.585  24.473  0.00  0.00    +0.000 C 
ATOM     29  C   UNL     1      -4.683  17.474  25.245  0.00  0.00    +0.000 C 
ENDBRANCH  25  28
ENDBRANCH  19  25
ENDBRANCH   1  22
TORSDOF 4
ENDMDL
MODEL 3
REMARK VINA RESULT:      -7.1      0.485      1.038
REMARK  Name = 
REMARK  6 active torsions:
REMARK  status: ('A' for Active; 'I' for Inactive)
REMARK    1  A    between atoms: C_1  and  C_2
REMARK    2  A    between atoms: C_2  and  N_3
REMARK    3  A    between atoms: N_3  and  C_4
REMARK    4  A    between atoms: N_3  and  C_6
REMARK    5  A    between atoms: C_4  and  C_5
REMARK    6  A    between atoms: C_9  and  N_10
REMARK                            x       y       z     vdW  Elec       q    Type
REMARK                         _______ _______ _______ _____ _____    ______ ____
ROOT
ATOM      1  N   UNL     1      -0.707  10.937  22.784  0.00  0.00    +0.000 N 
ATOM      2  C   UNL     1      -0.227  10.462  21.558  0.00  0.00    +0.000 A 
ATOM      3  N   UNL     1      -0.619  11.039  20.420  0.00  0.00    +0.000 NA
ATOM      4  C   UNL     1      -0.154  10.553  19.261  0.00  0.00    +0.000 A 
ATOM      5  N   UNL     1      -0.750  10.992  18.054  0.00  0.00    +0.000 N 
ATOM      6  C   UNL     1      -1.422  12.299  18.146  0.00  0.00    +0.000 C 
ATOM      7  C   UNL     1      -2.855  12.189  18.687  0.00  0.00    +0.000 C 
ATOM      8  O   UNL     1      -3.632  11.270  17.901  0.00  0.00    +0.000 OA
ATOM      9  C   UNL     1      -3.054   9.960  18.002  0.00  0.00    +0.000 C 
ATOM     10  C   UNL     1      -1.615   9.936  17.456  0.00  0.00    +0.000 C 
ATOM     11  C   UNL     1       0.818   9.555  19.205  0.00  0.00    +0.000 A 
ATOM     12  C   UNL     1       1.487   9.182  18.006  0.00  0.00    +0.000 A 
ATOM     13  C   UNL     1       2.314   8.075  17.962  0.00  0.00    +0.000 A 
ATOM     14  C   UNL     1       2.469   7.324  19.120  0.00  0.00    +0.000 A 
ATOM     15  C   UNL     1       1.866   7.745  20.319  0.00  0.00    +0.000 A 
ATOM     16  C   UNL     1       1.072   8.904  20.407  0.00  0.00    +0.000 A 
ATOM     17  N   UNL     1       0.552   9.354  21.577  0.00  0.00    +0.000 NA
ATOM     18  H   UNL     1      -0.388  10.339  23.531  0.00  0.00    +0.000 HD
ENDROOT
BRANCH   1  22
ATOM     19  C   UNL     1      -3.360  14.232  23.735  0.00  0.00    +0.000 A 
ATOM     20  C   UNL     1      -3.754  12.885  23.747  0.00  0.00    +0.000 A 
ATOM     21  C   UNL     1      -2.862  11.819  23.473  0.00  0.00    +0.000 A 
ATOM     22  C   UNL     1      -1.516  12.031  23.154  0.00  0.00    +0.000 A 
ATOM     23  C   UNL     1      -1.103  13.361  23.144  0.00  0.00    +0.000 A 
ATOM     24  C   UNL     1      -1.996  14.425  23.437  0.00  0.00    +0.000 A 
BRANCH  19  25
ATOM     25  N   UNL     1      -4.246  15.299  23.977  0.00  0.00    +0.000 N 
BRANCH  25  27
ATOM     26  C   UNL     1      -3.772  17.725  24.221  0.00  0.00    +0.000 C 
ATOM     27  C   UNL     1      -3.897  16.377  24.917  0.00  0.00    +0.000 C 
ENDBRANCH  25  27
BRANCH  25  28
ATOM     28  C   UNL     1      -5.456  15.416  23.136  0.00  0.00    +0.000 C 
ATOM     29  C   UNL     1      -6.796  15.072  23.780  0.00  0.00    +0.000 C 
ENDBRANCH  25  28
ENDBRANCH  19  25
ENDBRANCH   1  22
TORSDOF 4
ENDMDL
MODEL 4
REMARK VINA RESULT:      -7.0      2.696      8.560
REMARK  Name = 
REMARK  6 active torsions:
REMARK  status: ('A' for Active; 'I' for Inactive)
REMARK    1  A    between atoms: C_1  and  C_2
REMARK    2  A    between atoms: C_2  and  N_3
REMARK    3  A    between atoms: N_3  and  C_4
REMARK    4  A    between atoms: N_3  and  C_6
REMARK    5  A    between atoms: C_4  and  C_5
REMARK    6  A    between atoms: C_9  and  N_10
REMARK                            x       y       z     vdW  Elec       q    Type
REMARK                         _______ _______ _______ _____ _____    ______ ____
ROOT
ATOM      1  N   UNL     1       0.482  10.938  19.786  0.00  0.00    +0.000 N 
ATOM      2  C   UNL     1      -0.828  11.427  19.726  0.00  0.00    +0.000 A 
ATOM      3  N   UNL     1      -1.750  10.776  19.013  0.00  0.00    +0.000 NA
ATOM      4  C   UNL     1      -2.993  11.276  18.962  0.00  0.00    +0.000 A 
ATOM      5  N   UNL     1      -3.902  10.737  18.020  0.00  0.00    +0.000 N 
ATOM      6  C   UNL     1      -3.587   9.368  17.583  0.00  0.00    +0.000 C 
ATOM      7  C   UNL     1      -2.556   9.332  16.446  0.00  0.00    +0.000 C 
ATOM      8  O   UNL     1      -2.990  10.135  15.335  0.00  0.00    +0.000 OA
ATOM      9  C   UNL     1      -3.091  11.504  15.755  0.00  0.00    +0.000 C 
ATOM     10  C   UNL     1      -4.126  11.672  16.881  0.00  0.00    +0.000 C 
ATOM     11  C   UNL     1      -3.388  12.374  19.725  0.00  0.00    +0.000 A 
ATOM     12  C   UNL     1      -4.745  12.784  19.860  0.00  0.00    +0.000 A 
ATOM     13  C   UNL     1      -5.074  13.975  20.480  0.00  0.00    +0.000 A 
ATOM     14  C   UNL     1      -4.044  14.773  20.961  0.00  0.00    +0.000 A 
ATOM     15  C   UNL     1      -2.713  14.323  20.892  0.00  0.00    +0.000 A 
ATOM     16  C   UNL     1      -2.355  13.085  20.324  0.00  0.00    +0.000 A 
ATOM     17  N   UNL     1      -1.082  12.615  20.325  0.00  0.00    +0.000 NA
ATOM     18  H   UNL     1       1.067  11.590  20.286  0.00  0.00    +0.000 HD
ENDROOT
BRANCH   1  22
ATOM     19  C   UNL     1       2.582   7.376  18.483  0.00  0.00    +0.000 A 
ATOM     20  C   UNL     1       2.055   7.542  19.772  0.00  0.00    +0.000 A 
ATOM     21  C   UNL     1       1.335   8.697  20.167  0.00  0.00    +0.000 A 
ATOM     22  C   UNL     1       1.108   9.772  19.300  0.00  0.00    +0.000 A 
ATOM     23  C   UNL     1       1.618   9.624  18.013  0.00  0.00    +0.000 A 
ATOM     24  C   UNL     1       2.323   8.457  17.616  0.00  0.00    +0.000 A 
BRANCH  19  25
ATOM     25  N   UNL     1       3.323   6.245  18.091  0.00  0.00    +0.000 N 
BRANCH  25  27
ATOM     26  C   UNL     1       5.028   5.160  16.646  0.00  0.00    +0.000 C 
ATOM     27  C   UNL     1       4.649   6.385  17.465  0.00  0.00    +0.000 C 
ENDBRANCH  25  27
BRANCH  25  28
ATOM     28  C   UNL     1       2.830   4.907  18.484  0.00  0.00    +0.000 C 
ATOM     29  C   UNL     1       1.586   4.381  17.773  0.00  0.00    +0.000 C 
ENDBRANCH  25  28
ENDBRANCH  19  25
ENDBRANCH   1  22
TORSDOF 4
ENDMDL
MODEL 5
REMARK VINA RESULT:      -6.8      2.706      8.549
REMARK  Name = 
REMARK  6 active torsions:
REMARK  status: ('A' for Active; 'I' for Inactive)
REMARK    1  A    between atoms: C_1  and  C_2
REMARK    2  A    between atoms: C_2  and  N_3
REMARK    3  A    between atoms: N_3  and  C_4
REMARK    4  A    between atoms: N_3  and  C_6
REMARK    5  A    between atoms: C_4  and  C_5
REMARK    6  A    between atoms: C_9  and  N_10
REMARK                            x       y       z     vdW  Elec       q    Type
REMARK                         _______ _______ _______ _____ _____    ______ ____
ROOT
ATOM      1  N   UNL     1       0.336  11.067  19.834  0.00  0.00    +0.000 N 
ATOM      2  C   UNL     1      -0.980  11.536  19.752  0.00  0.00    +0.000 A 
ATOM      3  N   UNL     1      -1.886  10.859  19.043  0.00  0.00    +0.000 NA
ATOM      4  C   UNL     1      -3.135  11.340  18.970  0.00  0.00    +0.000 A 
ATOM      5  N   UNL     1      -4.027  10.770  18.030  0.00  0.00    +0.000 N 
ATOM      6  C   UNL     1      -3.688   9.397  17.623  0.00  0.00    +0.000 C 
ATOM      7  C   UNL     1      -2.646   9.355  16.496  0.00  0.00    +0.000 C 
ATOM      8  O   UNL     1      -3.080  10.131  15.366  0.00  0.00    +0.000 OA
ATOM      9  C   UNL     1      -3.204  11.506  15.759  0.00  0.00    +0.000 C 
ATOM     10  C   UNL     1      -4.253  11.680  16.872  0.00  0.00    +0.000 C 
ATOM     11  C   UNL     1      -3.553  12.446  19.709  0.00  0.00    +0.000 A 
ATOM     12  C   UNL     1      -4.917  12.838  19.823  0.00  0.00    +0.000 A 
ATOM     13  C   UNL     1      -5.269  14.036  20.417  0.00  0.00    +0.000 A 
ATOM     14  C   UNL     1      -4.255  14.857  20.893  0.00  0.00    +0.000 A 
ATOM     15  C   UNL     1      -2.918  14.425  20.846  0.00  0.00    +0.000 A 
ATOM     16  C   UNL     1      -2.536  13.183  20.305  0.00  0.00    +0.000 A 
ATOM     17  N   UNL     1      -1.256  12.731  20.326  0.00  0.00    +0.000 NA
ATOM     18  H   UNL     1       0.907  11.736  20.327  0.00  0.00    +0.000 HD
ENDROOT
BRANCH   1  22
ATOM     19  C   UNL     1       2.501   7.513  18.618  0.00  0.00    +0.000 A 
ATOM     20  C   UNL     1       1.964   7.698  19.901  0.00  0.00    +0.000 A 
ATOM     21  C   UNL     1       1.223   8.849  20.268  0.00  0.00    +0.000 A 
ATOM     22  C   UNL     1       0.984   9.902  19.377  0.00  0.00    +0.000 A 
ATOM     23  C   UNL     1       1.502   9.734  18.095  0.00  0.00    +0.000 A 
ATOM     24  C   UNL     1       2.228   8.570  17.727  0.00  0.00    +0.000 A 
BRANCH  19  25
ATOM     25  N   UNL     1       3.262   6.386  18.254  0.00  0.00    +0.000 N 
BRANCH  25  27
ATOM     26  C   UNL     1       1.806   4.435  17.755  0.00  0.00    +0.000 C 
ATOM     27  C   UNL     1       2.863   5.032  18.675  0.00  0.00    +0.000 C 
ENDBRANCH  25  27
BRANCH  25  28
ATOM     28  C   UNL     1       4.367   6.563  17.288  0.00  0.00    +0.000 C 
ATOM     29  C   UNL     1       5.505   5.545  17.328  0.00  0.00    +0.000 C 
ENDBRANCH  25  28
ENDBRANCH  19  25
ENDBRANCH   1  22
TORSDOF 4
ENDMDL
MODEL 6
REMARK VINA RESULT:      -6.8      0.387      1.219
REMARK  Name = 
REMARK  6 active torsions:
REMARK  status: ('A' for Active; 'I' for Inactive)
REMARK    1  A    between atoms: C_1  and  C_2
REMARK    2  A    between atoms: C_2  and  N_3
REMARK    3  A    between atoms: N_3  and  C_4
REMARK    4  A    between atoms: N_3  and  C_6
REMARK    5  A    between atoms: C_4  and  C_5
REMARK    6  A    between atoms: C_9  and  N_10
REMARK                            x       y       z     vdW  Elec       q    Type
REMARK                         _______ _______ _______ _____ _____    ______ ____
ROOT
ATOM      1  N   UNL     1      -0.963  11.063  22.627  0.00  0.00    +0.000 N 
ATOM      2  C   UNL     1      -0.416  10.526  21.456  0.00  0.00    +0.000 A 
ATOM      3  N   UNL     1      -0.764  11.025  20.268  0.00  0.00    +0.000 NA
ATOM      4  C   UNL     1      -0.236  10.481  19.163  0.00  0.00    +0.000 A 
ATOM      5  N   UNL     1      -0.781  10.835  17.905  0.00  0.00    +0.000 N 
ATOM      6  C   UNL     1      -1.480  12.131  17.887  0.00  0.00    +0.000 C 
ATOM      7  C   UNL     1      -2.935  12.025  18.366  0.00  0.00    +0.000 C 
ATOM      8  O   UNL     1      -3.657  11.044  17.602  0.00  0.00    +0.000 OA
ATOM      9  C   UNL     1      -3.062   9.755  17.809  0.00  0.00    +0.000 C 
ATOM     10  C   UNL     1      -1.598   9.728  17.333  0.00  0.00    +0.000 C 
ATOM     11  C   UNL     1       0.755   9.502  19.213  0.00  0.00    +0.000 A 
ATOM     12  C   UNL     1       1.487   9.072  18.070  0.00  0.00    +0.000 A 
ATOM     13  C   UNL     1       2.334   7.981  18.132  0.00  0.00    +0.000 A 
ATOM     14  C   UNL     1       2.447   7.304  19.340  0.00  0.00    +0.000 A 
ATOM     15  C   UNL     1       1.781   7.783  20.482  0.00  0.00    +0.000 A 
ATOM     16  C   UNL     1       0.963   8.929  20.462  0.00  0.00    +0.000 A 
ATOM     17  N   UNL     1       0.380   9.437  21.578  0.00  0.00    +0.000 NA
ATOM     18  H   UNL     1      -0.669  10.518  23.423  0.00  0.00    +0.000 HD
ENDROOT
BRANCH   1  22
ATOM     19  C   UNL     1      -3.371  14.537  23.589  0.00  0.00    +0.000 A 
ATOM     20  C   UNL     1      -2.107  14.608  22.986  0.00  0.00    +0.000 A 
ATOM     21  C   UNL     1      -1.352  13.459  22.641  0.00  0.00    +0.000 A 
ATOM     22  C   UNL     1      -1.807  12.160  22.892  0.00  0.00    +0.000 A 
ATOM     23  C   UNL     1      -3.064  12.068  23.484  0.00  0.00    +0.000 A 
ATOM     24  C   UNL     1      -3.825  13.222  23.811  0.00  0.00    +0.000 A 
BRANCH  19  25
ATOM     25  N   UNL     1      -4.115  15.674  23.961  0.00  0.00    +0.000 N 
BRANCH  25  27
ATOM     26  C   UNL     1      -6.592  15.496  23.874  0.00  0.00    +0.000 C 
ATOM     27  C   UNL     1      -5.333  16.057  23.227  0.00  0.00    +0.000 C 
ENDBRANCH  25  27
BRANCH  25  28
ATOM     28  C   UNL     1      -3.757  16.373  25.214  0.00  0.00    +0.000 C 
ATOM     29  C   UNL     1      -4.076  17.863  25.302  0.00  0.00    +0.000 C 
ENDBRANCH  25  28
ENDBRANCH  19  25
ENDBRANCH   1  22
TORSDOF 4
ENDMDL
MODEL 7
REMARK VINA RESULT:      -6.7      2.708      8.370
REMARK  Name = 
REMARK  6 active torsions:
REMARK  status: ('A' for Active; 'I' for Inactive)
REMARK    1  A    between atoms: C_1  and  C_2
REMARK    2  A    between atoms: C_2  and  N_3
REMARK    3  A    between atoms: N_3  and  C_4
REMARK    4  A    between atoms: N_3  and  C_6
REMARK    5  A    between atoms: C_4  and  C_5
REMARK    6  A    between atoms: C_9  and  N_10
REMARK                            x       y       z     vdW  Elec       q    Type
REMARK                         _______ _______ _______ _____ _____    ______ ____
ROOT
ATOM      1  N   UNL     1       0.208  11.269  20.076  0.00  0.00    +0.000 N 
ATOM      2  C   UNL     1      -1.124  11.660  19.898  0.00  0.00    +0.000 A 
ATOM      3  N   UNL     1      -1.935  10.932  19.128  0.00  0.00    +0.000 NA
ATOM      4  C   UNL     1      -3.202  11.340  18.964  0.00  0.00    +0.000 A 
ATOM      5  N   UNL     1      -3.990  10.720  17.964  0.00  0.00    +0.000 N 
ATOM      6  C   UNL     1      -3.543   9.368  17.588  0.00  0.00    +0.000 C 
ATOM      7  C   UNL     1      -2.422   9.386  16.539  0.00  0.00    +0.000 C 
ATOM      8  O   UNL     1      -2.817  10.136  15.378  0.00  0.00    +0.000 OA
ATOM      9  C   UNL     1      -3.049  11.501  15.755  0.00  0.00    +0.000 C 
ATOM     10  C   UNL     1      -4.184  11.614  16.788  0.00  0.00    +0.000 C 
ATOM     11  C   UNL     1      -3.735  12.420  19.665  0.00  0.00    +0.000 A 
ATOM     12  C   UNL     1      -5.124  12.733  19.680  0.00  0.00    +0.000 A 
ATOM     13  C   UNL     1      -5.586  13.908  20.242  0.00  0.00    +0.000 A 
ATOM     14  C   UNL     1      -4.658  14.787  20.786  0.00  0.00    +0.000 A 
ATOM     15  C   UNL     1      -3.298  14.433  20.837  0.00  0.00    +0.000 A 
ATOM     16  C   UNL     1      -2.808  13.215  20.330  0.00  0.00    +0.000 A 
ATOM     17  N   UNL     1      -1.509  12.838  20.445  0.00  0.00    +0.000 NA
ATOM     18  H   UNL     1       0.703  11.970  20.606  0.00  0.00    +0.000 HD
ENDROOT
BRANCH   1  22
ATOM     19  C   UNL     1       2.338   7.780  18.630  0.00  0.00    +0.000 A 
ATOM     20  C   UNL     1       2.134   8.939  17.868  0.00  0.00    +0.000 A 
ATOM     21  C   UNL     1       1.471  10.086  18.372  0.00  0.00    +0.000 A 
ATOM     22  C   UNL     1       0.953  10.142  19.671  0.00  0.00    +0.000 A 
ATOM     23  C   UNL     1       1.152   9.003  20.447  0.00  0.00    +0.000 A 
ATOM     24  C   UNL     1       1.833   7.863  19.944  0.00  0.00    +0.000 A 
BRANCH  19  25
ATOM     25  N   UNL     1       2.970   6.625  18.128  0.00  0.00    +0.000 N 
BRANCH  25  27
ATOM     26  C   UNL     1       5.239   5.720  17.681  0.00  0.00    +0.000 C 
ATOM     27  C   UNL     1       4.169   6.726  17.279  0.00  0.00    +0.000 C 
ENDBRANCH  25  27
BRANCH  25  28
ATOM     28  C   UNL     1       2.518   5.305  18.616  0.00  0.00    +0.000 C 
ATOM     29  C   UNL     1       1.588   4.502  17.711  0.00  0.00    +0.000 C 
ENDBRANCH  25  28
ENDBRANCH  19  25
ENDBRANCH   1  22
TORSDOF 4
ENDMDL
MODEL 8
REMARK VINA RESULT:      -6.7      3.116      9.154
REMARK  Name = 
REMARK  6 active torsions:
REMARK  status: ('A' for Active; 'I' for Inactive)
REMARK    1  A    between atoms: C_1  and  C_2
REMARK    2  A    between atoms: C_2  and  N_3
REMARK    3  A    between atoms: N_3  and  C_4
REMARK    4  A    between atoms: N_3  and  C_6
REMARK    5  A    between atoms: C_4  and  C_5
REMARK    6  A    between atoms: C_9  and  N_10
REMARK                            x       y       z     vdW  Elec       q    Type
REMARK                         _______ _______ _______ _____ _____    ______ ____
ROOT
ATOM      1  N   UNL     1       0.987   8.441  20.806  0.00  0.00    +0.000 N 
ATOM      2  C   UNL     1       0.343   9.679  20.923  0.00  0.00    +0.000 A 
ATOM      3  N   UNL     1       0.540  10.622  19.999  0.00  0.00    +0.000 NA
ATOM      4  C   UNL     1      -0.078  11.802  20.144  0.00  0.00    +0.000 A 
ATOM      5  N   UNL     1       0.313  12.880  19.314  0.00  0.00    +0.000 N 
ATOM      6  C   UNL     1       0.947  12.474  18.048  0.00  0.00    +0.000 C 
ATOM      7  C   UNL     1       2.448  12.190  18.202  0.00  0.00    +0.000 C 
ATOM      8  O   UNL     1       3.128  13.320  18.776  0.00  0.00    +0.000 OA
ATOM      9  C   UNL     1       2.617  13.557  20.095  0.00  0.00    +0.000 C 
ATOM     10  C   UNL     1       1.114  13.886  20.066  0.00  0.00    +0.000 C 
ATOM     11  C   UNL     1      -1.013  12.036  21.152  0.00  0.00    +0.000 A 
ATOM     12  C   UNL     1      -1.842  13.192  21.194  0.00  0.00    +0.000 A 
ATOM     13  C   UNL     1      -2.628  13.469  22.298  0.00  0.00    +0.000 A 
ATOM     14  C   UNL     1      -2.580  12.593  23.375  0.00  0.00    +0.000 A 
ATOM     15  C   UNL     1      -1.819  11.414  23.292  0.00  0.00    +0.000 A 
ATOM     16  C   UNL     1      -1.060  11.075  22.155  0.00  0.00    +0.000 A 
ATOM     17  N   UNL     1      -0.385   9.903  22.042  0.00  0.00    +0.000 NA
ATOM     18  H   UNL     1       0.804   7.882  21.626  0.00  0.00    +0.000 HD
ENDROOT
BRANCH   1  22
ATOM     19  C   UNL     1       3.687   6.630  17.939  0.00  0.00    +0.000 A 
ATOM     20  C   UNL     1       3.305   6.019  19.142  0.00  0.00    +0.000 A 
ATOM     21  C   UNL     1       2.388   6.609  20.048  0.00  0.00    +0.000 A 
ATOM     22  C   UNL     1       1.804   7.859  19.816  0.00  0.00    +0.000 A 
ATOM     23  C   UNL     1       2.166   8.479  18.622  0.00  0.00    +0.000 A 
ATOM     24  C   UNL     1       3.070   7.876  17.709  0.00  0.00    +0.000 A 
BRANCH  19  25
ATOM     25  N   UNL     1       4.619   6.063  17.047  0.00  0.00    +0.000 N 
BRANCH  25  27
ATOM     26  C   UNL     1       6.919   6.819  17.602  0.00  0.00    +0.000 C 
ATOM     27  C   UNL     1       5.788   6.830  16.584  0.00  0.00    +0.000 C 
ENDBRANCH  25  27
BRANCH  25  28
ATOM     28  C   UNL     1       4.504   4.625  16.726  0.00  0.00    +0.000 C 
ATOM     29  C   UNL     1       5.430   4.070  15.646  0.00  0.00    +0.000 C 
ENDBRANCH  25  28
ENDBRANCH  19  25
ENDBRANCH   1  22
TORSDOF 4
ENDMDL
MODEL 9
REMARK VINA RESULT:      -6.6      3.095      9.218
REMARK  Name = 
REMARK  6 active torsions:
REMARK  status: ('A' for Active; 'I' for Inactive)
REMARK    1  A    between atoms: C_1  and  C_2
REMARK    2  A    between atoms: C_2  and  N_3
REMARK    3  A    between atoms: N_3  and  C_4
REMARK    4  A    between atoms: N_3  and  C_6
REMARK    5  A    between atoms: C_4  and  C_5
REMARK    6  A    between atoms: C_9  and  N_10
REMARK                            x       y       z     vdW  Elec       q    Type
REMARK                         _______ _______ _______ _____ _____    ______ ____
ROOT
ATOM      1  N   UNL     1       1.016   8.372  20.865  0.00  0.00    +0.000 N 
ATOM      2  C   UNL     1       0.365   9.609  20.954  0.00  0.00    +0.000 A 
ATOM      3  N   UNL     1       0.542  10.524  19.998  0.00  0.00    +0.000 NA
ATOM      4  C   UNL     1      -0.081  11.705  20.117  0.00  0.00    +0.000 A 
ATOM      5  N   UNL     1       0.291  12.759  19.248  0.00  0.00    +0.000 N 
ATOM      6  C   UNL     1       0.909  12.319  17.987  0.00  0.00    +0.000 C 
ATOM      7  C   UNL     1       2.414  12.049  18.128  0.00  0.00    +0.000 C 
ATOM      8  O   UNL     1       3.095  13.200  18.657  0.00  0.00    +0.000 OA
ATOM      9  C   UNL     1       2.601  13.474  19.976  0.00  0.00    +0.000 C 
ATOM     10  C   UNL     1       1.095  13.793  19.958  0.00  0.00    +0.000 C 
ATOM     11  C   UNL     1      -1.004  11.963  21.130  0.00  0.00    +0.000 A 
ATOM     12  C   UNL     1      -1.840  13.115  21.150  0.00  0.00    +0.000 A 
ATOM     13  C   UNL     1      -2.611  13.420  22.256  0.00  0.00    +0.000 A 
ATOM     14  C   UNL     1      -2.543  12.578  23.358  0.00  0.00    +0.000 A 
ATOM     15  C   UNL     1      -1.775  11.402  23.299  0.00  0.00    +0.000 A 
ATOM     16  C   UNL     1      -1.030  11.033  22.163  0.00  0.00    +0.000 A 
ATOM     17  N   UNL     1      -0.348   9.862  22.076  0.00  0.00    +0.000 NA
ATOM     18  H   UNL     1       0.849   7.838  21.704  0.00  0.00    +0.000 HD
ENDROOT
BRANCH   1  22
ATOM     19  C   UNL     1       3.683   6.479  18.019  0.00  0.00    +0.000 A 
ATOM     20  C   UNL     1       3.272   5.881  19.220  0.00  0.00    +0.000 A 
ATOM     21  C   UNL     1       2.367   6.498  20.118  0.00  0.00    +0.000 A 
ATOM     22  C   UNL     1       1.823   7.766  19.881  0.00  0.00    +0.000 A 
ATOM     23  C   UNL     1       2.212   8.374  18.691  0.00  0.00    +0.000 A 
ATOM     24  C   UNL     1       3.106   7.743  17.784  0.00  0.00    +0.000 A 
BRANCH  19  25
ATOM     25  N   UNL     1       4.604   5.885  17.135  0.00  0.00    +0.000 N 
BRANCH  25  27
ATOM     26  C   UNL     1       5.577   4.036  15.791  0.00  0.00    +0.000 C 
ATOM     27  C   UNL     1       4.422   4.500  16.668  0.00  0.00    +0.000 C 
ENDBRANCH  25  27
BRANCH  25  28
ATOM     28  C   UNL     1       5.657   6.734  16.538  0.00  0.00    +0.000 C 
ATOM     29  C   UNL     1       6.853   7.091  17.417  0.00  0.00    +0.000 C 
ENDBRANCH  25  28
ENDBRANCH  19  25
ENDBRANCH   1  22
TORSDOF 4
ENDMDL
