MODEL 1
REMARK VINA RESULT:      -8.3      0.000      0.000
REMARK  Name = 
REMARK  11 active torsions:
REMARK  status: ('A' for Active; 'I' for Inactive)
REMARK    1  A    between atoms: C_2  and  C_3
REMARK    2  A    between atoms: C_3  and  N_4
REMARK    3  A    between atoms: C_5  and  C_6
REMARK    4  A    between atoms: C_8  and  C_9
REMARK    5  A    between atoms: C_9  and  C_11
REMARK    6  A    between atoms: C_11  and  S_12
REMARK    7  A    between atoms: S_12  and  C_13
REMARK    8  A    between atoms: N_17  and  C_18
REMARK    9  A    between atoms: C_18  and  C_19
REMARK   10  A    between atoms: C_19  and  C_20
REMARK   11  A    between atoms: C_30  and  C_31
REMARK                            x       y       z     vdW  Elec       q    Type
REMARK                         _______ _______ _______ _____ _____    ______ ____
ROOT
ATOM      1  C   UNL     1       3.375   3.928  18.568  0.00  0.00    +0.000 A 
ATOM      2  N   UNL     1       3.479   2.745  17.984  0.00  0.00    +0.000 NA
ATOM      3  N   UNL     1       4.294   2.889  16.875  0.00  0.00    +0.000 NA
ATOM      4  C   UNL     1       4.613   4.162  16.798  0.00  0.00    +0.000 A 
ATOM      5  N   UNL     1       5.324   4.873  15.816  0.00  0.00    +0.000 N 
ATOM      6  C   UNL     1       5.302   6.238  16.136  0.00  0.00    +0.000 A 
ATOM      7  O   UNL     1       4.740   7.129  15.517  0.00  0.00    +0.000 OA
ATOM      8  C   UNL     1       5.947   6.482  17.435  0.00  0.00    +0.000 A 
ATOM      9  C   UNL     1       7.183   7.138  17.381  0.00  0.00    +0.000 A 
ATOM     10  C   UNL     1       8.126   6.836  18.346  0.00  0.00    +0.000 A 
ATOM     11  C   UNL     1       7.770   5.942  19.374  0.00  0.00    +0.000 A 
ATOM     12  C   UNL     1       6.460   5.349  19.465  0.00  0.00    +0.000 A 
ATOM     13  C   UNL     1       5.510   5.617  18.473  0.00  0.00    +0.000 A 
ATOM     14  N   UNL     1       4.407   4.742  18.056  0.00  0.00    +0.000 N 
ENDROOT
BRANCH   1  15
ATOM     15  S   UNL     1       1.730   4.561  19.011  0.00  0.00    +0.000 S 
BRANCH  15  16
ATOM     16  C   UNL     1       1.993   5.905  20.395  0.00  0.00    +0.000 C 
BRANCH  16  17
ATOM     17  C   UNL     1       1.992   7.406  19.831  0.00  0.00    +0.000 C 
ATOM     18  O   UNL     1       2.786   7.664  18.926  0.00  0.00    +0.000 OA
BRANCH  17  23
ATOM     19  N   UNL     1      -0.223  10.414  20.580  0.00  0.00    +0.000 N 
ATOM     20  C   UNL     1      -0.050   9.923  21.862  0.00  0.00    +0.000 A 
ATOM     21  C   UNL     1      -0.737  10.532  23.053  0.00  0.00    +0.000 C 
ATOM     22  C   UNL     1       0.803   8.826  21.784  0.00  0.00    +0.000 A 
ATOM     23  C   UNL     1       1.136   8.558  20.424  0.00  0.00    +0.000 A 
ATOM     24  C   UNL     1       0.502   9.586  19.702  0.00  0.00    +0.000 A 
ATOM     25  C   UNL     1       0.464   9.910  18.236  0.00  0.00    +0.000 C 
BRANCH  19  26
ATOM     26  C   UNL     1      -1.124  11.526  20.207  0.00  0.00    +0.000 C 
BRANCH  26  28
ATOM     27  C   UNL     1      -0.136  13.513  18.959  0.00  0.00    +0.000 C 
ATOM     28  C   UNL     1      -0.460  12.877  20.106  0.00  0.00    +0.000 C 
ENDBRANCH  26  28
ENDBRANCH  19  26
ENDBRANCH  17  23
ENDBRANCH  16  17
ENDBRANCH  15  16
ENDBRANCH   1  15
BRANCH   5  29
ATOM     29  C   UNL     1       6.650   4.344  15.431  0.00  0.00    +0.000 C 
BRANCH  29  30
ATOM     30  C   UNL     1       6.964   4.598  13.971  0.00  0.00    +0.000 C 
ATOM     31  C   UNL     1       6.119   3.722  13.055  0.00  0.00    +0.000 C 
ENDBRANCH  29  30
ENDBRANCH   5  29
TORSDOF 8
ENDMDL
MODEL 2
REMARK VINA RESULT:      -8.1      0.767      1.770
REMARK  Name = 
REMARK  11 active torsions:
REMARK  status: ('A' for Active; 'I' for Inactive)
REMARK    1  A    between atoms: C_2  and  C_3
REMARK    2  A    between atoms: C_3  and  N_4
REMARK    3  A    between atoms: C_5  and  C_6
REMARK    4  A    between atoms: C_8  and  C_9
REMARK    5  A    between atoms: C_9  and  C_11
REMARK    6  A    between atoms: C_11  and  S_12
REMARK    7  A    between atoms: S_12  and  C_13
REMARK    8  A    between atoms: N_17  and  C_18
REMARK    9  A    between atoms: C_18  and  C_19
REMARK   10  A    between atoms: C_19  and  C_20
REMARK   11  A    between atoms: C_30  and  C_31
REMARK                            x       y       z     vdW  Elec       q    Type
REMARK                         _______ _______ _______ _____ _____    ______ ____
ROOT
ATOM      1  C   UNL     1       3.320   4.101  18.608  0.00  0.00    +0.000 A 
ATOM      2  N   UNL     1       3.369   2.902  18.049  0.00  0.00    +0.000 NA
ATOM      3  N   UNL     1       4.183   2.986  16.933  0.00  0.00    +0.000 NA
ATOM      4  C   UNL     1       4.557   4.242  16.827  0.00  0.00    +0.000 A 
ATOM      5  N   UNL     1       5.293   4.899  15.826  0.00  0.00    +0.000 N 
ATOM      6  C   UNL     1       5.334   6.270  16.117  0.00  0.00    +0.000 A 
ATOM      7  O   UNL     1       4.808   7.171  15.481  0.00  0.00    +0.000 OA
ATOM      8  C   UNL     1       5.996   6.514  17.407  0.00  0.00    +0.000 A 
ATOM      9  C   UNL     1       7.259   7.113  17.333  0.00  0.00    +0.000 A 
ATOM     10  C   UNL     1       8.193   6.791  18.300  0.00  0.00    +0.000 A 
ATOM     11  C   UNL     1       7.804   5.936  19.349  0.00  0.00    +0.000 A 
ATOM     12  C   UNL     1       6.470   5.404  19.459  0.00  0.00    +0.000 A 
ATOM     13  C   UNL     1       5.527   5.692  18.465  0.00  0.00    +0.000 A 
ATOM     14  N   UNL     1       4.384   4.857  18.073  0.00  0.00    +0.000 N 
ENDROOT
BRANCH   1  15
ATOM     15  S   UNL     1       1.707   4.816  19.044  0.00  0.00    +0.000 S 
BRANCH  15  16
ATOM     16  C   UNL     1       2.062   6.432  20.070  0.00  0.00    +0.000 C 
BRANCH  16  17
ATOM     17  C   UNL     1       2.033   7.766  19.182  0.00  0.00    +0.000 C 
ATOM     18  O   UNL     1       2.802   7.816  18.222  0.00  0.00    +0.000 OA
BRANCH  17  23
ATOM     19  N   UNL     1       0.172  10.718  20.711  0.00  0.00    +0.000 N 
ATOM     20  C   UNL     1      -0.091  10.942  19.371  0.00  0.00    +0.000 A 
ATOM     21  C   UNL     1      -0.849  12.150  18.893  0.00  0.00    +0.000 C 
ATOM     22  C   UNL     1       0.480   9.899  18.648  0.00  0.00    +0.000 A 
ATOM     23  C   UNL     1       1.183   9.021  19.523  0.00  0.00    +0.000 A 
ATOM     24  C   UNL     1       0.946   9.546  20.807  0.00  0.00    +0.000 A 
ATOM     25  C   UNL     1       1.373   9.094  22.174  0.00  0.00    +0.000 C 
BRANCH  19  26
ATOM     26  C   UNL     1      -0.187  11.636  21.814  0.00  0.00    +0.000 C 
BRANCH  26  28
ATOM     27  C   UNL     1      -2.248  12.153  23.217  0.00  0.00    +0.000 C 
ATOM     28  C   UNL     1      -1.460  11.285  22.546  0.00  0.00    +0.000 C 
ENDBRANCH  26  28
ENDBRANCH  19  26
ENDBRANCH  17  23
ENDBRANCH  16  17
ENDBRANCH  15  16
ENDBRANCH   1  15
BRANCH   5  29
ATOM     29  C   UNL     1       6.593   4.304  15.447  0.00  0.00    +0.000 C 
BRANCH  29  30
ATOM     30  C   UNL     1       6.891   4.476  13.972  0.00  0.00    +0.000 C 
ATOM     31  C   UNL     1       5.932   3.669  13.108  0.00  0.00    +0.000 C 
ENDBRANCH  29  30
ENDBRANCH   5  29
TORSDOF 8
ENDMDL
MODEL 3
REMARK VINA RESULT:      -7.9      2.896      4.650
REMARK  Name = 
REMARK  11 active torsions:
REMARK  status: ('A' for Active; 'I' for Inactive)
REMARK    1  A    between atoms: C_2  and  C_3
REMARK    2  A    between atoms: C_3  and  N_4
REMARK    3  A    between atoms: C_5  and  C_6
REMARK    4  A    between atoms: C_8  and  C_9
REMARK    5  A    between atoms: C_9  and  C_11
REMARK    6  A    between atoms: C_11  and  S_12
REMARK    7  A    between atoms: S_12  and  C_13
REMARK    8  A    between atoms: N_17  and  C_18
REMARK    9  A    between atoms: C_18  and  C_19
REMARK   10  A    between atoms: C_19  and  C_20
REMARK   11  A    between atoms: C_30  and  C_31
REMARK                            x       y       z     vdW  Elec       q    Type
REMARK                         _______ _______ _______ _____ _____    ______ ____
ROOT
ATOM      1  C   UNL     1       1.922   7.438  19.233  0.00  0.00    +0.000 A 
ATOM      2  N   UNL     1       2.058   8.141  18.119  0.00  0.00    +0.000 NA
ATOM      3  N   UNL     1       3.113   7.603  17.404  0.00  0.00    +0.000 NA
ATOM      4  C   UNL     1       3.610   6.627  18.130  0.00  0.00    +0.000 A 
ATOM      5  N   UNL     1       4.745   5.822  17.934  0.00  0.00    +0.000 N 
ATOM      6  C   UNL     1       4.916   4.994  19.052  0.00  0.00    +0.000 A 
ATOM      7  O   UNL     1       5.828   5.037  19.865  0.00  0.00    +0.000 OA
ATOM      8  C   UNL     1       3.755   4.111  19.233  0.00  0.00    +0.000 A 
ATOM      9  C   UNL     1       3.978   2.756  18.958  0.00  0.00    +0.000 A 
ATOM     10  C   UNL     1       2.929   2.010  18.455  0.00  0.00    +0.000 A 
ATOM     11  C   UNL     1       1.672   2.629  18.316  0.00  0.00    +0.000 A 
ATOM     12  C   UNL     1       1.439   4.000  18.693  0.00  0.00    +0.000 A 
ATOM     13  C   UNL     1       2.502   4.777  19.167  0.00  0.00    +0.000 A 
ATOM     14  N   UNL     1       2.639   6.235  19.059  0.00  0.00    +0.000 N 
ENDROOT
BRANCH   1  15
ATOM     15  S   UNL     1       1.796   8.305  20.824  0.00  0.00    +0.000 S 
BRANCH  15  16
ATOM     16  C   UNL     1       0.101   9.264  20.814  0.00  0.00    +0.000 C 
BRANCH  16  17
ATOM     17  C   UNL     1      -0.003  10.356  19.645  0.00  0.00    +0.000 C 
ATOM     18  O   UNL     1       0.860  11.233  19.620  0.00  0.00    +0.000 OA
BRANCH  17  23
ATOM     19  N   UNL     1      -3.134  11.060  17.592  0.00  0.00    +0.000 N 
ATOM     20  C   UNL     1      -2.500  10.159  16.753  0.00  0.00    +0.000 A 
ATOM     21  C   UNL     1      -3.053   9.794  15.403  0.00  0.00    +0.000 C 
ATOM     22  C   UNL     1      -1.333   9.741  17.387  0.00  0.00    +0.000 A 
ATOM     23  C   UNL     1      -1.172  10.429  18.625  0.00  0.00    +0.000 A 
ATOM     24  C   UNL     1      -2.329  11.223  18.735  0.00  0.00    +0.000 A 
ATOM     25  C   UNL     1      -2.803  12.169  19.801  0.00  0.00    +0.000 C 
BRANCH  19  26
ATOM     26  C   UNL     1      -4.366  11.808  17.262  0.00  0.00    +0.000 C 
BRANCH  26  28
ATOM     27  C   UNL     1      -6.824  11.832  17.929  0.00  0.00    +0.000 C 
ATOM     28  C   UNL     1      -5.644  11.192  17.777  0.00  0.00    +0.000 C 
ENDBRANCH  26  28
ENDBRANCH  19  26
ENDBRANCH  17  23
ENDBRANCH  16  17
ENDBRANCH  15  16
ENDBRANCH   1  15
BRANCH   5  29
ATOM     29  C   UNL     1       4.867   5.139  16.628  0.00  0.00    +0.000 C 
BRANCH  29  30
ATOM     30  C   UNL     1       5.980   5.721  15.781  0.00  0.00    +0.000 C 
ATOM     31  C   UNL     1       6.699   4.643  14.982  0.00  0.00    +0.000 C 
ENDBRANCH  29  30
ENDBRANCH   5  29
TORSDOF 8
ENDMDL
MODEL 4
REMARK VINA RESULT:      -7.6      4.785      7.657
REMARK  Name = 
REMARK  11 active torsions:
REMARK  status: ('A' for Active; 'I' for Inactive)
REMARK    1  A    between atoms: C_2  and  C_3
REMARK    2  A    between atoms: C_3  and  N_4
REMARK    3  A    between atoms: C_5  and  C_6
REMARK    4  A    between atoms: C_8  and  C_9
REMARK    5  A    between atoms: C_9  and  C_11
REMARK    6  A    between atoms: C_11  and  S_12
REMARK    7  A    between atoms: S_12  and  C_13
REMARK    8  A    between atoms: N_17  and  C_18
REMARK    9  A    between atoms: C_18  and  C_19
REMARK   10  A    between atoms: C_19  and  C_20
REMARK   11  A    between atoms: C_30  and  C_31
REMARK                            x       y       z     vdW  Elec       q    Type
REMARK                         _______ _______ _______ _____ _____    ______ ____
ROOT
ATOM      1  C   UNL     1       5.874   6.866  17.289  0.00  0.00    +0.000 A 
ATOM      2  N   UNL     1       5.617   6.602  16.018  0.00  0.00    +0.000 NA
ATOM      3  N   UNL     1       4.888   5.427  15.968  0.00  0.00    +0.000 NA
ATOM      4  C   UNL     1       4.772   4.996  17.204  0.00  0.00    +0.000 A 
ATOM      5  N   UNL     1       4.226   3.806  17.714  0.00  0.00    +0.000 N 
ATOM      6  C   UNL     1       4.441   3.762  19.099  0.00  0.00    +0.000 A 
ATOM      7  O   UNL     1       5.162   2.984  19.705  0.00  0.00    +0.000 OA
ATOM      8  C   UNL     1       3.781   4.892  19.769  0.00  0.00    +0.000 A 
ATOM      9  C   UNL     1       2.665   4.564  20.547  0.00  0.00    +0.000 A 
ATOM     10  C   UNL     1       1.642   5.489  20.646  0.00  0.00    +0.000 A 
ATOM     11  C   UNL     1       1.807   6.740  20.022  0.00  0.00    +0.000 A 
ATOM     12  C   UNL     1       3.004   7.094  19.303  0.00  0.00    +0.000 A 
ATOM     13  C   UNL     1       4.031   6.152  19.164  0.00  0.00    +0.000 A 
ATOM     14  N   UNL     1       5.004   6.074  18.067  0.00  0.00    +0.000 N 
ENDROOT
BRANCH   1  15
ATOM     15  S   UNL     1       7.573   7.270  17.789  0.00  0.00    +0.000 S 
BRANCH  15  16
ATOM     16  C   UNL     1       7.836   9.166  17.428  0.00  0.00    +0.000 C 
BRANCH  16  17
ATOM     17  C   UNL     1       8.788   9.889  18.495  0.00  0.00    +0.000 C 
ATOM     18  O   UNL     1       9.234   9.195  19.409  0.00  0.00    +0.000 OA
BRANCH  17  23
ATOM     19  N   UNL     1      10.173  13.425  18.800  0.00  0.00    +0.000 N 
ATOM     20  C   UNL     1       8.985  13.694  18.142  0.00  0.00    +0.000 A 
ATOM     21  C   UNL     1       8.614  15.079  17.689  0.00  0.00    +0.000 C 
ATOM     22  C   UNL     1       8.303  12.489  17.994  0.00  0.00    +0.000 A 
ATOM     23  C   UNL     1       9.089  11.414  18.501  0.00  0.00    +0.000 A 
ATOM     24  C   UNL     1      10.237  12.037  19.022  0.00  0.00    +0.000 A 
ATOM     25  C   UNL     1      11.450  11.491  19.720  0.00  0.00    +0.000 C 
BRANCH  19  26
ATOM     26  C   UNL     1      11.234  14.417  19.081  0.00  0.00    +0.000 C 
BRANCH  26  28
ATOM     27  C   UNL     1      12.311  13.866  16.840  0.00  0.00    +0.000 C 
ATOM     28  C   UNL     1      12.269  14.569  17.994  0.00  0.00    +0.000 C 
ENDBRANCH  26  28
ENDBRANCH  19  26
ENDBRANCH  17  23
ENDBRANCH  16  17
ENDBRANCH  15  16
ENDBRANCH   1  15
BRANCH   5  29
ATOM     29  C   UNL     1       2.854   3.458  17.286  0.00  0.00    +0.000 C 
BRANCH  29  30
ATOM     30  C   UNL     1       2.419   2.104  17.807  0.00  0.00    +0.000 C 
ATOM     31  C   UNL     1       1.101   2.192  18.565  0.00  0.00    +0.000 C 
ENDBRANCH  29  30
ENDBRANCH   5  29
TORSDOF 8
ENDMDL
MODEL 5
REMARK VINA RESULT:      -7.6      4.846      7.607
REMARK  Name = 
REMARK  11 active torsions:
REMARK  status: ('A' for Active; 'I' for Inactive)
REMARK    1  A    between atoms: C_2  and  C_3
REMARK    2  A    between atoms: C_3  and  N_4
REMARK    3  A    between atoms: C_5  and  C_6
REMARK    4  A    between atoms: C_8  and  C_9
REMARK    5  A    between atoms: C_9  and  C_11
REMARK    6  A    between atoms: C_11  and  S_12
REMARK    7  A    between atoms: S_12  and  C_13
REMARK    8  A    between atoms: N_17  and  C_18
REMARK    9  A    between atoms: C_18  and  C_19
REMARK   10  A    between atoms: C_19  and  C_20
REMARK   11  A    between atoms: C_30  and  C_31
REMARK                            x       y       z     vdW  Elec       q    Type
REMARK                         _______ _______ _______ _____ _____    ______ ____
ROOT
ATOM      1  C   UNL     1       5.973   6.835  17.274  0.00  0.00    +0.000 A 
ATOM      2  N   UNL     1       5.728   6.557  16.003  0.00  0.00    +0.000 NA
ATOM      3  N   UNL     1       4.979   5.394  15.959  0.00  0.00    +0.000 NA
ATOM      4  C   UNL     1       4.840   4.982  17.200  0.00  0.00    +0.000 A 
ATOM      5  N   UNL     1       4.266   3.809  17.719  0.00  0.00    +0.000 N 
ATOM      6  C   UNL     1       4.462   3.781  19.107  0.00  0.00    +0.000 A 
ATOM      7  O   UNL     1       5.162   3.000  19.734  0.00  0.00    +0.000 OA
ATOM      8  C   UNL     1       3.813   4.932  19.752  0.00  0.00    +0.000 A 
ATOM      9  C   UNL     1       2.681   4.633  20.519  0.00  0.00    +0.000 A 
ATOM     10  C   UNL     1       1.673   5.577  20.592  0.00  0.00    +0.000 A 
ATOM     11  C   UNL     1       1.868   6.816  19.953  0.00  0.00    +0.000 A 
ATOM     12  C   UNL     1       3.081   7.140  19.246  0.00  0.00    +0.000 A 
ATOM     13  C   UNL     1       4.092   6.179  19.133  0.00  0.00    +0.000 A 
ATOM     14  N   UNL     1       5.079   6.068  18.051  0.00  0.00    +0.000 N 
ENDROOT
BRANCH   1  15
ATOM     15  S   UNL     1       7.672   7.217  17.791  0.00  0.00    +0.000 S 
BRANCH  15  16
ATOM     16  C   UNL     1       7.906   9.140  17.596  0.00  0.00    +0.000 C 
BRANCH  16  17
ATOM     17  C   UNL     1       8.871   9.778  18.705  0.00  0.00    +0.000 C 
ATOM     18  O   UNL     1       8.959   9.184  19.779  0.00  0.00    +0.000 OA
BRANCH  17  23
ATOM     19  N   UNL     1      10.519  13.198  19.022  0.00  0.00    +0.000 N 
ATOM     20  C   UNL     1      10.867  12.889  17.718  0.00  0.00    +0.000 A 
ATOM     21  C   UNL     1      11.748  13.783  16.889  0.00  0.00    +0.000 C 
ATOM     22  C   UNL     1      10.284  11.664  17.404  0.00  0.00    +0.000 A 
ATOM     23  C   UNL     1       9.606  11.137  18.542  0.00  0.00    +0.000 A 
ATOM     24  C   UNL     1       9.748  12.134  19.525  0.00  0.00    +0.000 A 
ATOM     25  C   UNL     1       9.254  12.229  20.940  0.00  0.00    +0.000 C 
BRANCH  19  26
ATOM     26  C   UNL     1      11.001  14.376  19.775  0.00  0.00    +0.000 C 
BRANCH  26  28
ATOM     27  C   UNL     1       9.379  16.058  18.761  0.00  0.00    +0.000 C 
ATOM     28  C   UNL     1      10.041  15.540  19.820  0.00  0.00    +0.000 C 
ENDBRANCH  26  28
ENDBRANCH  19  26
ENDBRANCH  17  23
ENDBRANCH  16  17
ENDBRANCH  15  16
ENDBRANCH   1  15
BRANCH   5  29
ATOM     29  C   UNL     1       2.894   3.479  17.277  0.00  0.00    +0.000 C 
BRANCH  29  30
ATOM     30  C   UNL     1       2.420   2.152  17.832  0.00  0.00    +0.000 C 
ATOM     31  C   UNL     1       1.090   2.292  18.561  0.00  0.00    +0.000 C 
ENDBRANCH  29  30
ENDBRANCH   5  29
TORSDOF 8
ENDMDL
MODEL 6
REMARK VINA RESULT:      -7.5      2.693      4.318
REMARK  Name = 
REMARK  11 active torsions:
REMARK  status: ('A' for Active; 'I' for Inactive)
REMARK    1  A    between atoms: C_2  and  C_3
REMARK    2  A    between atoms: C_3  and  N_4
REMARK    3  A    between atoms: C_5  and  C_6
REMARK    4  A    between atoms: C_8  and  C_9
REMARK    5  A    between atoms: C_9  and  C_11
REMARK    6  A    between atoms: C_11  and  S_12
REMARK    7  A    between atoms: S_12  and  C_13
REMARK    8  A    between atoms: N_17  and  C_18
REMARK    9  A    between atoms: C_18  and  C_19
REMARK   10  A    between atoms: C_19  and  C_20
REMARK   11  A    between atoms: C_30  and  C_31
REMARK                            x       y       z     vdW  Elec       q    Type
REMARK                         _______ _______ _______ _____ _____    ______ ____
ROOT
ATOM      1  C   UNL     1       2.031   7.316  19.221  0.00  0.00    +0.000 A 
ATOM      2  N   UNL     1       2.168   8.057  18.132  0.00  0.00    +0.000 NA
ATOM      3  N   UNL     1       3.238   7.558  17.411  0.00  0.00    +0.000 NA
ATOM      4  C   UNL     1       3.743   6.566  18.111  0.00  0.00    +0.000 A 
ATOM      5  N   UNL     1       4.892   5.785  17.902  0.00  0.00    +0.000 N 
ATOM      6  C   UNL     1       5.063   4.924  18.995  0.00  0.00    +0.000 A 
ATOM      7  O   UNL     1       5.965   4.954  19.819  0.00  0.00    +0.000 OA
ATOM      8  C   UNL     1       3.914   4.018  19.135  0.00  0.00    +0.000 A 
ATOM      9  C   UNL     1       4.160   2.677  18.819  0.00  0.00    +0.000 A 
ATOM     10  C   UNL     1       3.128   1.931  18.281  0.00  0.00    +0.000 A 
ATOM     11  C   UNL     1       1.863   2.536  18.148  0.00  0.00    +0.000 A 
ATOM     12  C   UNL     1       1.606   3.890  18.566  0.00  0.00    +0.000 A 
ATOM     13  C   UNL     1       2.652   4.667  19.077  0.00  0.00    +0.000 A 
ATOM     14  N   UNL     1       2.767   6.130  19.017  0.00  0.00    +0.000 N 
ENDROOT
BRANCH   1  15
ATOM     15  S   UNL     1       1.875   8.130  20.837  0.00  0.00    +0.000 S 
BRANCH  15  16
ATOM     16  C   UNL     1       0.114   8.961  20.886  0.00  0.00    +0.000 C 
BRANCH  16  17
ATOM     17  C   UNL     1       0.045  10.347  20.085  0.00  0.00    +0.000 C 
ATOM     18  O   UNL     1       1.116  10.873  19.782  0.00  0.00    +0.000 OA
BRANCH  17  23
ATOM     19  N   UNL     1      -3.219  11.761  18.719  0.00  0.00    +0.000 N 
ATOM     20  C   UNL     1      -3.140  12.459  19.912  0.00  0.00    +0.000 A 
ATOM     21  C   UNL     1      -4.227  13.394  20.368  0.00  0.00    +0.000 C 
ATOM     22  C   UNL     1      -1.948  12.100  20.534  0.00  0.00    +0.000 A 
ATOM     23  C   UNL     1      -1.275  11.105  19.768  0.00  0.00    +0.000 A 
ATOM     24  C   UNL     1      -2.082  10.938  18.628  0.00  0.00    +0.000 A 
ATOM     25  C   UNL     1      -1.940  10.064  17.414  0.00  0.00    +0.000 C 
BRANCH  19  26
ATOM     26  C   UNL     1      -4.370  11.788  17.791  0.00  0.00    +0.000 C 
BRANCH  26  28
ATOM     27  C   UNL     1      -6.671  11.092  18.634  0.00  0.00    +0.000 C 
ATOM     28  C   UNL     1      -5.464  10.796  18.104  0.00  0.00    +0.000 C 
ENDBRANCH  26  28
ENDBRANCH  19  26
ENDBRANCH  17  23
ENDBRANCH  16  17
ENDBRANCH  15  16
ENDBRANCH   1  15
BRANCH   5  29
ATOM     29  C   UNL     1       5.038   5.146  16.577  0.00  0.00    +0.000 C 
BRANCH  29  30
ATOM     30  C   UNL     1       6.444   4.635  16.341  0.00  0.00    +0.000 C 
ATOM     31  C   UNL     1       6.880   4.836  14.896  0.00  0.00    +0.000 C 
ENDBRANCH  29  30
ENDBRANCH   5  29
TORSDOF 8
ENDMDL
MODEL 7
REMARK VINA RESULT:      -7.5      0.830      1.659
REMARK  Name = 
REMARK  11 active torsions:
REMARK  status: ('A' for Active; 'I' for Inactive)
REMARK    1  A    between atoms: C_2  and  C_3
REMARK    2  A    between atoms: C_3  and  N_4
REMARK    3  A    between atoms: C_5  and  C_6
REMARK    4  A    between atoms: C_8  and  C_9
REMARK    5  A    between atoms: C_9  and  C_11
REMARK    6  A    between atoms: C_11  and  S_12
REMARK    7  A    between atoms: S_12  and  C_13
REMARK    8  A    between atoms: N_17  and  C_18
REMARK    9  A    between atoms: C_18  and  C_19
REMARK   10  A    between atoms: C_19  and  C_20
REMARK   11  A    between atoms: C_30  and  C_31
REMARK                            x       y       z     vdW  Elec       q    Type
REMARK                         _______ _______ _______ _____ _____    ______ ____
ROOT
ATOM      1  C   UNL     1       3.206   4.278  18.793  0.00  0.00    +0.000 A 
ATOM      2  N   UNL     1       3.162   3.066  18.262  0.00  0.00    +0.000 NA
ATOM      3  N   UNL     1       3.939   3.076  17.117  0.00  0.00    +0.000 NA
ATOM      4  C   UNL     1       4.384   4.304  16.967  0.00  0.00    +0.000 A 
ATOM      5  N   UNL     1       5.122   4.893  15.927  0.00  0.00    +0.000 N 
ATOM      6  C   UNL     1       5.256   6.266  16.183  0.00  0.00    +0.000 A 
ATOM      7  O   UNL     1       4.762   7.183  15.544  0.00  0.00    +0.000 OA
ATOM      8  C   UNL     1       5.978   6.496  17.443  0.00  0.00    +0.000 A 
ATOM      9  C   UNL     1       7.271   7.016  17.311  0.00  0.00    +0.000 A 
ATOM     10  C   UNL     1       8.218   6.658  18.252  0.00  0.00    +0.000 A 
ATOM     11  C   UNL     1       7.816   5.852  19.334  0.00  0.00    +0.000 A 
ATOM     12  C   UNL     1       6.458   5.404  19.503  0.00  0.00    +0.000 A 
ATOM     13  C   UNL     1       5.498   5.728  18.536  0.00  0.00    +0.000 A 
ATOM     14  N   UNL     1       4.294   4.956  18.204  0.00  0.00    +0.000 N 
ENDROOT
BRANCH   1  15
ATOM     15  S   UNL     1       1.656   5.099  19.268  0.00  0.00    +0.000 S 
BRANCH  15  16
ATOM     16  C   UNL     1       2.140   6.815  20.051  0.00  0.00    +0.000 C 
BRANCH  16  17
ATOM     17  C   UNL     1       2.006   8.040  19.027  0.00  0.00    +0.000 C 
ATOM     18  O   UNL     1       2.856   8.125  18.141  0.00  0.00    +0.000 OA
BRANCH  17  23
ATOM     19  N   UNL     1      -0.394  10.818  20.045  0.00  0.00    +0.000 N 
ATOM     20  C   UNL     1      -0.619  10.802  18.679  0.00  0.00    +0.000 A 
ATOM     21  C   UNL     1      -1.538  11.783  18.005  0.00  0.00    +0.000 C 
ATOM     22  C   UNL     1       0.154   9.779  18.136  0.00  0.00    +0.000 A 
ATOM     23  C   UNL     1       0.944   9.168  19.153  0.00  0.00    +0.000 A 
ATOM     24  C   UNL     1       0.555   9.822  20.336  0.00  0.00    +0.000 A 
ATOM     25  C   UNL     1       0.977   9.648  21.767  0.00  0.00    +0.000 C 
BRANCH  19  26
ATOM     26  C   UNL     1      -0.957  11.809  20.988  0.00  0.00    +0.000 C 
BRANCH  26  28
ATOM     27  C   UNL     1       1.016  13.413  21.130  0.00  0.00    +0.000 C 
ATOM     28  C   UNL     1      -0.301  13.168  20.951  0.00  0.00    +0.000 C 
ENDBRANCH  26  28
ENDBRANCH  19  26
ENDBRANCH  17  23
ENDBRANCH  16  17
ENDBRANCH  15  16
ENDBRANCH   1  15
BRANCH   5  29
ATOM     29  C   UNL     1       6.369   4.212  15.517  0.00  0.00    +0.000 C 
BRANCH  29  30
ATOM     30  C   UNL     1       6.440   4.005  14.018  0.00  0.00    +0.000 C 
ATOM     31  C   UNL     1       7.450   4.942  13.370  0.00  0.00    +0.000 C 
ENDBRANCH  29  30
ENDBRANCH   5  29
TORSDOF 8
ENDMDL
MODEL 8
REMARK VINA RESULT:      -7.4      3.367      5.321
REMARK  Name = 
REMARK  11 active torsions:
REMARK  status: ('A' for Active; 'I' for Inactive)
REMARK    1  A    between atoms: C_2  and  C_3
REMARK    2  A    between atoms: C_3  and  N_4
REMARK    3  A    between atoms: C_5  and  C_6
REMARK    4  A    between atoms: C_8  and  C_9
REMARK    5  A    between atoms: C_9  and  C_11
REMARK    6  A    between atoms: C_11  and  S_12
REMARK    7  A    between atoms: S_12  and  C_13
REMARK    8  A    between atoms: N_17  and  C_18
REMARK    9  A    between atoms: C_18  and  C_19
REMARK   10  A    between atoms: C_19  and  C_20
REMARK   11  A    between atoms: C_30  and  C_31
REMARK                            x       y       z     vdW  Elec       q    Type
REMARK                         _______ _______ _______ _____ _____    ______ ____
ROOT
ATOM      1  C   UNL     1       2.073   8.216  19.006  0.00  0.00    +0.000 A 
ATOM      2  N   UNL     1       1.990   8.145  20.326  0.00  0.00    +0.000 NA
ATOM      3  N   UNL     1       2.059   6.811  20.684  0.00  0.00    +0.000 NA
ATOM      4  C   UNL     1       2.131   6.118  19.569  0.00  0.00    +0.000 A 
ATOM      5  N   UNL     1       2.114   4.731  19.347  0.00  0.00    +0.000 N 
ATOM      6  C   UNL     1       2.104   4.490  17.966  0.00  0.00    +0.000 A 
ATOM      7  O   UNL     1       1.195   4.000  17.313  0.00  0.00    +0.000 OA
ATOM      8  C   UNL     1       3.309   5.041  17.328  0.00  0.00    +0.000 A 
ATOM      9  C   UNL     1       4.234   4.096  16.869  0.00  0.00    +0.000 A 
ATOM     10  C   UNL     1       5.576   4.430  16.890  0.00  0.00    +0.000 A 
ATOM     11  C   UNL     1       5.936   5.728  17.301  0.00  0.00    +0.000 A 
ATOM     12  C   UNL     1       4.962   6.718  17.681  0.00  0.00    +0.000 A 
ATOM     13  C   UNL     1       3.604   6.379  17.701  0.00  0.00    +0.000 A 
ATOM     14  N   UNL     1       2.564   6.975  18.550  0.00  0.00    +0.000 N 
ENDROOT
BRANCH   1  15
ATOM     15  S   UNL     1       0.860   9.210  18.090  0.00  0.00    +0.000 S 
BRANCH  15  16
ATOM     16  C   UNL     1      -0.260  10.099  19.412  0.00  0.00    +0.000 C 
BRANCH  16  17
ATOM     17  C   UNL     1      -0.941  11.443  18.865  0.00  0.00    +0.000 C 
ATOM     18  O   UNL     1      -0.199  12.275  18.344  0.00  0.00    +0.000 OA
BRANCH  17  23
ATOM     19  N   UNL     1      -4.730  11.828  18.768  0.00  0.00    +0.000 N 
ATOM     20  C   UNL     1      -4.442  12.611  19.872  0.00  0.00    +0.000 A 
ATOM     21  C   UNL     1      -5.519  13.255  20.702  0.00  0.00    +0.000 C 
ATOM     22  C   UNL     1      -3.059  12.632  20.026  0.00  0.00    +0.000 A 
ATOM     23  C   UNL     1      -2.443  11.795  19.051  0.00  0.00    +0.000 A 
ATOM     24  C   UNL     1      -3.514  11.332  18.263  0.00  0.00    +0.000 A 
ATOM     25  C   UNL     1      -3.563  10.437  17.058  0.00  0.00    +0.000 C 
BRANCH  19  26
ATOM     26  C   UNL     1      -6.090  11.476  18.305  0.00  0.00    +0.000 C 
BRANCH  26  28
ATOM     27  C   UNL     1      -7.318  10.150  20.099  0.00  0.00    +0.000 C 
ATOM     28  C   UNL     1      -6.667  10.223  18.918  0.00  0.00    +0.000 C 
ENDBRANCH  26  28
ENDBRANCH  19  26
ENDBRANCH  17  23
ENDBRANCH  16  17
ENDBRANCH  15  16
ENDBRANCH   1  15
BRANCH   5  29
ATOM     29  C   UNL     1       3.080   3.915  20.114  0.00  0.00    +0.000 C 
BRANCH  29  30
ATOM     30  C   UNL     1       2.442   3.260  21.322  0.00  0.00    +0.000 C 
ATOM     31  C   UNL     1       1.018   2.809  21.028  0.00  0.00    +0.000 C 
ENDBRANCH  29  30
ENDBRANCH   5  29
TORSDOF 8
ENDMDL
MODEL 9
REMARK VINA RESULT:      -7.4      2.632      4.210
REMARK  Name = 
REMARK  11 active torsions:
REMARK  status: ('A' for Active; 'I' for Inactive)
REMARK    1  A    between atoms: C_2  and  C_3
REMARK    2  A    between atoms: C_3  and  N_4
REMARK    3  A    between atoms: C_5  and  C_6
REMARK    4  A    between atoms: C_8  and  C_9
REMARK    5  A    between atoms: C_9  and  C_11
REMARK    6  A    between atoms: C_11  and  S_12
REMARK    7  A    between atoms: S_12  and  C_13
REMARK    8  A    between atoms: N_17  and  C_18
REMARK    9  A    between atoms: C_18  and  C_19
REMARK   10  A    between atoms: C_19  and  C_20
REMARK   11  A    between atoms: C_30  and  C_31
REMARK                            x       y       z     vdW  Elec       q    Type
REMARK                         _______ _______ _______ _____ _____    ______ ____
ROOT
ATOM      1  C   UNL     1       1.872   7.516  19.121  0.00  0.00    +0.000 A 
ATOM      2  N   UNL     1       1.987   8.356  18.103  0.00  0.00    +0.000 NA
ATOM      3  N   UNL     1       3.111   7.997  17.382  0.00  0.00    +0.000 NA
ATOM      4  C   UNL     1       3.665   6.986  18.014  0.00  0.00    +0.000 A 
ATOM      5  N   UNL     1       4.874   6.308  17.780  0.00  0.00    +0.000 N 
ATOM      6  C   UNL     1       5.075   5.370  18.802  0.00  0.00    +0.000 A 
ATOM      7  O   UNL     1       5.948   5.391  19.657  0.00  0.00    +0.000 OA
ATOM      8  C   UNL     1       3.990   4.377  18.825  0.00  0.00    +0.000 A 
ATOM      9  C   UNL     1       4.343   3.089  18.406  0.00  0.00    +0.000 A 
ATOM     10  C   UNL     1       3.383   2.322  17.771  0.00  0.00    +0.000 A 
ATOM     11  C   UNL     1       2.083   2.847  17.644  0.00  0.00    +0.000 A 
ATOM     12  C   UNL     1       1.715   4.139  18.166  0.00  0.00    +0.000 A 
ATOM     13  C   UNL     1       2.687   4.940  18.776  0.00  0.00    +0.000 A 
ATOM     14  N   UNL     1       2.698   6.407  18.844  0.00  0.00    +0.000 N 
ENDROOT
BRANCH   1  15
ATOM     15  S   UNL     1       1.610   8.174  20.794  0.00  0.00    +0.000 S 
BRANCH  15  16
ATOM     16  C   UNL     1       0.559   9.802  20.604  0.00  0.00    +0.000 C 
BRANCH  16  17
ATOM     17  C   UNL     1       0.067  10.407  22.005  0.00  0.00    +0.000 C 
ATOM     18  O   UNL     1       0.682  10.057  23.013  0.00  0.00    +0.000 OA
BRANCH  17  23
ATOM     19  N   UNL     1      -2.948  12.714  21.685  0.00  0.00    +0.000 N 
ATOM     20  C   UNL     1      -3.053  12.374  23.023  0.00  0.00    +0.000 A 
ATOM     21  C   UNL     1      -4.195  12.840  23.883  0.00  0.00    +0.000 C 
ATOM     22  C   UNL     1      -1.970  11.557  23.337  0.00  0.00    +0.000 A 
ATOM     23  C   UNL     1      -1.188  11.308  22.172  0.00  0.00    +0.000 A 
ATOM     24  C   UNL     1      -1.811  12.068  21.166  0.00  0.00    +0.000 A 
ATOM     25  C   UNL     1      -1.486  12.275  19.714  0.00  0.00    +0.000 C 
BRANCH  19  26
ATOM     26  C   UNL     1      -3.944  13.502  20.927  0.00  0.00    +0.000 C 
BRANCH  26  28
ATOM     27  C   UNL     1      -5.218  12.363  19.039  0.00  0.00    +0.000 C 
ATOM     28  C   UNL     1      -5.079  12.699  20.341  0.00  0.00    +0.000 C 
ENDBRANCH  26  28
ENDBRANCH  19  26
ENDBRANCH  17  23
ENDBRANCH  16  17
ENDBRANCH  15  16
ENDBRANCH   1  15
BRANCH   5  29
ATOM     29  C   UNL     1       5.105   5.798  16.412  0.00  0.00    +0.000 C 
BRANCH  29  30
ATOM     30  C   UNL     1       6.531   5.330  16.210  0.00  0.00    +0.000 C 
ATOM     31  C   UNL     1       6.611   4.193  15.201  0.00  0.00    +0.000 C 
ENDBRANCH  29  30
ENDBRANCH   5  29
TORSDOF 8
ENDMDL
