MODEL 1
REMARK VINA RESULT:      -7.2      0.000      0.000
REMARK  Name = 
REMARK  8 active torsions:
REMARK  status: ('A' for Active; 'I' for Inactive)
REMARK    1  A    between atoms: C_1  and  O_2
REMARK    2  A    between atoms: O_2  and  C_3
REMARK    3  A    between atoms: C_8  and  N_9
REMARK    4  A    between atoms: N_12  and  C_13
REMARK    5  A    between atoms: C_13  and  C_14
REMARK    6  A    between atoms: C_14  and  C_15
REMARK    7  A    between atoms: C_15  and  N_16
REMARK    8  A    between atoms: C_20  and  C_21
REMARK                            x       y       z     vdW  Elec       q    Type
REMARK                         _______ _______ _______ _____ _____    ______ ____
ROOT
ATOM      1  C   UNL     1       1.023   7.931  21.021  0.00  0.00    +0.000 C 
ENDROOT
BRANCH   1   2
ATOM      2  C   UNL     1       2.226   7.073  20.617  0.00  0.00    +0.000 C 
BRANCH   2   6
ATOM      3  N   UNL     1       4.414   5.800  17.939  0.00  0.00    +0.000 N 
ATOM      4  C   UNL     1       3.670   7.063  17.868  0.00  0.00    +0.000 C 
ATOM      5  C   UNL     1       2.181   6.788  18.164  0.00  0.00    +0.000 C 
ATOM      6  N   UNL     1       1.936   6.170  19.495  0.00  0.00    +0.000 NA
ATOM      7  C   UNL     1       2.744   4.927  19.572  0.00  0.00    +0.000 C 
ATOM      8  C   UNL     1       4.246   5.063  19.204  0.00  0.00    +0.000 C 
BRANCH   3  14
ATOM      9  C   UNL     1       6.651   5.701  16.863  0.00  0.00    +0.000 A 
ATOM     10  C   UNL     1       7.442   5.244  15.794  0.00  0.00    +0.000 A 
ATOM     11  C   UNL     1       6.900   4.445  14.792  0.00  0.00    +0.000 A 
ATOM     12  C   UNL     1       5.561   4.101  14.844  0.00  0.00    +0.000 A 
ATOM     13  C   UNL     1       4.765   4.558  15.899  0.00  0.00    +0.000 A 
ATOM     14  C   UNL     1       5.269   5.371  16.935  0.00  0.00    +0.000 A 
BRANCH   9  16
ATOM     15  C   UNL     1       7.845   5.963  18.904  0.00  0.00    +0.000 C 
ATOM     16  O   UNL     1       7.170   6.566  17.804  0.00  0.00    +0.000 OA
ENDBRANCH   9  16
ENDBRANCH   3  14
ENDBRANCH   2   6
ENDBRANCH   1   2
BRANCH   1  17
ATOM     17  C   UNL     1       1.450   9.294  21.582  0.00  0.00    +0.000 C 
BRANCH  17  18
ATOM     18  N   UNL     1       0.304  10.193  21.710  0.00  0.00    +0.000 N 
ATOM     19  C   UNL     1      -0.134  10.816  20.544  0.00  0.00    +0.000 C 
ATOM     20  O   UNL     1       0.437  10.703  19.459  0.00  0.00    +0.000 OA
ATOM     21  C   UNL     1      -1.435  11.561  20.633  0.00  0.00    +0.000 C 
ATOM     22  C   UNL     1      -1.620  12.206  21.996  0.00  0.00    +0.000 C 
ATOM     23  C   UNL     1      -1.526  11.151  23.089  0.00  0.00    +0.000 C 
ATOM     24  C   UNL     1      -0.327  10.246  22.951  0.00  0.00    +0.000 C 
ATOM     25  O   UNL     1       0.001   9.539  23.906  0.00  0.00    +0.000 OA
BRANCH  22  26
ATOM     26  C   UNL     1      -2.952  12.940  22.043  0.00  0.00    +0.000 A 
ATOM     27  C   UNL     1      -3.816  12.949  20.932  0.00  0.00    +0.000 A 
ATOM     28  C   UNL     1      -5.017  13.658  20.962  0.00  0.00    +0.000 A 
ATOM     29  C   UNL     1      -5.364  14.370  22.105  0.00  0.00    +0.000 A 
ATOM     30 CL   UNL     1      -6.834  15.263  22.133  0.00  0.00    +0.000 Cl
ATOM     31  C   UNL     1      -4.527  14.370  23.219  0.00  0.00    +0.000 A 
ATOM     32  C   UNL     1      -3.325  13.655  23.187  0.00  0.00    +0.000 A 
ENDBRANCH  22  26
ENDBRANCH  17  18
ENDBRANCH   1  17
TORSDOF 7
ENDMDL
MODEL 2
REMARK VINA RESULT:      -7.2      4.240     11.845
REMARK  Name = 
REMARK  8 active torsions:
REMARK  status: ('A' for Active; 'I' for Inactive)
REMARK    1  A    between atoms: C_1  and  O_2
REMARK    2  A    between atoms: O_2  and  C_3
REMARK    3  A    between atoms: C_8  and  N_9
REMARK    4  A    between atoms: N_12  and  C_13
REMARK    5  A    between atoms: C_13  and  C_14
REMARK    6  A    between atoms: C_14  and  C_15
REMARK    7  A    between atoms: C_15  and  N_16
REMARK    8  A    between atoms: C_20  and  C_21
REMARK                            x       y       z     vdW  Elec       q    Type
REMARK                         _______ _______ _______ _____ _____    ______ ____
ROOT
ATOM      1  C   UNL     1      -0.723  10.908  20.357  0.00  0.00    +0.000 C 
ENDROOT
BRANCH   1   2
ATOM      2  C   UNL     1      -1.364  12.182  19.799  0.00  0.00    +0.000 C 
BRANCH   2   6
ATOM      3  N   UNL     1      -4.246  13.237  21.840  0.00  0.00    +0.000 N 
ATOM      4  C   UNL     1      -3.958  13.742  20.493  0.00  0.00    +0.000 C 
ATOM      5  C   UNL     1      -2.510  14.271  20.452  0.00  0.00    +0.000 C 
ATOM      6  N   UNL     1      -1.486  13.250  20.801  0.00  0.00    +0.000 NA
ATOM      7  C   UNL     1      -1.828  12.706  22.139  0.00  0.00    +0.000 C 
ATOM      8  C   UNL     1      -3.292  12.226  22.329  0.00  0.00    +0.000 C 
BRANCH   3  14
ATOM      9  C   UNL     1      -6.547  12.832  22.685  0.00  0.00    +0.000 A 
ATOM     10  C   UNL     1      -7.650  13.304  23.419  0.00  0.00    +0.000 A 
ATOM     11  C   UNL     1      -7.608  14.538  24.060  0.00  0.00    +0.000 A 
ATOM     12  C   UNL     1      -6.467  15.316  23.967  0.00  0.00    +0.000 A 
ATOM     13  C   UNL     1      -5.370  14.858  23.232  0.00  0.00    +0.000 A 
ATOM     14  C   UNL     1      -5.367  13.616  22.564  0.00  0.00    +0.000 A 
BRANCH   9  16
ATOM     15  C   UNL     1      -7.529  11.639  20.876  0.00  0.00    +0.000 C 
ATOM     16  O   UNL     1      -6.626  11.650  21.977  0.00  0.00    +0.000 OA
ENDBRANCH   9  16
ENDBRANCH   3  14
ENDBRANCH   2   6
ENDBRANCH   1   2
BRANCH   1  17
ATOM     17  C   UNL     1       0.799  10.898  20.165  0.00  0.00    +0.000 C 
BRANCH  17  18
ATOM     18  N   UNL     1       1.283   9.551  19.864  0.00  0.00    +0.000 N 
ATOM     19  C   UNL     1       1.291   8.641  20.917  0.00  0.00    +0.000 C 
ATOM     20  O   UNL     1       0.991   8.938  22.073  0.00  0.00    +0.000 OA
ATOM     21  C   UNL     1       1.577   7.210  20.561  0.00  0.00    +0.000 C 
ATOM     22  C   UNL     1       2.566   7.104  19.412  0.00  0.00    +0.000 C 
ATOM     23  C   UNL     1       2.044   7.868  18.203  0.00  0.00    +0.000 C 
ATOM     24  C   UNL     1       1.567   9.261  18.531  0.00  0.00    +0.000 C 
ATOM     25  O   UNL     1       1.376  10.059  17.610  0.00  0.00    +0.000 OA
BRANCH  22  26
ATOM     26  C   UNL     1       2.818   5.641  19.080  0.00  0.00    +0.000 A 
ATOM     27  C   UNL     1       3.881   4.935  19.673  0.00  0.00    +0.000 A 
ATOM     28  C   UNL     1       4.137   3.606  19.335  0.00  0.00    +0.000 A 
ATOM     29  C   UNL     1       3.333   2.970  18.396  0.00  0.00    +0.000 A 
ATOM     30 CL   UNL     1       3.662   1.338  17.963  0.00  0.00    +0.000 Cl
ATOM     31  C   UNL     1       2.270   3.648  17.801  0.00  0.00    +0.000 A 
ATOM     32  C   UNL     1       2.014   4.980  18.145  0.00  0.00    +0.000 A 
ENDBRANCH  22  26
ENDBRANCH  17  18
ENDBRANCH   1  17
TORSDOF 7
ENDMDL
MODEL 3
REMARK VINA RESULT:      -7.1      4.139     11.798
REMARK  Name = 
REMARK  8 active torsions:
REMARK  status: ('A' for Active; 'I' for Inactive)
REMARK    1  A    between atoms: C_1  and  O_2
REMARK    2  A    between atoms: O_2  and  C_3
REMARK    3  A    between atoms: C_8  and  N_9
REMARK    4  A    between atoms: N_12  and  C_13
REMARK    5  A    between atoms: C_13  and  C_14
REMARK    6  A    between atoms: C_14  and  C_15
REMARK    7  A    between atoms: C_15  and  N_16
REMARK    8  A    between atoms: C_20  and  C_21
REMARK                            x       y       z     vdW  Elec       q    Type
REMARK                         _______ _______ _______ _____ _____    ______ ____
ROOT
ATOM      1  C   UNL     1      -0.648  10.675  19.680  0.00  0.00    +0.000 C 
ENDROOT
BRANCH   1   2
ATOM      2  C   UNL     1      -1.206  12.077  19.940  0.00  0.00    +0.000 C 
BRANCH   2   6
ATOM      3  N   UNL     1      -2.940  14.317  22.297  0.00  0.00    +0.000 N 
ATOM      4  C   UNL     1      -2.139  14.777  21.158  0.00  0.00    +0.000 C 
ATOM      5  C   UNL     1      -0.740  14.131  21.231  0.00  0.00    +0.000 C 
ATOM      6  N   UNL     1      -0.763  12.643  21.222  0.00  0.00    +0.000 NA
ATOM      7  C   UNL     1      -1.628  12.198  22.343  0.00  0.00    +0.000 C 
ATOM      8  C   UNL     1      -3.033  12.852  22.426  0.00  0.00    +0.000 C 
BRANCH   3  14
ATOM      9  C   UNL     1      -3.071  15.758  24.317  0.00  0.00    +0.000 A 
ATOM     10  C   UNL     1      -3.842  16.608  25.129  0.00  0.00    +0.000 A 
ATOM     11  C   UNL     1      -5.154  16.924  24.792  0.00  0.00    +0.000 A 
ATOM     12  C   UNL     1      -5.712  16.387  23.645  0.00  0.00    +0.000 A 
ATOM     13  C   UNL     1      -4.955  15.534  22.837  0.00  0.00    +0.000 A 
ATOM     14  C   UNL     1      -3.622  15.184  23.138  0.00  0.00    +0.000 A 
BRANCH   9  16
ATOM     15  C   UNL     1      -1.441  15.669  26.048  0.00  0.00    +0.000 C 
ATOM     16  O   UNL     1      -1.802  15.376  24.702  0.00  0.00    +0.000 OA
ENDBRANCH   9  16
ENDBRANCH   3  14
ENDBRANCH   2   6
ENDBRANCH   1   2
BRANCH   1  17
ATOM     17  C   UNL     1       0.858  10.592  19.966  0.00  0.00    +0.000 C 
BRANCH  17  18
ATOM     18  N   UNL     1       1.362   9.237  19.743  0.00  0.00    +0.000 N 
ATOM     19  C   UNL     1       1.265   8.352  20.812  0.00  0.00    +0.000 C 
ATOM     20  O   UNL     1       0.857   8.677  21.928  0.00  0.00    +0.000 OA
ATOM     21  C   UNL     1       1.577   6.912  20.519  0.00  0.00    +0.000 C 
ATOM     22  C   UNL     1       2.670   6.777  19.472  0.00  0.00    +0.000 C 
ATOM     23  C   UNL     1       2.270   7.514  18.202  0.00  0.00    +0.000 C 
ATOM     24  C   UNL     1       1.770   8.915  18.450  0.00  0.00    +0.000 C 
ATOM     25  O   UNL     1       1.672   9.692  17.498  0.00  0.00    +0.000 OA
BRANCH  22  26
ATOM     26  C   UNL     1       2.946   5.306  19.200  0.00  0.00    +0.000 A 
ATOM     27  C   UNL     1       2.601   4.317  20.140  0.00  0.00    +0.000 A 
ATOM     28  C   UNL     1       2.894   2.973  19.908  0.00  0.00    +0.000 A 
ATOM     29  C   UNL     1       3.539   2.605  18.732  0.00  0.00    +0.000 A 
ATOM     30 CL   UNL     1       3.920   0.950  18.456  0.00  0.00    +0.000 Cl
ATOM     31  C   UNL     1       3.884   3.567  17.784  0.00  0.00    +0.000 A 
ATOM     32  C   UNL     1       3.586   4.914  18.019  0.00  0.00    +0.000 A 
ENDBRANCH  22  26
ENDBRANCH  17  18
ENDBRANCH   1  17
TORSDOF 7
ENDMDL
MODEL 4
REMARK VINA RESULT:      -7.0      4.131     11.923
REMARK  Name = 
REMARK  8 active torsions:
REMARK  status: ('A' for Active; 'I' for Inactive)
REMARK    1  A    between atoms: C_1  and  O_2
REMARK    2  A    between atoms: O_2  and  C_3
REMARK    3  A    between atoms: C_8  and  N_9
REMARK    4  A    between atoms: N_12  and  C_13
REMARK    5  A    between atoms: C_13  and  C_14
REMARK    6  A    between atoms: C_14  and  C_15
REMARK    7  A    between atoms: C_15  and  N_16
REMARK    8  A    between atoms: C_20  and  C_21
REMARK                            x       y       z     vdW  Elec       q    Type
REMARK                         _______ _______ _______ _____ _____    ______ ____
ROOT
ATOM      1  C   UNL     1      -0.818  10.647  19.521  0.00  0.00    +0.000 C 
ENDROOT
BRANCH   1   2
ATOM      2  C   UNL     1      -1.461  12.005  19.821  0.00  0.00    +0.000 C 
BRANCH   2   6
ATOM      3  N   UNL     1      -3.103  14.256  22.231  0.00  0.00    +0.000 N 
ATOM      4  C   UNL     1      -2.400  14.708  21.026  0.00  0.00    +0.000 C 
ATOM      5  C   UNL     1      -0.978  14.111  21.017  0.00  0.00    +0.000 C 
ATOM      6  N   UNL     1      -0.950  12.623  21.051  0.00  0.00    +0.000 NA
ATOM      7  C   UNL     1      -1.717  12.184  22.243  0.00  0.00    +0.000 C 
ATOM      8  C   UNL     1      -3.135  12.794  22.407  0.00  0.00    +0.000 C 
BRANCH   3  14
ATOM      9  C   UNL     1      -5.132  15.465  23.003  0.00  0.00    +0.000 A 
ATOM     10  C   UNL     1      -5.708  16.376  23.906  0.00  0.00    +0.000 A 
ATOM     11  C   UNL     1      -4.952  16.953  24.920  0.00  0.00    +0.000 A 
ATOM     12  C   UNL     1      -3.611  16.632  25.039  0.00  0.00    +0.000 A 
ATOM     13  C   UNL     1      -3.029  15.733  24.141  0.00  0.00    +0.000 A 
ATOM     14  C   UNL     1      -3.754  15.125  23.095  0.00  0.00    +0.000 A 
BRANCH   9  16
ATOM     15  C   UNL     1      -6.738  13.882  22.243  0.00  0.00    +0.000 C 
ATOM     16  O   UNL     1      -5.862  14.965  21.944  0.00  0.00    +0.000 OA
ENDBRANCH   9  16
ENDBRANCH   3  14
ENDBRANCH   2   6
ENDBRANCH   1   2
BRANCH   1  17
ATOM     17  C   UNL     1       0.678  10.631  19.860  0.00  0.00    +0.000 C 
BRANCH  17  18
ATOM     18  N   UNL     1       1.244   9.294  19.679  0.00  0.00    +0.000 N 
ATOM     19  C   UNL     1       1.118   8.413  20.749  0.00  0.00    +0.000 C 
ATOM     20  O   UNL     1       0.633   8.730  21.836  0.00  0.00    +0.000 OA
ATOM     21  C   UNL     1       1.499   6.984  20.487  0.00  0.00    +0.000 C 
ATOM     22  C   UNL     1       2.656   6.883  19.508  0.00  0.00    +0.000 C 
ATOM     23  C   UNL     1       2.304   7.596  18.209  0.00  0.00    +0.000 C 
ATOM     24  C   UNL     1       1.739   8.979  18.415  0.00  0.00    +0.000 C 
ATOM     25  O   UNL     1       1.669   9.745  17.452  0.00  0.00    +0.000 OA
BRANCH  22  26
ATOM     26  C   UNL     1       3.002   5.422  19.265  0.00  0.00    +0.000 A 
ATOM     27  C   UNL     1       3.522   4.994  18.029  0.00  0.00    +0.000 A 
ATOM     28  C   UNL     1       3.797   3.647  17.793  0.00  0.00    +0.000 A 
ATOM     29  C   UNL     1       3.550   2.712  18.793  0.00  0.00    +0.000 A 
ATOM     30 CL   UNL     1       3.869   1.048  18.494  0.00  0.00    +0.000 Cl
ATOM     31  C   UNL     1       3.042   3.114  20.026  0.00  0.00    +0.000 A 
ATOM     32  C   UNL     1       2.770   4.466  20.261  0.00  0.00    +0.000 A 
ENDBRANCH  22  26
ENDBRANCH  17  18
ENDBRANCH   1  17
TORSDOF 7
ENDMDL
MODEL 5
REMARK VINA RESULT:      -7.0      4.924     10.315
REMARK  Name = 
REMARK  8 active torsions:
REMARK  status: ('A' for Active; 'I' for Inactive)
REMARK    1  A    between atoms: C_1  and  O_2
REMARK    2  A    between atoms: O_2  and  C_3
REMARK    3  A    between atoms: C_8  and  N_9
REMARK    4  A    between atoms: N_12  and  C_13
REMARK    5  A    between atoms: C_13  and  C_14
REMARK    6  A    between atoms: C_14  and  C_15
REMARK    7  A    between atoms: C_15  and  N_16
REMARK    8  A    between atoms: C_20  and  C_21
REMARK                            x       y       z     vdW  Elec       q    Type
REMARK                         _______ _______ _______ _____ _____    ______ ____
ROOT
ATOM      1  C   UNL     1      -0.868  10.556  20.338  0.00  0.00    +0.000 C 
ENDROOT
BRANCH   1   2
ATOM      2  C   UNL     1      -1.545  11.768  20.985  0.00  0.00    +0.000 C 
BRANCH   2   6
ATOM      3  N   UNL     1      -0.400  14.828  19.281  0.00  0.00    +0.000 N 
ATOM      4  C   UNL     1      -1.056  14.810  20.593  0.00  0.00    +0.000 C 
ATOM      5  C   UNL     1      -2.386  14.036  20.480  0.00  0.00    +0.000 C 
ATOM      6  N   UNL     1      -2.227  12.632  20.012  0.00  0.00    +0.000 NA
ATOM      7  C   UNL     1      -1.507  12.668  18.715  0.00  0.00    +0.000 C 
ATOM      8  C   UNL     1      -0.196  13.498  18.682  0.00  0.00    +0.000 C 
BRANCH   3  14
ATOM      9  C   UNL     1       1.441  16.315  18.522  0.00  0.00    +0.000 A 
ATOM     10  C   UNL     1       1.826  17.531  17.930  0.00  0.00    +0.000 A 
ATOM     11  C   UNL     1       0.876  18.440  17.477  0.00  0.00    +0.000 A 
ATOM     12  C   UNL     1      -0.470  18.146  17.616  0.00  0.00    +0.000 A 
ATOM     13  C   UNL     1      -0.861  16.943  18.210  0.00  0.00    +0.000 A 
ATOM     14  C   UNL     1       0.065  15.993  18.687  0.00  0.00    +0.000 A 
BRANCH   9  16
ATOM     15  C   UNL     1       3.362  14.963  18.141  0.00  0.00    +0.000 C 
ATOM     16  O   UNL     1       2.384  15.459  19.051  0.00  0.00    +0.000 OA
ENDBRANCH   9  16
ENDBRANCH   3  14
ENDBRANCH   2   6
ENDBRANCH   1   2
BRANCH   1  17
ATOM     17  C   UNL     1       0.606  10.434  20.747  0.00  0.00    +0.000 C 
BRANCH  17  18
ATOM     18  N   UNL     1       1.278   9.380  19.986  0.00  0.00    +0.000 N 
ATOM     19  C   UNL     1       1.724   9.718  18.712  0.00  0.00    +0.000 C 
ATOM     20  O   UNL     1       1.513  10.812  18.187  0.00  0.00    +0.000 OA
ATOM     21  C   UNL     1       2.600   8.712  18.022  0.00  0.00    +0.000 C 
ATOM     22  C   UNL     1       2.203   7.289  18.373  0.00  0.00    +0.000 C 
ATOM     23  C   UNL     1       2.240   7.094  19.882  0.00  0.00    +0.000 C 
ATOM     24  C   UNL     1       1.527   8.180  20.648  0.00  0.00    +0.000 C 
ATOM     25  O   UNL     1       1.261   7.996  21.837  0.00  0.00    +0.000 OA
BRANCH  22  26
ATOM     26  C   UNL     1       3.121   6.306  17.661  0.00  0.00    +0.000 A 
ATOM     27  C   UNL     1       2.869   4.921  17.696  0.00  0.00    +0.000 A 
ATOM     28  C   UNL     1       3.736   4.019  17.080  0.00  0.00    +0.000 A 
ATOM     29  C   UNL     1       4.867   4.492  16.424  0.00  0.00    +0.000 A 
ATOM     30 CL   UNL     1       5.947   3.377  15.683  0.00  0.00    +0.000 Cl
ATOM     31  C   UNL     1       5.131   5.860  16.371  0.00  0.00    +0.000 A 
ATOM     32  C   UNL     1       4.259   6.763  16.987  0.00  0.00    +0.000 A 
ENDBRANCH  22  26
ENDBRANCH  17  18
ENDBRANCH   1  17
TORSDOF 7
ENDMDL
MODEL 6
REMARK VINA RESULT:      -7.0      4.137     11.820
REMARK  Name = 
REMARK  8 active torsions:
REMARK  status: ('A' for Active; 'I' for Inactive)
REMARK    1  A    between atoms: C_1  and  O_2
REMARK    2  A    between atoms: O_2  and  C_3
REMARK    3  A    between atoms: C_8  and  N_9
REMARK    4  A    between atoms: N_12  and  C_13
REMARK    5  A    between atoms: C_13  and  C_14
REMARK    6  A    between atoms: C_14  and  C_15
REMARK    7  A    between atoms: C_15  and  N_16
REMARK    8  A    between atoms: C_20  and  C_21
REMARK                            x       y       z     vdW  Elec       q    Type
REMARK                         _______ _______ _______ _____ _____    ______ ____
ROOT
ATOM      1  C   UNL     1      -0.425  11.123  19.304  0.00  0.00    +0.000 C 
ENDROOT
BRANCH   1   2
ATOM      2  C   UNL     1      -1.509  11.312  20.370  0.00  0.00    +0.000 C 
BRANCH   2   6
ATOM      3  N   UNL     1      -4.254  12.975  22.180  0.00  0.00    +0.000 N 
ATOM      4  C   UNL     1      -4.206  12.809  20.724  0.00  0.00    +0.000 C 
ATOM      5  C   UNL     1      -2.868  13.366  20.196  0.00  0.00    +0.000 C 
ATOM      6  N   UNL     1      -1.669  12.712  20.785  0.00  0.00    +0.000 NA
ATOM      7  C   UNL     1      -1.766  12.836  22.261  0.00  0.00    +0.000 C 
ATOM      8  C   UNL     1      -3.108  12.389  22.899  0.00  0.00    +0.000 C 
BRANCH   3  14
ATOM      9  C   UNL     1      -5.331  14.897  23.328  0.00  0.00    +0.000 A 
ATOM     10  C   UNL     1      -6.452  15.406  24.008  0.00  0.00    +0.000 A 
ATOM     11  C   UNL     1      -7.587  14.626  24.202  0.00  0.00    +0.000 A 
ATOM     12  C   UNL     1      -7.611  13.327  23.726  0.00  0.00    +0.000 A 
ATOM     13  C   UNL     1      -6.498  12.810  23.056  0.00  0.00    +0.000 A 
ATOM     14  C   UNL     1      -5.325  13.562  22.838  0.00  0.00    +0.000 A 
BRANCH   9  16
ATOM     15  C   UNL     1      -3.668  16.195  24.429  0.00  0.00    +0.000 C 
ATOM     16  O   UNL     1      -4.175  15.643  23.218  0.00  0.00    +0.000 OA
ENDBRANCH   9  16
ENDBRANCH   3  14
ENDBRANCH   2   6
ENDBRANCH   1   2
BRANCH   1  17
ATOM     17  C   UNL     1       0.963  10.918  19.923  0.00  0.00    +0.000 C 
BRANCH  17  18
ATOM     18  N   UNL     1       1.437   9.550  19.712  0.00  0.00    +0.000 N 
ATOM     19  C   UNL     1       1.173   8.636  20.728  0.00  0.00    +0.000 C 
ATOM     20  O   UNL     1       0.642   8.941  21.796  0.00  0.00    +0.000 OA
ATOM     21  C   UNL     1       1.461   7.194  20.420  0.00  0.00    +0.000 C 
ATOM     22  C   UNL     1       2.669   7.045  19.511  0.00  0.00    +0.000 C 
ATOM     23  C   UNL     1       2.459   7.840  18.230  0.00  0.00    +0.000 C 
ATOM     24  C   UNL     1       1.989   9.253  18.468  0.00  0.00    +0.000 C 
ATOM     25  O   UNL     1       2.041  10.064  17.541  0.00  0.00    +0.000 OA
BRANCH  22  26
ATOM     26  C   UNL     1       2.917   5.573  19.219  0.00  0.00    +0.000 A 
ATOM     27  C   UNL     1       1.846   4.672  19.069  0.00  0.00    +0.000 A 
ATOM     28  C   UNL     1       2.076   3.315  18.844  0.00  0.00    +0.000 A 
ATOM     29  C   UNL     1       3.383   2.843  18.770  0.00  0.00    +0.000 A 
ATOM     30 CL   UNL     1       3.666   1.166  18.515  0.00  0.00    +0.000 Cl
ATOM     31  C   UNL     1       4.458   3.719  18.909  0.00  0.00    +0.000 A 
ATOM     32  C   UNL     1       4.225   5.080  19.131  0.00  0.00    +0.000 A 
ENDBRANCH  22  26
ENDBRANCH  17  18
ENDBRANCH   1  17
TORSDOF 7
ENDMDL
MODEL 7
REMARK VINA RESULT:      -7.0      2.096      3.369
REMARK  Name = 
REMARK  8 active torsions:
REMARK  status: ('A' for Active; 'I' for Inactive)
REMARK    1  A    between atoms: C_1  and  O_2
REMARK    2  A    between atoms: O_2  and  C_3
REMARK    3  A    between atoms: C_8  and  N_9
REMARK    4  A    between atoms: N_12  and  C_13
REMARK    5  A    between atoms: C_13  and  C_14
REMARK    6  A    between atoms: C_14  and  C_15
REMARK    7  A    between atoms: C_15  and  N_16
REMARK    8  A    between atoms: C_20  and  C_21
REMARK                            x       y       z     vdW  Elec       q    Type
REMARK                         _______ _______ _______ _____ _____    ______ ____
ROOT
ATOM      1  C   UNL     1       1.874  11.857  18.813  0.00  0.00    +0.000 C 
ENDROOT
BRANCH   1   2
ATOM      2  C   UNL     1       1.555  10.848  19.920  0.00  0.00    +0.000 C 
BRANCH   2   6
ATOM      3  N   UNL     1       2.360   7.483  18.653  0.00  0.00    +0.000 N 
ATOM      4  C   UNL     1       2.268   8.682  17.812  0.00  0.00    +0.000 C 
ATOM      5  C   UNL     1       0.906   9.364  18.055  0.00  0.00    +0.000 C 
ATOM      6  N   UNL     1       0.675   9.761  19.471  0.00  0.00    +0.000 NA
ATOM      7  C   UNL     1       0.833   8.548  20.311  0.00  0.00    +0.000 C 
ATOM      8  C   UNL     1       2.130   7.724  20.088  0.00  0.00    +0.000 C 
BRANCH   3  14
ATOM      9  C   UNL     1       4.009   5.906  17.668  0.00  0.00    +0.000 A 
ATOM     10  C   UNL     1       4.275   4.624  17.155  0.00  0.00    +0.000 A 
ATOM     11  C   UNL     1       3.288   3.645  17.125  0.00  0.00    +0.000 A 
ATOM     12  C   UNL     1       2.022   3.938  17.602  0.00  0.00    +0.000 A 
ATOM     13  C   UNL     1       1.746   5.212  18.106  0.00  0.00    +0.000 A 
ATOM     14  C   UNL     1       2.713   6.237  18.154  0.00  0.00    +0.000 A 
BRANCH   9  16
ATOM     15  C   UNL     1       6.209   6.539  17.023  0.00  0.00    +0.000 C 
ATOM     16  O   UNL     1       4.963   6.900  17.612  0.00  0.00    +0.000 OA
ENDBRANCH   9  16
ENDBRANCH   3  14
ENDBRANCH   2   6
ENDBRANCH   1   2
BRANCH   1  17
ATOM     17  C   UNL     1       1.267  13.237  19.099  0.00  0.00    +0.000 C 
BRANCH  17  18
ATOM     18  N   UNL     1       0.024  13.117  19.861  0.00  0.00    +0.000 N 
ATOM     19  C   UNL     1       0.076  13.487  21.201  0.00  0.00    +0.000 C 
ATOM     20  O   UNL     1       1.113  13.826  21.773  0.00  0.00    +0.000 OA
ATOM     21  C   UNL     1      -1.239  13.573  21.923  0.00  0.00    +0.000 C 
ATOM     22  C   UNL     1      -2.220  12.526  21.425  0.00  0.00    +0.000 C 
ATOM     23  C   UNL     1      -2.417  12.669  19.922  0.00  0.00    +0.000 C 
ATOM     24  C   UNL     1      -1.125  12.772  19.152  0.00  0.00    +0.000 C 
ATOM     25  O   UNL     1      -1.145  12.623  17.929  0.00  0.00    +0.000 OA
BRANCH  22  26
ATOM     26  C   UNL     1      -3.538  12.657  22.174  0.00  0.00    +0.000 A 
ATOM     27  C   UNL     1      -4.741  12.909  21.489  0.00  0.00    +0.000 A 
ATOM     28  C   UNL     1      -5.941  13.072  22.181  0.00  0.00    +0.000 A 
ATOM     29  C   UNL     1      -5.949  12.986  23.570  0.00  0.00    +0.000 A 
ATOM     30 CL   UNL     1      -7.425  13.209  24.424  0.00  0.00    +0.000 Cl
ATOM     31  C   UNL     1      -4.771  12.730  24.268  0.00  0.00    +0.000 A 
ATOM     32  C   UNL     1      -3.569  12.565  23.571  0.00  0.00    +0.000 A 
ENDBRANCH  22  26
ENDBRANCH  17  18
ENDBRANCH   1  17
TORSDOF 7
ENDMDL
MODEL 8
REMARK VINA RESULT:      -6.9      4.133     11.864
REMARK  Name = 
REMARK  8 active torsions:
REMARK  status: ('A' for Active; 'I' for Inactive)
REMARK    1  A    between atoms: C_1  and  O_2
REMARK    2  A    between atoms: O_2  and  C_3
REMARK    3  A    between atoms: C_8  and  N_9
REMARK    4  A    between atoms: N_12  and  C_13
REMARK    5  A    between atoms: C_13  and  C_14
REMARK    6  A    between atoms: C_14  and  C_15
REMARK    7  A    between atoms: C_15  and  N_16
REMARK    8  A    between atoms: C_20  and  C_21
REMARK                            x       y       z     vdW  Elec       q    Type
REMARK                         _______ _______ _______ _____ _____    ______ ____
ROOT
ATOM      1  C   UNL     1       0.984  11.554  20.735  0.00  0.00    +0.000 C 
ENDROOT
BRANCH   1   2
ATOM      2  C   UNL     1       0.077  12.783  20.851  0.00  0.00    +0.000 C 
BRANCH   2   6
ATOM      3  N   UNL     1      -2.565  14.658  22.606  0.00  0.00    +0.000 N 
ATOM      4  C   UNL     1      -1.546  15.273  21.749  0.00  0.00    +0.000 C 
ATOM      5  C   UNL     1      -0.149  14.824  22.224  0.00  0.00    +0.000 C 
ATOM      6  N   UNL     1       0.047  13.349  22.206  0.00  0.00    +0.000 NA
ATOM      7  C   UNL     1      -1.028  12.740  23.028  0.00  0.00    +0.000 C 
ATOM      8  C   UNL     1      -2.478  13.190  22.701  0.00  0.00    +0.000 C 
BRANCH   3  14
ATOM      9  C   UNL     1      -3.380  16.281  24.302  0.00  0.00    +0.000 A 
ATOM     10  C   UNL     1      -4.468  16.960  24.879  0.00  0.00    +0.000 A 
ATOM     11  C   UNL     1      -5.759  16.788  24.391  0.00  0.00    +0.000 A 
ATOM     12  C   UNL     1      -5.977  15.931  23.326  0.00  0.00    +0.000 A 
ATOM     13  C   UNL     1      -4.903  15.245  22.753  0.00  0.00    +0.000 A 
ATOM     14  C   UNL     1      -3.578  15.385  23.215  0.00  0.00    +0.000 A 
BRANCH   9  16
ATOM     15  C   UNL     1      -1.810  15.472  25.897  0.00  0.00    +0.000 C 
ATOM     16  O   UNL     1      -2.117  16.384  24.847  0.00  0.00    +0.000 OA
ENDBRANCH   9  16
ENDBRANCH   3  14
ENDBRANCH   2   6
ENDBRANCH   1   2
BRANCH   1  17
ATOM     17  C   UNL     1       0.182  10.266  20.507  0.00  0.00    +0.000 C 
BRANCH  17  18
ATOM     18  N   UNL     1       0.989   9.259  19.818  0.00  0.00    +0.000 N 
ATOM     19  C   UNL     1       1.295   9.511  18.484  0.00  0.00    +0.000 C 
ATOM     20  O   UNL     1       0.862  10.480  17.859  0.00  0.00    +0.000 OA
ATOM     21  C   UNL     1       2.298   8.594  17.844  0.00  0.00    +0.000 C 
ATOM     22  C   UNL     1       2.184   7.177  18.378  0.00  0.00    +0.000 C 
ATOM     23  C   UNL     1       2.339   7.176  19.893  0.00  0.00    +0.000 C 
ATOM     24  C   UNL     1       1.486   8.208  20.586  0.00  0.00    +0.000 C 
ATOM     25  O   UNL     1       1.324   8.127  21.806  0.00  0.00    +0.000 OA
BRANCH  22  26
ATOM     26  C   UNL     1       3.222   6.288  17.711  0.00  0.00    +0.000 A 
ATOM     27  C   UNL     1       4.361   6.839  17.093  0.00  0.00    +0.000 A 
ATOM     28  C   UNL     1       5.289   6.026  16.444  0.00  0.00    +0.000 A 
ATOM     29  C   UNL     1       5.087   4.650  16.403  0.00  0.00    +0.000 A 
ATOM     30 CL   UNL     1       6.221   3.650  15.584  0.00  0.00    +0.000 Cl
ATOM     31  C   UNL     1       3.970   4.083  17.014  0.00  0.00    +0.000 A 
ATOM     32  C   UNL     1       3.042   4.900  17.667  0.00  0.00    +0.000 A 
ENDBRANCH  22  26
ENDBRANCH  17  18
ENDBRANCH   1  17
TORSDOF 7
ENDMDL
MODEL 9
REMARK VINA RESULT:      -6.9      1.217      1.260
REMARK  Name = 
REMARK  8 active torsions:
REMARK  status: ('A' for Active; 'I' for Inactive)
REMARK    1  A    between atoms: C_1  and  O_2
REMARK    2  A    between atoms: O_2  and  C_3
REMARK    3  A    between atoms: C_8  and  N_9
REMARK    4  A    between atoms: N_12  and  C_13
REMARK    5  A    between atoms: C_13  and  C_14
REMARK    6  A    between atoms: C_14  and  C_15
REMARK    7  A    between atoms: C_15  and  N_16
REMARK    8  A    between atoms: C_20  and  C_21
REMARK                            x       y       z     vdW  Elec       q    Type
REMARK                         _______ _______ _______ _____ _____    ______ ____
ROOT
ATOM      1  C   UNL     1       0.973   7.223  20.677  0.00  0.00    +0.000 C 
ENDROOT
BRANCH   1   2
ATOM      2  C   UNL     1       1.969   6.064  20.772  0.00  0.00    +0.000 C 
BRANCH   2   6
ATOM      3  N   UNL     1       4.311   5.324  18.024  0.00  0.00    +0.000 N 
ATOM      4  C   UNL     1       3.298   6.384  17.983  0.00  0.00    +0.000 C 
ATOM      5  C   UNL     1       1.920   5.778  18.319  0.00  0.00    +0.000 C 
ATOM      6  N   UNL     1       1.860   5.119  19.652  0.00  0.00    +0.000 NA
ATOM      7  C   UNL     1       2.931   4.093  19.697  0.00  0.00    +0.000 C 
ATOM      8  C   UNL     1       4.352   4.568  19.288  0.00  0.00    +0.000 C 
BRANCH   3  14
ATOM      9  C   UNL     1       6.562   5.549  16.997  0.00  0.00    +0.000 A 
ATOM     10  C   UNL     1       7.402   5.303  15.896  0.00  0.00    +0.000 A 
ATOM     11  C   UNL     1       6.942   4.601  14.787  0.00  0.00    +0.000 A 
ATOM     12  C   UNL     1       5.636   4.144  14.763  0.00  0.00    +0.000 A 
ATOM     13  C   UNL     1       4.791   4.393  15.849  0.00  0.00    +0.000 A 
ATOM     14  C   UNL     1       5.212   5.102  16.993  0.00  0.00    +0.000 A 
BRANCH   9  16
ATOM     15  C   UNL     1       7.625   7.554  17.713  0.00  0.00    +0.000 C 
ATOM     16  O   UNL     1       6.995   6.323  18.054  0.00  0.00    +0.000 OA
ENDBRANCH   9  16
ENDBRANCH   3  14
ENDBRANCH   2   6
ENDBRANCH   1   2
BRANCH   1  17
ATOM     17  C   UNL     1       1.677   8.583  20.590  0.00  0.00    +0.000 C 
BRANCH  17  18
ATOM     18  N   UNL     1       0.714   9.681  20.672  0.00  0.00    +0.000 N 
ATOM     19  C   UNL     1       0.165  10.120  19.471  0.00  0.00    +0.000 C 
ATOM     20  O   UNL     1       0.506   9.687  18.370  0.00  0.00    +0.000 OA
ATOM     21  C   UNL     1      -0.978  11.090  19.574  0.00  0.00    +0.000 C 
ATOM     22  C   UNL     1      -0.817  12.022  20.762  0.00  0.00    +0.000 C 
ATOM     23  C   UNL     1      -0.677  11.214  22.044  0.00  0.00    +0.000 C 
ATOM     24  C   UNL     1       0.334  10.099  21.946  0.00  0.00    +0.000 C 
ATOM     25  O   UNL     1       0.726   9.555  22.981  0.00  0.00    +0.000 OA
BRANCH  22  26
ATOM     26  C   UNL     1      -1.999  12.978  20.832  0.00  0.00    +0.000 A 
ATOM     27  C   UNL     1      -3.308  12.535  20.564  0.00  0.00    +0.000 A 
ATOM     28  C   UNL     1      -4.384  13.421  20.586  0.00  0.00    +0.000 A 
ATOM     29  C   UNL     1      -4.162  14.764  20.874  0.00  0.00    +0.000 A 
ATOM     30 CL   UNL     1      -5.486  15.861  20.879  0.00  0.00    +0.000 Cl
ATOM     31  C   UNL     1      -2.875  15.223  21.149  0.00  0.00    +0.000 A 
ATOM     32  C   UNL     1      -1.797  14.331  21.129  0.00  0.00    +0.000 A 
ENDBRANCH  22  26
ENDBRANCH  17  18
ENDBRANCH   1  17
TORSDOF 7
ENDMDL
