MODEL 1
REMARK VINA RESULT:      -8.4      0.000      0.000
REMARK  Name = 
REMARK  10 active torsions:
REMARK  status: ('A' for Active; 'I' for Inactive)
REMARK    1  A    between atoms: C_1  and  C_2
REMARK    2  A    between atoms: C_2  and  O_3
REMARK    3  A    between atoms: O_3  and  C_4
REMARK    4  A    between atoms: C_4  and  C_6
REMARK    5  A    between atoms: C_10  and  C_12
REMARK    6  A    between atoms: C_15  and  S_16
REMARK    7  A    between atoms: S_16  and  N_19
REMARK    8  A    between atoms: N_19  and  C_20
REMARK    9  A    between atoms: C_25  and  O_26
REMARK   10  A    between atoms: O_26  and  C_27
REMARK                            x       y       z     vdW  Elec       q    Type
REMARK                         _______ _______ _______ _____ _____    ______ ____
ROOT
ATOM      1  C   UNL     1       2.472   6.724  18.543  0.00  0.00    +0.000 A 
ATOM      2  C   UNL     1       2.139   7.682  17.579  0.00  0.00    +0.000 A 
ATOM      3  C   UNL     1       1.679   8.943  17.964  0.00  0.00    +0.000 A 
ATOM      4  C   UNL     1       1.413   9.203  19.312  0.00  0.00    +0.000 A 
ATOM      5  C   UNL     1       1.655   8.220  20.282  0.00  0.00    +0.000 A 
ATOM      6  C   UNL     1       2.189   6.983  19.894  0.00  0.00    +0.000 A 
ENDROOT
BRANCH   1  11
ATOM      7  C   UNL     1       6.968   5.060  16.625  0.00  0.00    +0.000 C 
ATOM      8  C   UNL     1       6.125   3.922  17.224  0.00  0.00    +0.000 C 
ATOM      9  C   UNL     1       4.649   4.055  16.850  0.00  0.00    +0.000 C 
ATOM     10  N   UNL     1       4.138   5.360  17.252  0.00  0.00    +0.000 N 
ATOM     11  C   UNL     1       3.080   5.418  18.175  0.00  0.00    +0.000 C 
ATOM     12  O   UNL     1       2.626   4.411  18.723  0.00  0.00    +0.000 OA
ATOM     13  C   UNL     1       4.869   6.499  16.680  0.00  0.00    +0.000 C 
ATOM     14  C   UNL     1       6.361   6.417  16.983  0.00  0.00    +0.000 C 
BRANCH   7  15
ATOM     15  C   UNL     1       7.095   4.883  15.122  0.00  0.00    +0.000 C 
ATOM     16  O   UNL     1       7.732   5.613  14.376  0.00  0.00    +0.000 OA
BRANCH  15  17
ATOM     17  O   UNL     1       6.322   3.835  14.723  0.00  0.00    +0.000 OA
BRANCH  17  19
ATOM     18  C   UNL     1       6.141   3.257  12.414  0.00  0.00    +0.000 C 
ATOM     19  C   UNL     1       5.532   4.062  13.549  0.00  0.00    +0.000 C 
ENDBRANCH  17  19
ENDBRANCH  15  17
ENDBRANCH   7  15
ENDBRANCH   1  11
BRANCH   4  20
ATOM     20  S   UNL     1       0.686  10.770  19.770  0.00  0.00    +0.000 S 
ATOM     21  O   UNL     1      -0.399  10.472  20.674  0.00  0.00    +0.000 OA
ATOM     22  O   UNL     1       1.761  11.668  20.136  0.00  0.00    +0.000 OA
BRANCH  20  23
ATOM     23  N   UNL     1      -0.036  11.280  18.314  0.00  0.00    +0.000 N 
ATOM     24  H   UNL     1       0.509  10.854  17.559  0.00  0.00    +0.000 HD
BRANCH  23  25
ATOM     25  C   UNL     1      -1.449  11.047  18.140  0.00  0.00    +0.000 A 
ATOM     26  C   UNL     1      -1.835  10.057  17.218  0.00  0.00    +0.000 A 
ATOM     27  C   UNL     1      -3.183   9.845  16.909  0.00  0.00    +0.000 A 
ATOM     28  C   UNL     1      -4.166  10.597  17.543  0.00  0.00    +0.000 A 
ATOM     29  C   UNL     1      -3.794  11.572  18.464  0.00  0.00    +0.000 A 
ATOM     30  C   UNL     1      -2.445  11.826  18.758  0.00  0.00    +0.000 A 
BRANCH  30  31
ATOM     31  O   UNL     1      -2.321  12.919  19.571  0.00  0.00    +0.000 OA
ATOM     32  C   UNL     1      -3.276  13.109  20.591  0.00  0.00    +0.000 C 
ENDBRANCH  30  31
ENDBRANCH  23  25
ENDBRANCH  20  23
ENDBRANCH   4  20
TORSDOF 8
ENDMDL
MODEL 2
REMARK VINA RESULT:      -8.4      2.326      3.823
REMARK  Name = 
REMARK  10 active torsions:
REMARK  status: ('A' for Active; 'I' for Inactive)
REMARK    1  A    between atoms: C_1  and  C_2
REMARK    2  A    between atoms: C_2  and  O_3
REMARK    3  A    between atoms: O_3  and  C_4
REMARK    4  A    between atoms: C_4  and  C_6
REMARK    5  A    between atoms: C_10  and  C_12
REMARK    6  A    between atoms: C_15  and  S_16
REMARK    7  A    between atoms: S_16  and  N_19
REMARK    8  A    between atoms: N_19  and  C_20
REMARK    9  A    between atoms: C_25  and  O_26
REMARK   10  A    between atoms: O_26  and  C_27
REMARK                            x       y       z     vdW  Elec       q    Type
REMARK                         _______ _______ _______ _____ _____    ______ ____
ROOT
ATOM      1  C   UNL     1       2.728   7.918  18.332  0.00  0.00    +0.000 A 
ATOM      2  C   UNL     1       2.416   8.959  17.451  0.00  0.00    +0.000 A 
ATOM      3  C   UNL     1       1.580  10.002  17.855  0.00  0.00    +0.000 A 
ATOM      4  C   UNL     1       0.937   9.935  19.096  0.00  0.00    +0.000 A 
ATOM      5  C   UNL     1       1.169   8.851  19.954  0.00  0.00    +0.000 A 
ATOM      6  C   UNL     1       2.069   7.846  19.570  0.00  0.00    +0.000 A 
ENDROOT
BRANCH   1  11
ATOM      7  C   UNL     1       2.635   2.836  17.421  0.00  0.00    +0.000 C 
ATOM      8  C   UNL     1       3.947   3.494  16.961  0.00  0.00    +0.000 C 
ATOM      9  C   UNL     1       4.457   4.510  17.983  0.00  0.00    +0.000 C 
ATOM     10  N   UNL     1       3.434   5.510  18.262  0.00  0.00    +0.000 N 
ATOM     11  C   UNL     1       3.710   6.858  17.980  0.00  0.00    +0.000 C 
ATOM     12  O   UNL     1       4.751   7.217  17.426  0.00  0.00    +0.000 OA
ATOM     13  C   UNL     1       2.164   4.955  18.751  0.00  0.00    +0.000 C 
ATOM     14  C   UNL     1       1.607   3.904  17.796  0.00  0.00    +0.000 C 
BRANCH   7  15
ATOM     15  C   UNL     1       2.902   1.887  18.576  0.00  0.00    +0.000 C 
ATOM     16  O   UNL     1       3.807   1.065  18.621  0.00  0.00    +0.000 OA
BRANCH  15  17
ATOM     17  O   UNL     1       1.928   2.033  19.516  0.00  0.00    +0.000 OA
BRANCH  17  19
ATOM     18  C   UNL     1       1.289   2.842  21.670  0.00  0.00    +0.000 C 
ATOM     19  C   UNL     1       2.389   2.170  20.866  0.00  0.00    +0.000 C 
ENDBRANCH  17  19
ENDBRANCH  15  17
ENDBRANCH   7  15
ENDBRANCH   1  11
BRANCH   4  20
ATOM     20  S   UNL     1      -0.242  11.204  19.535  0.00  0.00    +0.000 S 
ATOM     21  O   UNL     1      -0.034  11.494  20.933  0.00  0.00    +0.000 OA
ATOM     22  O   UNL     1      -0.180  12.237  18.522  0.00  0.00    +0.000 OA
BRANCH  20  23
ATOM     23  N   UNL     1      -1.727  10.376  19.438  0.00  0.00    +0.000 N 
ATOM     24  H   UNL     1      -2.270  10.661  20.257  0.00  0.00    +0.000 HD
BRANCH  23  25
ATOM     25  C   UNL     1      -2.497  10.505  18.224  0.00  0.00    +0.000 A 
ATOM     26  C   UNL     1      -1.961   9.944  17.051  0.00  0.00    +0.000 A 
ATOM     27  C   UNL     1      -2.591  10.119  15.814  0.00  0.00    +0.000 A 
ATOM     28  C   UNL     1      -3.783  10.829  15.738  0.00  0.00    +0.000 A 
ATOM     29  C   UNL     1      -4.326  11.381  16.895  0.00  0.00    +0.000 A 
ATOM     30  C   UNL     1      -3.689  11.248  18.139  0.00  0.00    +0.000 A 
BRANCH  30  31
ATOM     31  O   UNL     1      -4.326  11.993  19.094  0.00  0.00    +0.000 OA
ATOM     32  C   UNL     1      -5.475  12.722  18.721  0.00  0.00    +0.000 C 
ENDBRANCH  30  31
ENDBRANCH  23  25
ENDBRANCH  20  23
ENDBRANCH   4  20
TORSDOF 8
ENDMDL
MODEL 3
REMARK VINA RESULT:      -8.2      0.645      1.080
REMARK  Name = 
REMARK  10 active torsions:
REMARK  status: ('A' for Active; 'I' for Inactive)
REMARK    1  A    between atoms: C_1  and  C_2
REMARK    2  A    between atoms: C_2  and  O_3
REMARK    3  A    between atoms: O_3  and  C_4
REMARK    4  A    between atoms: C_4  and  C_6
REMARK    5  A    between atoms: C_10  and  C_12
REMARK    6  A    between atoms: C_15  and  S_16
REMARK    7  A    between atoms: S_16  and  N_19
REMARK    8  A    between atoms: N_19  and  C_20
REMARK    9  A    between atoms: C_25  and  O_26
REMARK   10  A    between atoms: O_26  and  C_27
REMARK                            x       y       z     vdW  Elec       q    Type
REMARK                         _______ _______ _______ _____ _____    ______ ____
ROOT
ATOM      1  C   UNL     1       2.163   6.920  18.942  0.00  0.00    +0.000 A 
ATOM      2  C   UNL     1       1.837   7.110  20.290  0.00  0.00    +0.000 A 
ATOM      3  C   UNL     1       1.266   8.311  20.718  0.00  0.00    +0.000 A 
ATOM      4  C   UNL     1       1.151   9.381  19.825  0.00  0.00    +0.000 A 
ATOM      5  C   UNL     1       1.558   9.236  18.491  0.00  0.00    +0.000 A 
ATOM      6  C   UNL     1       2.060   8.002  18.053  0.00  0.00    +0.000 A 
ENDROOT
BRANCH   1  11
ATOM      7  C   UNL     1       6.660   4.942  17.353  0.00  0.00    +0.000 C 
ATOM      8  C   UNL     1       5.604   3.859  17.628  0.00  0.00    +0.000 C 
ATOM      9  C   UNL     1       4.229   4.264  17.097  0.00  0.00    +0.000 C 
ATOM     10  N   UNL     1       3.825   5.549  17.655  0.00  0.00    +0.000 N 
ATOM     11  C   UNL     1       2.656   5.614  18.430  0.00  0.00    +0.000 C 
ATOM     12  O   UNL     1       2.005   4.610  18.728  0.00  0.00    +0.000 OA
ATOM     13  C   UNL     1       4.768   6.646  17.392  0.00  0.00    +0.000 C 
ATOM     14  C   UNL     1       6.176   6.300  17.865  0.00  0.00    +0.000 C 
BRANCH   7  15
ATOM     15  C   UNL     1       6.990   4.989  15.871  0.00  0.00    +0.000 C 
ATOM     16  O   UNL     1       7.631   5.870  15.317  0.00  0.00    +0.000 OA
BRANCH  15  17
ATOM     17  O   UNL     1       6.390   3.940  15.242  0.00  0.00    +0.000 OA
BRANCH  17  19
ATOM     18  C   UNL     1       6.372   3.509  12.894  0.00  0.00    +0.000 C 
ATOM     19  C   UNL     1       5.700   4.262  14.028  0.00  0.00    +0.000 C 
ENDBRANCH  17  19
ENDBRANCH  15  17
ENDBRANCH   7  15
ENDBRANCH   1  11
BRANCH   4  20
ATOM     20  S   UNL     1       0.555  10.956  20.425  0.00  0.00    +0.000 S 
ATOM     21  O   UNL     1      -0.552  10.668  21.306  0.00  0.00    +0.000 OA
ATOM     22  O   UNL     1       1.701  11.726  20.863  0.00  0.00    +0.000 OA
BRANCH  20  23
ATOM     23  N   UNL     1      -0.120  11.651  19.025  0.00  0.00    +0.000 N 
ATOM     24  H   UNL     1       0.509  11.413  18.254  0.00  0.00    +0.000 HD
BRANCH  23  25
ATOM     25  C   UNL     1      -1.491  11.335  18.704  0.00  0.00    +0.000 A 
ATOM     26  C   UNL     1      -1.718  10.358  17.717  0.00  0.00    +0.000 A 
ATOM     27  C   UNL     1      -3.012  10.072  17.270  0.00  0.00    +0.000 A 
ATOM     28  C   UNL     1      -4.100  10.733  17.827  0.00  0.00    +0.000 A 
ATOM     29  C   UNL     1      -3.886  11.695  18.810  0.00  0.00    +0.000 A 
ATOM     30  C   UNL     1      -2.592  12.023  19.245  0.00  0.00    +0.000 A 
BRANCH  30  31
ATOM     31  O   UNL     1      -2.622  13.091  20.100  0.00  0.00    +0.000 OA
ATOM     32  C   UNL     1      -3.877  13.623  20.465  0.00  0.00    +0.000 C 
ENDBRANCH  30  31
ENDBRANCH  23  25
ENDBRANCH  20  23
ENDBRANCH   4  20
TORSDOF 8
ENDMDL
MODEL 4
REMARK VINA RESULT:      -8.0      2.532      3.330
REMARK  Name = 
REMARK  10 active torsions:
REMARK  status: ('A' for Active; 'I' for Inactive)
REMARK    1  A    between atoms: C_1  and  C_2
REMARK    2  A    between atoms: C_2  and  O_3
REMARK    3  A    between atoms: O_3  and  C_4
REMARK    4  A    between atoms: C_4  and  C_6
REMARK    5  A    between atoms: C_10  and  C_12
REMARK    6  A    between atoms: C_15  and  S_16
REMARK    7  A    between atoms: S_16  and  N_19
REMARK    8  A    between atoms: N_19  and  C_20
REMARK    9  A    between atoms: C_25  and  O_26
REMARK   10  A    between atoms: O_26  and  C_27
REMARK                            x       y       z     vdW  Elec       q    Type
REMARK                         _______ _______ _______ _____ _____    ______ ____
ROOT
ATOM      1  C   UNL     1       2.148   7.140  18.646  0.00  0.00    +0.000 A 
ATOM      2  C   UNL     1       1.909   8.147  17.705  0.00  0.00    +0.000 A 
ATOM      3  C   UNL     1       1.546   9.431  18.119  0.00  0.00    +0.000 A 
ATOM      4  C   UNL     1       1.282   9.676  19.470  0.00  0.00    +0.000 A 
ATOM      5  C   UNL     1       1.430   8.651  20.416  0.00  0.00    +0.000 A 
ATOM      6  C   UNL     1       1.867   7.385  20.000  0.00  0.00    +0.000 A 
ENDROOT
BRANCH   1  11
ATOM      7  C   UNL     1       6.677   5.063  17.289  0.00  0.00    +0.000 C 
ATOM      8  C   UNL     1       5.622   4.001  17.637  0.00  0.00    +0.000 C 
ATOM      9  C   UNL     1       4.253   4.353  17.055  0.00  0.00    +0.000 C 
ATOM     10  N   UNL     1       3.836   5.677  17.500  0.00  0.00    +0.000 N 
ATOM     11  C   UNL     1       2.655   5.799  18.250  0.00  0.00    +0.000 C 
ATOM     12  O   UNL     1       2.004   4.819  18.620  0.00  0.00    +0.000 OA
ATOM     13  C   UNL     1       4.777   6.754  17.160  0.00  0.00    +0.000 C 
ATOM     14  C   UNL     1       6.180   6.456  17.681  0.00  0.00    +0.000 C 
BRANCH   7  15
ATOM     15  C   UNL     1       7.029   4.990  15.813  0.00  0.00    +0.000 C 
ATOM     16  O   UNL     1       7.690   5.817  15.202  0.00  0.00    +0.000 OA
BRANCH  15  17
ATOM     17  O   UNL     1       6.424   3.903  15.258  0.00  0.00    +0.000 OA
BRANCH  17  19
ATOM     18  C   UNL     1       5.112   3.840  13.264  0.00  0.00    +0.000 C 
ATOM     19  C   UNL     1       6.520   3.805  13.832  0.00  0.00    +0.000 C 
ENDBRANCH  17  19
ENDBRANCH  15  17
ENDBRANCH   7  15
ENDBRANCH   1  11
BRANCH   4  20
ATOM     20  S   UNL     1       0.677  11.284  19.962  0.00  0.00    +0.000 S 
ATOM     21  O   UNL     1      -0.738  11.135  20.203  0.00  0.00    +0.000 OA
ATOM     22  O   UNL     1       1.574  11.805  20.972  0.00  0.00    +0.000 OA
BRANCH  20  23
ATOM     23  N   UNL     1       0.822  12.186  18.525  0.00  0.00    +0.000 N 
ATOM     24  H   UNL     1       0.021  11.929  17.942  0.00  0.00    +0.000 HD
BRANCH  23  25
ATOM     25  C   UNL     1       0.956  13.618  18.634  0.00  0.00    +0.000 A 
ATOM     26  C   UNL     1      -0.223  14.372  18.774  0.00  0.00    +0.000 A 
ATOM     27  C   UNL     1      -0.190  15.771  18.776  0.00  0.00    +0.000 A 
ATOM     28  C   UNL     1       1.027  16.435  18.673  0.00  0.00    +0.000 A 
ATOM     29  C   UNL     1       2.200  15.698  18.544  0.00  0.00    +0.000 A 
ATOM     30  C   UNL     1       2.183  14.295  18.501  0.00  0.00    +0.000 A 
BRANCH  30  31
ATOM     31  O   UNL     1       3.428  13.801  18.221  0.00  0.00    +0.000 OA
ATOM     32  C   UNL     1       4.541  14.649  18.395  0.00  0.00    +0.000 C 
ENDBRANCH  30  31
ENDBRANCH  23  25
ENDBRANCH  20  23
ENDBRANCH   4  20
TORSDOF 8
ENDMDL
MODEL 5
REMARK VINA RESULT:      -8.0      2.659      9.318
REMARK  Name = 
REMARK  10 active torsions:
REMARK  status: ('A' for Active; 'I' for Inactive)
REMARK    1  A    between atoms: C_1  and  C_2
REMARK    2  A    between atoms: C_2  and  O_3
REMARK    3  A    between atoms: O_3  and  C_4
REMARK    4  A    between atoms: C_4  and  C_6
REMARK    5  A    between atoms: C_10  and  C_12
REMARK    6  A    between atoms: C_15  and  S_16
REMARK    7  A    between atoms: S_16  and  N_19
REMARK    8  A    between atoms: N_19  and  C_20
REMARK    9  A    between atoms: C_25  and  O_26
REMARK   10  A    between atoms: O_26  and  C_27
REMARK                            x       y       z     vdW  Elec       q    Type
REMARK                         _______ _______ _______ _____ _____    ______ ____
ROOT
ATOM      1  C   UNL     1       1.777   7.383  20.207  0.00  0.00    +0.000 A 
ATOM      2  C   UNL     1       2.402   7.339  18.957  0.00  0.00    +0.000 A 
ATOM      3  C   UNL     1       2.565   6.123  18.289  0.00  0.00    +0.000 A 
ATOM      4  C   UNL     1       2.230   4.927  18.933  0.00  0.00    +0.000 A 
ATOM      5  C   UNL     1       1.686   4.950  20.225  0.00  0.00    +0.000 A 
ATOM      6  C   UNL     1       1.457   6.181  20.857  0.00  0.00    +0.000 A 
ENDROOT
BRANCH   1  11
ATOM      7  C   UNL     1      -1.452  11.355  19.530  0.00  0.00    +0.000 C 
ATOM      8  C   UNL     1      -0.812  11.347  20.928  0.00  0.00    +0.000 C 
ATOM      9  C   UNL     1       0.675  11.000  20.866  0.00  0.00    +0.000 C 
ATOM     10  N   UNL     1       0.873   9.725  20.188  0.00  0.00    +0.000 N 
ATOM     11  C   UNL     1       1.477   8.670  20.890  0.00  0.00    +0.000 C 
ATOM     12  O   UNL     1       1.769   8.754  22.085  0.00  0.00    +0.000 OA
ATOM     13  C   UNL     1       0.325   9.674  18.824  0.00  0.00    +0.000 C 
ATOM     14  C   UNL     1      -1.154  10.044  18.800  0.00  0.00    +0.000 C 
BRANCH   7  15
ATOM     15  C   UNL     1      -0.967  12.558  18.739  0.00  0.00    +0.000 C 
ATOM     16  O   UNL     1      -0.843  12.601  17.522  0.00  0.00    +0.000 OA
BRANCH  15  17
ATOM     17  O   UNL     1      -0.612  13.552  19.599  0.00  0.00    +0.000 OA
BRANCH  17  19
ATOM     18  C   UNL     1       1.566  14.524  19.684  0.00  0.00    +0.000 C 
ATOM     19  C   UNL     1       0.194  14.595  19.038  0.00  0.00    +0.000 C 
ENDBRANCH  17  19
ENDBRANCH  15  17
ENDBRANCH   7  15
ENDBRANCH   1  11
BRANCH   4  20
ATOM     20  S   UNL     1       2.581   3.374  18.123  0.00  0.00    +0.000 S 
ATOM     21  O   UNL     1       1.996   2.341  18.943  0.00  0.00    +0.000 OA
ATOM     22  O   UNL     1       2.246   3.519  16.721  0.00  0.00    +0.000 OA
BRANCH  20  23
ATOM     23  N   UNL     1       4.267   3.233  18.312  0.00  0.00    +0.000 N 
ATOM     24  H   UNL     1       4.490   2.243  18.174  0.00  0.00    +0.000 HD
BRANCH  23  25
ATOM     25  C   UNL     1       5.113   4.080  17.507  0.00  0.00    +0.000 A 
ATOM     26  C   UNL     1       4.993   3.979  16.110  0.00  0.00    +0.000 A 
ATOM     27  C   UNL     1       5.851   4.684  15.259  0.00  0.00    +0.000 A 
ATOM     28  C   UNL     1       6.819   5.526  15.793  0.00  0.00    +0.000 A 
ATOM     29  C   UNL     1       6.940   5.640  17.175  0.00  0.00    +0.000 A 
ATOM     30  C   UNL     1       6.113   4.911  18.045  0.00  0.00    +0.000 A 
BRANCH  30  31
ATOM     31  O   UNL     1       6.514   5.071  19.344  0.00  0.00    +0.000 OA
ATOM     32  C   UNL     1       7.742   5.719  19.593  0.00  0.00    +0.000 C 
ENDBRANCH  30  31
ENDBRANCH  23  25
ENDBRANCH  20  23
ENDBRANCH   4  20
TORSDOF 8
ENDMDL
MODEL 6
REMARK VINA RESULT:      -7.9      2.302      2.985
REMARK  Name = 
REMARK  10 active torsions:
REMARK  status: ('A' for Active; 'I' for Inactive)
REMARK    1  A    between atoms: C_1  and  C_2
REMARK    2  A    between atoms: C_2  and  O_3
REMARK    3  A    between atoms: O_3  and  C_4
REMARK    4  A    between atoms: C_4  and  C_6
REMARK    5  A    between atoms: C_10  and  C_12
REMARK    6  A    between atoms: C_15  and  S_16
REMARK    7  A    between atoms: S_16  and  N_19
REMARK    8  A    between atoms: N_19  and  C_20
REMARK    9  A    between atoms: C_25  and  O_26
REMARK   10  A    between atoms: O_26  and  C_27
REMARK                            x       y       z     vdW  Elec       q    Type
REMARK                         _______ _______ _______ _____ _____    ______ ____
ROOT
ATOM      1  C   UNL     1       2.298   6.936  18.611  0.00  0.00    +0.000 A 
ATOM      2  C   UNL     1       2.117   7.225  19.968  0.00  0.00    +0.000 A 
ATOM      3  C   UNL     1       1.527   8.427  20.363  0.00  0.00    +0.000 A 
ATOM      4  C   UNL     1       1.244   9.409  19.408  0.00  0.00    +0.000 A 
ATOM      5  C   UNL     1       1.503   9.169  18.051  0.00  0.00    +0.000 A 
ATOM      6  C   UNL     1       2.027   7.929  17.656  0.00  0.00    +0.000 A 
ENDROOT
BRANCH   1  11
ATOM      7  C   UNL     1       6.761   5.017  16.862  0.00  0.00    +0.000 C 
ATOM      8  C   UNL     1       5.767   3.918  17.270  0.00  0.00    +0.000 C 
ATOM      9  C   UNL     1       4.347   4.240  16.804  0.00  0.00    +0.000 C 
ATOM     10  N   UNL     1       3.929   5.544  17.307  0.00  0.00    +0.000 N 
ATOM     11  C   UNL     1       2.809   5.618  18.149  0.00  0.00    +0.000 C 
ATOM     12  O   UNL     1       2.216   4.613  18.550  0.00  0.00    +0.000 OA
ATOM     13  C   UNL     1       4.811   6.653  16.916  0.00  0.00    +0.000 C 
ATOM     14  C   UNL     1       6.258   6.388  17.319  0.00  0.00    +0.000 C 
BRANCH   7  15
ATOM     15  C   UNL     1       6.997   4.980  15.362  0.00  0.00    +0.000 C 
ATOM     16  O   UNL     1       7.796   5.678  14.754  0.00  0.00    +0.000 OA
BRANCH  15  17
ATOM     17  O   UNL     1       6.122   4.108  14.788  0.00  0.00    +0.000 OA
BRANCH  17  19
ATOM     18  C   UNL     1       5.061   3.544  12.725  0.00  0.00    +0.000 C 
ATOM     19  C   UNL     1       6.391   3.772  13.422  0.00  0.00    +0.000 C 
ENDBRANCH  17  19
ENDBRANCH  15  17
ENDBRANCH   7  15
ENDBRANCH   1  11
BRANCH   4  20
ATOM     20  S   UNL     1       0.625  10.996  19.946  0.00  0.00    +0.000 S 
ATOM     21  O   UNL     1      -0.756  10.796  20.316  0.00  0.00    +0.000 OA
ATOM     22  O   UNL     1       1.590  11.558  20.869  0.00  0.00    +0.000 OA
BRANCH  20  23
ATOM     23  N   UNL     1       0.604  11.893  18.499  0.00  0.00    +0.000 N 
ATOM     24  H   UNL     1      -0.363  11.880  18.166  0.00  0.00    +0.000 HD
BRANCH  23  25
ATOM     25  C   UNL     1       1.134  13.235  18.525  0.00  0.00    +0.000 A 
ATOM     26  C   UNL     1       2.474  13.413  18.137  0.00  0.00    +0.000 A 
ATOM     27  C   UNL     1       3.095  14.662  18.238  0.00  0.00    +0.000 A 
ATOM     28  C   UNL     1       2.376  15.759  18.697  0.00  0.00    +0.000 A 
ATOM     29  C   UNL     1       1.046  15.595  19.075  0.00  0.00    +0.000 A 
ATOM     30  C   UNL     1       0.417  14.342  19.017  0.00  0.00    +0.000 A 
BRANCH  30  31
ATOM     31  O   UNL     1      -0.832  14.397  19.575  0.00  0.00    +0.000 OA
ATOM     32  C   UNL     1      -1.200  15.563  20.279  0.00  0.00    +0.000 C 
ENDBRANCH  30  31
ENDBRANCH  23  25
ENDBRANCH  20  23
ENDBRANCH   4  20
TORSDOF 8
ENDMDL
MODEL 7
REMARK VINA RESULT:      -7.9      2.657      9.488
REMARK  Name = 
REMARK  10 active torsions:
REMARK  status: ('A' for Active; 'I' for Inactive)
REMARK    1  A    between atoms: C_1  and  C_2
REMARK    2  A    between atoms: C_2  and  O_3
REMARK    3  A    between atoms: O_3  and  C_4
REMARK    4  A    between atoms: C_4  and  C_6
REMARK    5  A    between atoms: C_10  and  C_12
REMARK    6  A    between atoms: C_15  and  S_16
REMARK    7  A    between atoms: S_16  and  N_19
REMARK    8  A    between atoms: N_19  and  C_20
REMARK    9  A    between atoms: C_25  and  O_26
REMARK   10  A    between atoms: O_26  and  C_27
REMARK                            x       y       z     vdW  Elec       q    Type
REMARK                         _______ _______ _______ _____ _____    ______ ____
ROOT
ATOM      1  C   UNL     1       1.704   7.500  20.344  0.00  0.00    +0.000 A 
ATOM      2  C   UNL     1       1.293   6.298  20.931  0.00  0.00    +0.000 A 
ATOM      3  C   UNL     1       1.633   5.074  20.351  0.00  0.00    +0.000 A 
ATOM      4  C   UNL     1       2.265   5.049  19.103  0.00  0.00    +0.000 A 
ATOM      5  C   UNL     1       2.602   6.247  18.458  0.00  0.00    +0.000 A 
ATOM      6  C   UNL     1       2.324   7.471  19.085  0.00  0.00    +0.000 A 
ENDROOT
BRANCH   1  11
ATOM      7  C   UNL     1      -1.434  11.543  19.664  0.00  0.00    +0.000 C 
ATOM      8  C   UNL     1      -0.742  11.558  21.037  0.00  0.00    +0.000 C 
ATOM      9  C   UNL     1       0.731  11.165  20.931  0.00  0.00    +0.000 C 
ATOM     10  N   UNL     1       0.866   9.865  20.285  0.00  0.00    +0.000 N 
ATOM     11  C   UNL     1       1.467   8.814  20.998  0.00  0.00    +0.000 C 
ATOM     12  O   UNL     1       1.806   8.926  22.178  0.00  0.00    +0.000 OA
ATOM     13  C   UNL     1       0.266   9.790  18.946  0.00  0.00    +0.000 C 
ATOM     14  C   UNL     1      -1.201  10.203  18.965  0.00  0.00    +0.000 C 
BRANCH   7  15
ATOM     15  C   UNL     1      -0.946  12.707  18.819  0.00  0.00    +0.000 C 
ATOM     16  O   UNL     1      -0.838  12.700  17.600  0.00  0.00    +0.000 OA
BRANCH  15  17
ATOM     17  O   UNL     1      -0.567  13.730  19.634  0.00  0.00    +0.000 OA
BRANCH  17  19
ATOM     18  C   UNL     1      -0.336  15.969  18.838  0.00  0.00    +0.000 C 
ATOM     19  C   UNL     1       0.378  14.649  19.072  0.00  0.00    +0.000 C 
ENDBRANCH  17  19
ENDBRANCH  15  17
ENDBRANCH   7  15
ENDBRANCH   1  11
BRANCH   4  20
ATOM     20  S   UNL     1       2.560   3.476  18.308  0.00  0.00    +0.000 S 
ATOM     21  O   UNL     1       1.959   2.470  19.149  0.00  0.00    +0.000 OA
ATOM     22  O   UNL     1       2.209   3.613  16.909  0.00  0.00    +0.000 OA
BRANCH  20  23
ATOM     23  N   UNL     1       4.245   3.291  18.475  0.00  0.00    +0.000 N 
ATOM     24  H   UNL     1       4.429   2.285  18.429  0.00  0.00    +0.000 HD
BRANCH  23  25
ATOM     25  C   UNL     1       5.100   4.026  17.575  0.00  0.00    +0.000 A 
ATOM     26  C   UNL     1       4.847   3.909  16.197  0.00  0.00    +0.000 A 
ATOM     27  C   UNL     1       5.695   4.500  15.254  0.00  0.00    +0.000 A 
ATOM     28  C   UNL     1       6.790   5.244  15.677  0.00  0.00    +0.000 A 
ATOM     29  C   UNL     1       7.044   5.373  17.039  0.00  0.00    +0.000 A 
ATOM     30  C   UNL     1       6.227   4.756  17.999  0.00  0.00    +0.000 A 
BRANCH  30  31
ATOM     31  O   UNL     1       6.755   4.898  19.253  0.00  0.00    +0.000 OA
ATOM     32  C   UNL     1       7.828   5.797  19.431  0.00  0.00    +0.000 C 
ENDBRANCH  30  31
ENDBRANCH  23  25
ENDBRANCH  20  23
ENDBRANCH   4  20
TORSDOF 8
ENDMDL
MODEL 8
REMARK VINA RESULT:      -7.9      3.037      9.586
REMARK  Name = 
REMARK  10 active torsions:
REMARK  status: ('A' for Active; 'I' for Inactive)
REMARK    1  A    between atoms: C_1  and  C_2
REMARK    2  A    between atoms: C_2  and  O_3
REMARK    3  A    between atoms: O_3  and  C_4
REMARK    4  A    between atoms: C_4  and  C_6
REMARK    5  A    between atoms: C_10  and  C_12
REMARK    6  A    between atoms: C_15  and  S_16
REMARK    7  A    between atoms: S_16  and  N_19
REMARK    8  A    between atoms: N_19  and  C_20
REMARK    9  A    between atoms: C_25  and  O_26
REMARK   10  A    between atoms: O_26  and  C_27
REMARK                            x       y       z     vdW  Elec       q    Type
REMARK                         _______ _______ _______ _____ _____    ______ ____
ROOT
ATOM      1  C   UNL     1       2.053   7.417  18.613  0.00  0.00    +0.000 A 
ATOM      2  C   UNL     1       1.825   6.437  17.641  0.00  0.00    +0.000 A 
ATOM      3  C   UNL     1       2.022   5.087  17.937  0.00  0.00    +0.000 A 
ATOM      4  C   UNL     1       2.586   4.720  19.163  0.00  0.00    +0.000 A 
ATOM      5  C   UNL     1       2.904   5.699  20.115  0.00  0.00    +0.000 A 
ATOM      6  C   UNL     1       2.632   7.047  19.837  0.00  0.00    +0.000 A 
ENDROOT
BRANCH   1  11
ATOM      7  C   UNL     1       0.547  11.474  21.430  0.00  0.00    +0.000 C 
ATOM      8  C   UNL     1       1.061  11.880  20.039  0.00  0.00    +0.000 C 
ATOM      9  C   UNL     1       0.553  10.934  18.952  0.00  0.00    +0.000 C 
ATOM     10  N   UNL     1       0.913   9.556  19.267  0.00  0.00    +0.000 N 
ATOM     11  C   UNL     1       1.736   8.850  18.374  0.00  0.00    +0.000 C 
ATOM     12  O   UNL     1       2.235   9.378  17.377  0.00  0.00    +0.000 OA
ATOM     13  C   UNL     1       0.415   9.083  20.566  0.00  0.00    +0.000 C 
ATOM     14  C   UNL     1       0.854  10.000  21.702  0.00  0.00    +0.000 C 
BRANCH   7  15
ATOM     15  C   UNL     1      -0.939  11.766  21.546  0.00  0.00    +0.000 C 
ATOM     16  O   UNL     1      -1.693  11.982  20.607  0.00  0.00    +0.000 OA
BRANCH  15  17
ATOM     17  O   UNL     1      -1.285  11.833  22.862  0.00  0.00    +0.000 OA
BRANCH  17  19
ATOM     18  C   UNL     1      -3.472  12.320  23.688  0.00  0.00    +0.000 C 
ATOM     19  C   UNL     1      -2.156  12.914  23.216  0.00  0.00    +0.000 C 
ENDBRANCH  17  19
ENDBRANCH  15  17
ENDBRANCH   7  15
ENDBRANCH   1  11
BRANCH   4  20
ATOM     20  S   UNL     1       2.968   3.001  19.468  0.00  0.00    +0.000 S 
ATOM     21  O   UNL     1       2.954   2.824  20.900  0.00  0.00    +0.000 OA
ATOM     22  O   UNL     1       2.139   2.201  18.590  0.00  0.00    +0.000 OA
BRANCH  20  23
ATOM     23  N   UNL     1       4.599   2.898  18.992  0.00  0.00    +0.000 N 
ATOM     24  H   UNL     1       4.738   1.944  18.647  0.00  0.00    +0.000 HD
BRANCH  23  25
ATOM     25  C   UNL     1       5.095   3.875  18.053  0.00  0.00    +0.000 A 
ATOM     26  C   UNL     1       4.767   3.698  16.697  0.00  0.00    +0.000 A 
ATOM     27  C   UNL     1       5.297   4.537  15.710  0.00  0.00    +0.000 A 
ATOM     28  C   UNL     1       6.136   5.584  16.070  0.00  0.00    +0.000 A 
ATOM     29  C   UNL     1       6.461   5.773  17.410  0.00  0.00    +0.000 A 
ATOM     30  C   UNL     1       5.969   4.919  18.410  0.00  0.00    +0.000 A 
BRANCH  30  31
ATOM     31  O   UNL     1       6.538   5.208  19.620  0.00  0.00    +0.000 OA
ATOM     32  C   UNL     1       7.855   5.713  19.639  0.00  0.00    +0.000 C 
ENDBRANCH  30  31
ENDBRANCH  23  25
ENDBRANCH  20  23
ENDBRANCH   4  20
TORSDOF 8
ENDMDL
MODEL 9
REMARK VINA RESULT:      -7.9      2.432      9.505
REMARK  Name = 
REMARK  10 active torsions:
REMARK  status: ('A' for Active; 'I' for Inactive)
REMARK    1  A    between atoms: C_1  and  C_2
REMARK    2  A    between atoms: C_2  and  O_3
REMARK    3  A    between atoms: O_3  and  C_4
REMARK    4  A    between atoms: C_4  and  C_6
REMARK    5  A    between atoms: C_10  and  C_12
REMARK    6  A    between atoms: C_15  and  S_16
REMARK    7  A    between atoms: S_16  and  N_19
REMARK    8  A    between atoms: N_19  and  C_20
REMARK    9  A    between atoms: C_25  and  O_26
REMARK   10  A    between atoms: O_26  and  C_27
REMARK                            x       y       z     vdW  Elec       q    Type
REMARK                         _______ _______ _______ _____ _____    ______ ____
ROOT
ATOM      1  C   UNL     1       1.847   7.276  20.168  0.00  0.00    +0.000 A 
ATOM      2  C   UNL     1       2.402   7.333  18.885  0.00  0.00    +0.000 A 
ATOM      3  C   UNL     1       2.700   6.160  18.189  0.00  0.00    +0.000 A 
ATOM      4  C   UNL     1       2.576   4.923  18.829  0.00  0.00    +0.000 A 
ATOM      5  C   UNL     1       2.107   4.854  20.149  0.00  0.00    +0.000 A 
ATOM      6  C   UNL     1       1.739   6.034  20.813  0.00  0.00    +0.000 A 
ENDROOT
BRANCH   1  11
ATOM      7  C   UNL     1      -0.917  11.501  19.086  0.00  0.00    +0.000 C 
ATOM      8  C   UNL     1      -0.711  11.302  20.596  0.00  0.00    +0.000 C 
ATOM      9  C   UNL     1       0.719  10.866  20.918  0.00  0.00    +0.000 C 
ATOM     10  N   UNL     1       1.063   9.660  20.175  0.00  0.00    +0.000 N 
ATOM     11  C   UNL     1       1.404   8.499  20.888  0.00  0.00    +0.000 C 
ATOM     12  O   UNL     1       1.339   8.437  22.117  0.00  0.00    +0.000 OA
ATOM     13  C   UNL     1       0.933   9.791  18.717  0.00  0.00    +0.000 C 
ATOM     14  C   UNL     1      -0.463  10.258  18.318  0.00  0.00    +0.000 C 
BRANCH   7  15
ATOM     15  C   UNL     1      -0.185  12.746  18.616  0.00  0.00    +0.000 C 
ATOM     16  O   UNL     1       0.910  12.760  18.071  0.00  0.00    +0.000 OA
BRANCH  15  17
ATOM     17  O   UNL     1      -0.898  13.851  18.972  0.00  0.00    +0.000 OA
BRANCH  17  19
ATOM     18  C   UNL     1      -0.273  16.125  18.602  0.00  0.00    +0.000 C 
ATOM     19  C   UNL     1      -0.133  14.928  19.526  0.00  0.00    +0.000 C 
ENDBRANCH  17  19
ENDBRANCH  15  17
ENDBRANCH   7  15
ENDBRANCH   1  11
BRANCH   4  20
ATOM     20  S   UNL     1       3.100   3.443  17.975  0.00  0.00    +0.000 S 
ATOM     21  O   UNL     1       2.391   2.344  18.583  0.00  0.00    +0.000 OA
ATOM     22  O   UNL     1       3.032   3.705  16.552  0.00  0.00    +0.000 OA
BRANCH  20  23
ATOM     23  N   UNL     1       4.724   3.291  18.466  0.00  0.00    +0.000 N 
ATOM     24  H   UNL     1       5.015   2.344  18.207  0.00  0.00    +0.000 HD
BRANCH  23  25
ATOM     25  C   UNL     1       5.668   4.278  18.003  0.00  0.00    +0.000 A 
ATOM     26  C   UNL     1       6.027   5.304  18.897  0.00  0.00    +0.000 A 
ATOM     27  C   UNL     1       6.851   6.359  18.491  0.00  0.00    +0.000 A 
ATOM     28  C   UNL     1       7.354   6.387  17.196  0.00  0.00    +0.000 A 
ATOM     29  C   UNL     1       7.013   5.372  16.307  0.00  0.00    +0.000 A 
ATOM     30  C   UNL     1       6.157   4.325  16.684  0.00  0.00    +0.000 A 
BRANCH  30  31
ATOM     31  O   UNL     1       5.849   3.536  15.609  0.00  0.00    +0.000 OA
ATOM     32  C   UNL     1       6.265   3.956  14.328  0.00  0.00    +0.000 C 
ENDBRANCH  30  31
ENDBRANCH  23  25
ENDBRANCH  20  23
ENDBRANCH   4  20
TORSDOF 8
ENDMDL
