MODEL 1
REMARK VINA RESULT:      -7.8      0.000      0.000
REMARK  Name = 
REMARK  4 active torsions:
REMARK  status: ('A' for Active; 'I' for Inactive)
REMARK    1  A    between atoms: C_11  and  C_12
REMARK    2  A    between atoms: C_15  and  O_16
REMARK    3  A    between atoms: O_16  and  C_17
REMARK    4  A    between atoms: C_23  and  C_24
REMARK                            x       y       z     vdW  Elec       q    Type
REMARK                         _______ _______ _______ _____ _____    ______ ____
ROOT
ATOM      1  C   UNL     1       1.884   1.472  18.433  0.00  0.00    +0.000 C 
ATOM      2  C   UNL     1       2.221   2.769  18.475  0.00  0.00    +0.000 C 
ATOM      3  C   UNL     1       2.403   3.462  17.141  0.00  0.00    +0.000 C 
ATOM      4  C   UNL     1       3.680   4.128  17.500  0.00  0.00    +0.000 C 
ATOM      5  C   UNL     1       3.298   4.780  18.830  0.00  0.00    +0.000 C 
ATOM      6  C   UNL     1       2.734   6.167  18.729  0.00  0.00    +0.000 C 
ATOM      7  C   UNL     1       3.560   7.125  17.864  0.00  0.00    +0.000 C 
ATOM      8  C   UNL     1       2.624   8.227  17.431  0.00  0.00    +0.000 C 
ATOM      9  C   UNL     1       1.762   8.724  18.571  0.00  0.00    +0.000 A 
ATOM     10  C   UNL     1       0.928   9.804  18.268  0.00  0.00    +0.000 A 
ATOM     11  C   UNL     1       0.014  10.310  19.192  0.00  0.00    +0.000 A 
ATOM     12  C   UNL     1       0.034   9.793  20.499  0.00  0.00    +0.000 A 
ATOM     13  C   UNL     1       0.882   8.690  20.795  0.00  0.00    +0.000 A 
ATOM     14  C   UNL     1       1.695   8.074  19.834  0.00  0.00    +0.000 A 
ATOM     15  C   UNL     1       2.570   6.831  20.115  0.00  0.00    +0.000 C 
ATOM     16  C   UNL     1       2.135   5.810  21.227  0.00  0.00    +0.000 C 
ATOM     17  C   UNL     1       2.676   4.294  21.041  0.00  0.00    +0.000 C 
ATOM     18  C   UNL     1       2.266   3.826  19.596  0.00  0.00    +0.000 C 
ATOM     19  C   UNL     1       0.698   3.913  19.767  0.00  0.00    +0.000 C 
ENDROOT
BRANCH  11  20
ATOM     20  C   UNL     1      -0.822  11.427  18.649  0.00  0.00    +0.000 C 
ATOM     21  N   UNL     1      -1.507  11.177  17.477  0.00  0.00    +0.000 N 
ATOM     22  O   UNL     1      -0.890  12.543  19.142  0.00  0.00    +0.000 OA
ATOM     23  H   UNL     1      -1.494  10.284  17.011  0.00  0.00    +0.000 HD
ATOM     24  H   UNL     1      -2.054  11.930  17.092  0.00  0.00    +0.000 HD
ENDBRANCH  11  20
BRANCH  12  25
ATOM     25  O   UNL     1      -0.690  10.125  21.609  0.00  0.00    +0.000 OA
ATOM     26  C   UNL     1      -0.329   9.661  22.894  0.00  0.00    +0.000 C 
ENDBRANCH  12  25
TORSDOF 2
ENDMDL
MODEL 2
REMARK VINA RESULT:      -7.3      2.036      3.928
REMARK  Name = 
REMARK  4 active torsions:
REMARK  status: ('A' for Active; 'I' for Inactive)
REMARK    1  A    between atoms: C_11  and  C_12
REMARK    2  A    between atoms: C_15  and  O_16
REMARK    3  A    between atoms: O_16  and  C_17
REMARK    4  A    between atoms: C_23  and  C_24
REMARK                            x       y       z     vdW  Elec       q    Type
REMARK                         _______ _______ _______ _____ _____    ______ ____
ROOT
ATOM      1  C   UNL     1       7.781   4.671  17.710  0.00  0.00    +0.000 C 
ATOM      2  C   UNL     1       6.485   4.858  17.996  0.00  0.00    +0.000 C 
ATOM      3  C   UNL     1       5.961   4.162  19.234  0.00  0.00    +0.000 C 
ATOM      4  C   UNL     1       4.733   3.632  18.591  0.00  0.00    +0.000 C 
ATOM      5  C   UNL     1       4.178   4.904  17.947  0.00  0.00    +0.000 C 
ATOM      6  C   UNL     1       3.245   5.707  18.806  0.00  0.00    +0.000 C 
ATOM      7  C   UNL     1       2.127   4.890  19.462  0.00  0.00    +0.000 C 
ATOM      8  C   UNL     1       1.660   5.686  20.657  0.00  0.00    +0.000 C 
ATOM      9  C   UNL     1       1.491   7.154  20.334  0.00  0.00    +0.000 A 
ATOM     10  C   UNL     1       0.979   7.943  21.368  0.00  0.00    +0.000 A 
ATOM     11  C   UNL     1       0.853   9.326  21.246  0.00  0.00    +0.000 A 
ATOM     12  C   UNL     1       1.131   9.912  19.999  0.00  0.00    +0.000 A 
ATOM     13  C   UNL     1       1.657   9.102  18.955  0.00  0.00    +0.000 A 
ATOM     14  C   UNL     1       1.931   7.736  19.114  0.00  0.00    +0.000 A 
ATOM     15  C   UNL     1       2.570   6.853  18.017  0.00  0.00    +0.000 C 
ATOM     16  C   UNL     1       3.527   7.502  16.955  0.00  0.00    +0.000 C 
ATOM     17  C   UNL     1       4.618   6.508  16.289  0.00  0.00    +0.000 C 
ATOM     18  C   UNL     1       5.401   5.818  17.467  0.00  0.00    +0.000 C 
ATOM     19  C   UNL     1       6.043   7.115  18.102  0.00  0.00    +0.000 C 
ENDROOT
BRANCH  11  20
ATOM     20  C   UNL     1       0.339   9.987  22.488  0.00  0.00    +0.000 C 
ATOM     21  N   UNL     1      -0.463  11.096  22.314  0.00  0.00    +0.000 N 
ATOM     22  O   UNL     1       0.626   9.641  23.624  0.00  0.00    +0.000 OA
ATOM     23  H   UNL     1      -0.737  11.442  21.409  0.00  0.00    +0.000 HD
ATOM     24  H   UNL     1      -0.795  11.560  23.144  0.00  0.00    +0.000 HD
ENDBRANCH  11  20
BRANCH  12  25
ATOM     25  O   UNL     1       1.044  11.207  19.574  0.00  0.00    +0.000 OA
ATOM     26  C   UNL     1      -0.018  11.646  18.751  0.00  0.00    +0.000 C 
ENDBRANCH  12  25
TORSDOF 2
ENDMDL
MODEL 3
REMARK VINA RESULT:      -6.8      3.449      7.154
REMARK  Name = 
REMARK  4 active torsions:
REMARK  status: ('A' for Active; 'I' for Inactive)
REMARK    1  A    between atoms: C_11  and  C_12
REMARK    2  A    between atoms: C_15  and  O_16
REMARK    3  A    between atoms: O_16  and  C_17
REMARK    4  A    between atoms: C_23  and  C_24
REMARK                            x       y       z     vdW  Elec       q    Type
REMARK                         _______ _______ _______ _____ _____    ______ ____
ROOT
ATOM      1  C   UNL     1      -1.948  12.270  18.436  0.00  0.00    +0.000 C 
ATOM      2  C   UNL     1      -1.076  11.414  18.986  0.00  0.00    +0.000 C 
ATOM      3  C   UNL     1      -1.465  10.823  20.325  0.00  0.00    +0.000 C 
ATOM      4  C   UNL     1      -0.147  11.051  20.969  0.00  0.00    +0.000 C 
ATOM      5  C   UNL     1       0.790  10.435  19.929  0.00  0.00    +0.000 C 
ATOM      6  C   UNL     1       1.082   8.973  20.111  0.00  0.00    +0.000 C 
ATOM      7  C   UNL     1       1.504   8.583  21.531  0.00  0.00    +0.000 C 
ATOM      8  C   UNL     1       1.223   7.107  21.671  0.00  0.00    +0.000 C 
ATOM      9  C   UNL     1       1.677   6.322  20.460  0.00  0.00    +0.000 A 
ATOM     10  C   UNL     1       1.529   4.935  20.552  0.00  0.00    +0.000 A 
ATOM     11  C   UNL     1       1.821   4.092  19.481  0.00  0.00    +0.000 A 
ATOM     12  C   UNL     1       2.400   4.653  18.330  0.00  0.00    +0.000 A 
ATOM     13  C   UNL     1       2.542   6.066  18.245  0.00  0.00    +0.000 A 
ATOM     14  C   UNL     1       2.112   6.938  19.255  0.00  0.00    +0.000 A 
ATOM     15  C   UNL     1       2.190   8.478  19.153  0.00  0.00    +0.000 C 
ATOM     16  C   UNL     1       2.125   9.169  17.744  0.00  0.00    +0.000 C 
ATOM     17  C   UNL     1       1.575  10.693  17.731  0.00  0.00    +0.000 C 
ATOM     18  C   UNL     1       0.185  10.693  18.470  0.00  0.00    +0.000 C 
ATOM     19  C   UNL     1      -0.595   9.738  17.483  0.00  0.00    +0.000 C 
ENDROOT
BRANCH  11  20
ATOM     20  C   UNL     1       1.537   2.650  19.767  0.00  0.00    +0.000 C 
ATOM     21  N   UNL     1       1.392   1.816  18.677  0.00  0.00    +0.000 N 
ATOM     22  O   UNL     1       1.376   2.186  20.886  0.00  0.00    +0.000 OA
ATOM     23  H   UNL     1       1.506   2.129  17.726  0.00  0.00    +0.000 HD
ATOM     24  H   UNL     1       1.179   0.849  18.859  0.00  0.00    +0.000 HD
ENDBRANCH  11  20
BRANCH  12  25
ATOM     25  O   UNL     1       2.836   4.078  17.170  0.00  0.00    +0.000 OA
ATOM     26  C   UNL     1       4.213   3.923  16.893  0.00  0.00    +0.000 C 
ENDBRANCH  12  25
TORSDOF 2
ENDMDL
MODEL 4
REMARK VINA RESULT:      -6.6      5.017      8.131
REMARK  Name = 
REMARK  4 active torsions:
REMARK  status: ('A' for Active; 'I' for Inactive)
REMARK    1  A    between atoms: C_11  and  C_12
REMARK    2  A    between atoms: C_15  and  O_16
REMARK    3  A    between atoms: O_16  and  C_17
REMARK    4  A    between atoms: C_23  and  C_24
REMARK                            x       y       z     vdW  Elec       q    Type
REMARK                         _______ _______ _______ _____ _____    ______ ____
ROOT
ATOM      1  C   UNL     1       1.050   9.592  18.298  0.00  0.00    +0.000 C 
ATOM      2  C   UNL     1      -0.086  10.293  18.409  0.00  0.00    +0.000 C 
ATOM      3  C   UNL     1      -1.363   9.574  18.027  0.00  0.00    +0.000 C 
ATOM      4  C   UNL     1      -1.911  10.682  17.205  0.00  0.00    +0.000 C 
ATOM      5  C   UNL     1      -1.772  11.854  18.179  0.00  0.00    +0.000 C 
ATOM      6  C   UNL     1      -2.951  12.089  19.077  0.00  0.00    +0.000 C 
ATOM      7  C   UNL     1      -4.301  12.133  18.352  0.00  0.00    +0.000 C 
ATOM      8  C   UNL     1      -5.354  11.824  19.389  0.00  0.00    +0.000 C 
ATOM      9  C   UNL     1      -5.118  12.573  20.682  0.00  0.00    +0.000 A 
ATOM     10  C   UNL     1      -6.101  12.405  21.662  0.00  0.00    +0.000 A 
ATOM     11  C   UNL     1      -5.973  12.961  22.934  0.00  0.00    +0.000 A 
ATOM     12  C   UNL     1      -4.886  13.816  23.181  0.00  0.00    +0.000 A 
ATOM     13  C   UNL     1      -3.889  13.976  22.179  0.00  0.00    +0.000 A 
ATOM     14  C   UNL     1      -3.928  13.303  20.950  0.00  0.00    +0.000 A 
ATOM     15  C   UNL     1      -2.820  13.406  19.877  0.00  0.00    +0.000 C 
ATOM     16  C   UNL     1      -1.341  13.704  20.312  0.00  0.00    +0.000 C 
ATOM     17  C   UNL     1      -0.190  13.176  19.302  0.00  0.00    +0.000 C 
ATOM     18  C   UNL     1      -0.450  11.644  19.057  0.00  0.00    +0.000 C 
ATOM     19  C   UNL     1      -0.257  11.142  20.542  0.00  0.00    +0.000 C 
ENDROOT
BRANCH  11  20
ATOM     20  C   UNL     1      -7.106  12.613  23.849  0.00  0.00    +0.000 C 
ATOM     21  N   UNL     1      -7.598  13.628  24.643  0.00  0.00    +0.000 N 
ATOM     22  O   UNL     1      -7.576  11.491  23.972  0.00  0.00    +0.000 OA
ATOM     23  H   UNL     1      -7.257  14.575  24.601  0.00  0.00    +0.000 HD
ATOM     24  H   UNL     1      -8.345  13.398  25.279  0.00  0.00    +0.000 HD
ENDBRANCH  11  20
BRANCH  12  25
ATOM     25  O   UNL     1      -4.540  14.535  24.290  0.00  0.00    +0.000 OA
ATOM     26  C   UNL     1      -3.227  14.502  24.813  0.00  0.00    +0.000 C 
ENDBRANCH  12  25
TORSDOF 2
ENDMDL
MODEL 5
REMARK VINA RESULT:      -6.4      9.434     10.906
REMARK  Name = 
REMARK  4 active torsions:
REMARK  status: ('A' for Active; 'I' for Inactive)
REMARK    1  A    between atoms: C_11  and  C_12
REMARK    2  A    between atoms: C_15  and  O_16
REMARK    3  A    between atoms: O_16  and  C_17
REMARK    4  A    between atoms: C_23  and  C_24
REMARK                            x       y       z     vdW  Elec       q    Type
REMARK                         _______ _______ _______ _____ _____    ______ ____
ROOT
ATOM      1  C   UNL     1      11.774  13.342  16.181  0.00  0.00    +0.000 C 
ATOM      2  C   UNL     1      11.485  13.692  17.442  0.00  0.00    +0.000 C 
ATOM      3  C   UNL     1      11.238  15.165  17.693  0.00  0.00    +0.000 C 
ATOM      4  C   UNL     1      12.092  15.249  18.904  0.00  0.00    +0.000 C 
ATOM      5  C   UNL     1      11.547  14.074  19.718  0.00  0.00    +0.000 C 
ATOM      6  C   UNL     1      10.407  14.401  20.638  0.00  0.00    +0.000 C 
ATOM      7  C   UNL     1      10.645  15.625  21.529  0.00  0.00    +0.000 C 
ATOM      8  C   UNL     1       9.281  16.120  21.947  0.00  0.00    +0.000 C 
ATOM      9  C   UNL     1       8.368  14.991  22.370  0.00  0.00    +0.000 A 
ATOM     10  C   UNL     1       7.115  15.378  22.853  0.00  0.00    +0.000 A 
ATOM     11  C   UNL     1       6.138  14.445  23.195  0.00  0.00    +0.000 A 
ATOM     12  C   UNL     1       6.480  13.082  23.169  0.00  0.00    +0.000 A 
ATOM     13  C   UNL     1       7.756  12.698  22.672  0.00  0.00    +0.000 A 
ATOM     14  C   UNL     1       8.693  13.620  22.183  0.00  0.00    +0.000 A 
ATOM     15  C   UNL     1      10.055  13.219  21.571  0.00  0.00    +0.000 C 
ATOM     16  C   UNL     1      10.211  11.825  20.865  0.00  0.00    +0.000 C 
ATOM     17  C   UNL     1      11.370  11.733  19.737  0.00  0.00    +0.000 C 
ATOM     18  C   UNL     1      11.119  12.902  18.714  0.00  0.00    +0.000 C 
ATOM     19  C   UNL     1       9.700  12.446  18.192  0.00  0.00    +0.000 C 
ENDROOT
BRANCH  11  20
ATOM     20  C   UNL     1       4.849  15.069  23.633  0.00  0.00    +0.000 C 
ATOM     21  N   UNL     1       4.901  15.887  24.743  0.00  0.00    +0.000 N 
ATOM     22  O   UNL     1       3.766  14.860  23.108  0.00  0.00    +0.000 OA
ATOM     23  H   UNL     1       5.756  16.101  25.230  0.00  0.00    +0.000 HD
ATOM     24  H   UNL     1       4.035  16.294  25.059  0.00  0.00    +0.000 HD
ENDBRANCH  11  20
BRANCH  12  25
ATOM     25  O   UNL     1       5.763  11.967  23.500  0.00  0.00    +0.000 OA
ATOM     26  C   UNL     1       5.958  11.300  24.731  0.00  0.00    +0.000 C 
ENDBRANCH  12  25
TORSDOF 2
ENDMDL
MODEL 6
REMARK VINA RESULT:      -6.2      3.995      6.847
REMARK  Name = 
REMARK  4 active torsions:
REMARK  status: ('A' for Active; 'I' for Inactive)
REMARK    1  A    between atoms: C_11  and  C_12
REMARK    2  A    between atoms: C_15  and  O_16
REMARK    3  A    between atoms: O_16  and  C_17
REMARK    4  A    between atoms: C_23  and  C_24
REMARK                            x       y       z     vdW  Elec       q    Type
REMARK                         _______ _______ _______ _____ _____    ______ ____
ROOT
ATOM      1  C   UNL     1       0.034  11.716  22.323  0.00  0.00    +0.000 C 
ATOM      2  C   UNL     1       0.380  10.892  21.325  0.00  0.00    +0.000 C 
ATOM      3  C   UNL     1       1.043  11.531  20.122  0.00  0.00    +0.000 C 
ATOM      4  C   UNL     1       0.219  10.821  19.112  0.00  0.00    +0.000 C 
ATOM      5  C   UNL     1       0.372   9.374  19.585  0.00  0.00    +0.000 C 
ATOM      6  C   UNL     1       1.533   8.624  18.999  0.00  0.00    +0.000 C 
ATOM      7  C   UNL     1       1.643   8.719  17.474  0.00  0.00    +0.000 C 
ATOM      8  C   UNL     1       3.080   8.411  17.129  0.00  0.00    +0.000 C 
ATOM      9  C   UNL     1       3.608   7.218  17.894  0.00  0.00    +0.000 A 
ATOM     10  C   UNL     1       4.907   6.819  17.565  0.00  0.00    +0.000 A 
ATOM     11  C   UNL     1       5.557   5.793  18.249  0.00  0.00    +0.000 A 
ATOM     12  C   UNL     1       4.829   5.066  19.206  0.00  0.00    +0.000 A 
ATOM     13  C   UNL     1       3.511   5.484  19.538  0.00  0.00    +0.000 A 
ATOM     14  C   UNL     1       2.900   6.608  18.964  0.00  0.00    +0.000 A 
ATOM     15  C   UNL     1       1.497   7.122  19.362  0.00  0.00    +0.000 C 
ATOM     16  C   UNL     1       0.956   6.863  20.813  0.00  0.00    +0.000 C 
ATOM     17  C   UNL     1      -0.147   7.918  21.353  0.00  0.00    +0.000 C 
ATOM     18  C   UNL     1       0.463   9.359  21.183  0.00  0.00    +0.000 C 
ATOM     19  C   UNL     1       1.699   9.196  22.154  0.00  0.00    +0.000 C 
ENDROOT
BRANCH  11  20
ATOM     20  C   UNL     1       6.960   5.564  17.779  0.00  0.00    +0.000 C 
ATOM     21  N   UNL     1       7.508   4.324  18.042  0.00  0.00    +0.000 N 
ATOM     22  O   UNL     1       7.655   6.409  17.235  0.00  0.00    +0.000 OA
ATOM     23  H   UNL     1       6.999   3.580  18.491  0.00  0.00    +0.000 HD
ATOM     24  H   UNL     1       8.460   4.168  17.749  0.00  0.00    +0.000 HD
ENDBRANCH  11  20
BRANCH  12  25
ATOM     25  O   UNL     1       5.178   3.994  19.978  0.00  0.00    +0.000 OA
ATOM     26  C   UNL     1       4.546   2.738  19.828  0.00  0.00    +0.000 C 
ENDBRANCH  12  25
TORSDOF 2
ENDMDL
MODEL 7
REMARK VINA RESULT:      -6.1      3.618      6.929
REMARK  Name = 
REMARK  4 active torsions:
REMARK  status: ('A' for Active; 'I' for Inactive)
REMARK    1  A    between atoms: C_11  and  C_12
REMARK    2  A    between atoms: C_15  and  O_16
REMARK    3  A    between atoms: O_16  and  C_17
REMARK    4  A    between atoms: C_23  and  C_24
REMARK                            x       y       z     vdW  Elec       q    Type
REMARK                         _______ _______ _______ _____ _____    ______ ____
ROOT
ATOM      1  C   UNL     1       0.852  13.393  21.564  0.00  0.00    +0.000 C 
ATOM      2  C   UNL     1       0.929  12.297  20.796  0.00  0.00    +0.000 C 
ATOM      3  C   UNL     1       1.901  12.354  19.637  0.00  0.00    +0.000 C 
ATOM      4  C   UNL     1       0.959  11.795  18.634  0.00  0.00    +0.000 C 
ATOM      5  C   UNL     1       0.474  10.543  19.367  0.00  0.00    +0.000 C 
ATOM      6  C   UNL     1       1.284   9.302  19.129  0.00  0.00    +0.000 C 
ATOM      7  C   UNL     1       1.565   9.002  17.652  0.00  0.00    +0.000 C 
ATOM      8  C   UNL     1       2.782   8.111  17.621  0.00  0.00    +0.000 C 
ATOM      9  C   UNL     1       2.713   7.013  18.659  0.00  0.00    +0.000 A 
ATOM     10  C   UNL     1       3.766   6.094  18.634  0.00  0.00    +0.000 A 
ATOM     11  C   UNL     1       3.882   5.082  19.586  0.00  0.00    +0.000 A 
ATOM     12  C   UNL     1       2.837   4.916  20.511  0.00  0.00    +0.000 A 
ATOM     13  C   UNL     1       1.773   5.859  20.532  0.00  0.00    +0.000 A 
ATOM     14  C   UNL     1       1.722   6.969  19.677  0.00  0.00    +0.000 A 
ATOM     15  C   UNL     1       0.614   8.046  19.730  0.00  0.00    +0.000 C 
ATOM     16  C   UNL     1      -0.118   8.342  21.087  0.00  0.00    +0.000 C 
ATOM     17  C   UNL     1      -0.750   9.826  21.238  0.00  0.00    +0.000 C 
ATOM     18  C   UNL     1       0.401  10.856  20.935  0.00  0.00    +0.000 C 
ATOM     19  C   UNL     1       1.370  10.466  22.119  0.00  0.00    +0.000 C 
ENDROOT
BRANCH  11  20
ATOM     20  C   UNL     1       5.112   4.245  19.415  0.00  0.00    +0.000 C 
ATOM     21  N   UNL     1       4.941   2.876  19.453  0.00  0.00    +0.000 N 
ATOM     22  O   UNL     1       6.243   4.693  19.298  0.00  0.00    +0.000 OA
ATOM     23  H   UNL     1       4.041   2.435  19.551  0.00  0.00    +0.000 HD
ATOM     24  H   UNL     1       5.766   2.304  19.361  0.00  0.00    +0.000 HD
ENDBRANCH  11  20
BRANCH  12  25
ATOM     25  O   UNL     1       2.652   3.994  21.503  0.00  0.00    +0.000 OA
ATOM     26  C   UNL     1       1.682   2.972  21.392  0.00  0.00    +0.000 C 
ENDBRANCH  12  25
TORSDOF 2
ENDMDL
MODEL 8
REMARK VINA RESULT:      -6.1      8.150      9.687
REMARK  Name = 
REMARK  4 active torsions:
REMARK  status: ('A' for Active; 'I' for Inactive)
REMARK    1  A    between atoms: C_11  and  C_12
REMARK    2  A    between atoms: C_15  and  O_16
REMARK    3  A    between atoms: O_16  and  C_17
REMARK    4  A    between atoms: C_23  and  C_24
REMARK                            x       y       z     vdW  Elec       q    Type
REMARK                         _______ _______ _______ _____ _____    ______ ____
ROOT
ATOM      1  C   UNL     1      12.161  11.562  18.986  0.00  0.00    +0.000 C 
ATOM      2  C   UNL     1      11.167  12.460  18.946  0.00  0.00    +0.000 C 
ATOM      3  C   UNL     1      10.309  12.460  17.698  0.00  0.00    +0.000 C 
ATOM      4  C   UNL     1      10.330  13.932  17.511  0.00  0.00    +0.000 C 
ATOM      5  C   UNL     1       9.921  14.403  18.908  0.00  0.00    +0.000 C 
ATOM      6  C   UNL     1       8.445  14.566  19.126  0.00  0.00    +0.000 C 
ATOM      7  C   UNL     1       7.730  15.378  18.040  0.00  0.00    +0.000 C 
ATOM      8  C   UNL     1       6.273  14.987  18.104  0.00  0.00    +0.000 C 
ATOM      9  C   UNL     1       5.759  14.929  19.526  0.00  0.00    +0.000 A 
ATOM     10  C   UNL     1       4.394  14.658  19.661  0.00  0.00    +0.000 A 
ATOM     11  C   UNL     1       3.799  14.486  20.911  0.00  0.00    +0.000 A 
ATOM     12  C   UNL     1       4.578  14.722  22.057  0.00  0.00    +0.000 A 
ATOM     13  C   UNL     1       5.966  14.993  21.908  0.00  0.00    +0.000 A 
ATOM     14  C   UNL     1       6.608  15.018  20.662  0.00  0.00    +0.000 A 
ATOM     15  C   UNL     1       8.128  15.238  20.482  0.00  0.00    +0.000 C 
ATOM     16  C   UNL     1       9.118  14.800  21.620  0.00  0.00    +0.000 C 
ATOM     17  C   UNL     1      10.628  14.457  21.146  0.00  0.00    +0.000 C 
ATOM     18  C   UNL     1      10.525  13.392  19.992  0.00  0.00    +0.000 C 
ATOM     19  C   UNL     1       9.850  12.228  20.819  0.00  0.00    +0.000 C 
ENDROOT
BRANCH  11  20
ATOM     20  C   UNL     1       2.344  14.145  20.832  0.00  0.00    +0.000 C 
ATOM     21  N   UNL     1       1.516  15.084  20.250  0.00  0.00    +0.000 N 
ATOM     22  O   UNL     1       1.846  13.128  21.291  0.00  0.00    +0.000 OA
ATOM     23  H   UNL     1       1.854  15.947  19.855  0.00  0.00    +0.000 HD
ATOM     24  H   UNL     1       0.532  14.873  20.212  0.00  0.00    +0.000 HD
ENDBRANCH  11  20
BRANCH  12  25
ATOM     25  O   UNL     1       4.257  14.688  23.384  0.00  0.00    +0.000 OA
ATOM     26  C   UNL     1       5.252  14.738  24.387  0.00  0.00    +0.000 C 
ENDBRANCH  12  25
TORSDOF 2
ENDMDL
MODEL 9
REMARK VINA RESULT:      -6.0      4.993      7.509
REMARK  Name = 
REMARK  4 active torsions:
REMARK  status: ('A' for Active; 'I' for Inactive)
REMARK    1  A    between atoms: C_11  and  C_12
REMARK    2  A    between atoms: C_15  and  O_16
REMARK    3  A    between atoms: O_16  and  C_17
REMARK    4  A    between atoms: C_23  and  C_24
REMARK                            x       y       z     vdW  Elec       q    Type
REMARK                         _______ _______ _______ _____ _____    ______ ____
ROOT
ATOM      1  C   UNL     1       1.405   9.837  18.010  0.00  0.00    +0.000 C 
ATOM      2  C   UNL     1       1.076  10.670  19.007  0.00  0.00    +0.000 C 
ATOM      3  C   UNL     1       1.112  12.150  18.687  0.00  0.00    +0.000 C 
ATOM      4  C   UNL     1       1.848  12.543  19.916  0.00  0.00    +0.000 C 
ATOM      5  C   UNL     1       1.002  11.854  20.987  0.00  0.00    +0.000 C 
ATOM      6  C   UNL     1      -0.129  12.673  21.540  0.00  0.00    +0.000 C 
ATOM      7  C   UNL     1       0.268  14.087  21.977  0.00  0.00    +0.000 C 
ATOM      8  C   UNL     1      -0.998  14.908  21.971  0.00  0.00    +0.000 C 
ATOM      9  C   UNL     1      -2.158  14.173  22.606  0.00  0.00    +0.000 A 
ATOM     10  C   UNL     1      -3.345  14.902  22.716  0.00  0.00    +0.000 A 
ATOM     11  C   UNL     1      -4.520  14.327  23.198  0.00  0.00    +0.000 A 
ATOM     12  C   UNL     1      -4.462  13.017  23.702  0.00  0.00    +0.000 A 
ATOM     13  C   UNL     1      -3.250  12.281  23.581  0.00  0.00    +0.000 A 
ATOM     14  C   UNL     1      -2.104  12.798  22.961  0.00  0.00    +0.000 A 
ATOM     15  C   UNL     1      -0.800  11.992  22.755  0.00  0.00    +0.000 C 
ATOM     16  C   UNL     1      -0.866  10.429  22.612  0.00  0.00    +0.000 C 
ATOM     17  C   UNL     1       0.349   9.745  21.788  0.00  0.00    +0.000 C 
ATOM     18  C   UNL     1       0.440  10.476  20.397  0.00  0.00    +0.000 C 
ATOM     19  C   UNL     1      -0.987  10.086  19.844  0.00  0.00    +0.000 C 
ENDROOT
BRANCH  11  20
ATOM     20  C   UNL     1      -5.690  15.262  23.178  0.00  0.00    +0.000 C 
ATOM     21  N   UNL     1      -5.937  15.972  24.335  0.00  0.00    +0.000 N 
ATOM     22  O   UNL     1      -6.455  15.392  22.234  0.00  0.00    +0.000 OA
ATOM     23  H   UNL     1      -5.353  15.913  25.153  0.00  0.00    +0.000 HD
ATOM     24  H   UNL     1      -6.735  16.587  24.338  0.00  0.00    +0.000 HD
ENDBRANCH  11  20
BRANCH  12  25
ATOM     25  O   UNL     1      -5.419  12.231  24.279  0.00  0.00    +0.000 OA
ATOM     26  C   UNL     1      -6.781  12.340  23.919  0.00  0.00    +0.000 C 
ENDBRANCH  12  25
TORSDOF 2
ENDMDL
