MODEL 1
REMARK VINA RESULT:      -7.0      0.000      0.000
REMARK  Name = 
REMARK  8 active torsions:
REMARK  status: ('A' for Active; 'I' for Inactive)
REMARK    1  A    between atoms: C_1  and  O_2
REMARK    2  A    between atoms: O_2  and  C_3
REMARK    3  A    between atoms: C_5  and  C_6
REMARK    4  A    between atoms: C_6  and  C_7
REMARK    5  A    between atoms: C_8  and  C_9
REMARK    6  A    between atoms: C_15  and  O_16
REMARK    7  A    between atoms: O_16  and  C_17
REMARK    8  A    between atoms: C_19  and  O_20
REMARK                            x       y       z     vdW  Elec       q    Type
REMARK                         _______ _______ _______ _____ _____    ______ ____
ROOT
ATOM      1  C   UNL     1       1.997   3.619  18.808  0.00  0.00    +0.000 A 
ATOM      2  C   UNL     1       2.211   4.998  18.686  0.00  0.00    +0.000 A 
ATOM      3  C   UNL     1       3.258   5.530  17.910  0.00  0.00    +0.000 A 
ATOM      4  C   UNL     1       4.081   4.636  17.199  0.00  0.00    +0.000 A 
ATOM      5  C   UNL     1       3.873   3.257  17.313  0.00  0.00    +0.000 A 
ATOM      6  C   UNL     1       2.847   2.751  18.123  0.00  0.00    +0.000 A 
ENDROOT
BRANCH   1   8
ATOM      7  C   UNL     1       1.195   2.989  20.972  0.00  0.00    +0.000 C 
ATOM      8  O   UNL     1       0.935   3.315  19.615  0.00  0.00    +0.000 OA
ENDBRANCH   1   8
BRANCH   4   9
ATOM      9  O   UNL     1       5.034   5.196  16.386  0.00  0.00    +0.000 OA
ATOM     10  C   UNL     1       6.323   4.590  16.392  0.00  0.00    +0.000 C 
ENDBRANCH   4   9
BRANCH   6  11
ATOM     11  O   UNL     1       2.703   1.393  18.208  0.00  0.00    +0.000 OA
ATOM     12  H   UNL     1       3.231   0.966  17.515  0.00  0.00    +0.000 HD
ENDBRANCH   6  11
BRANCH   3  13
ATOM     13  C   UNL     1       3.438   7.033  17.794  0.00  0.00    +0.000 C 
BRANCH  13  14
ATOM     14  C   UNL     1       2.306   7.852  18.361  0.00  0.00    +0.000 C 
ATOM     15  C   UNL     1       1.766   8.925  17.763  0.00  0.00    +0.000 C 
BRANCH  15  16
ATOM     16  C   UNL     1       0.732   9.718  18.431  0.00  0.00    +0.000 A 
ATOM     17  C   UNL     1       0.960  10.187  19.732  0.00  0.00    +0.000 A 
ATOM     18  C   UNL     1      -0.032  10.902  20.407  0.00  0.00    +0.000 A 
ATOM     19  C   UNL     1      -1.256  11.152  19.787  0.00  0.00    +0.000 A 
ATOM     20  C   UNL     1      -1.485  10.696  18.488  0.00  0.00    +0.000 A 
ATOM     21  C   UNL     1      -0.494   9.980  17.810  0.00  0.00    +0.000 A 
ENDBRANCH  15  16
ENDBRANCH  13  14
ENDBRANCH   3  13
TORSDOF 6
ENDMDL
MODEL 2
REMARK VINA RESULT:      -7.0      0.493      1.151
REMARK  Name = 
REMARK  8 active torsions:
REMARK  status: ('A' for Active; 'I' for Inactive)
REMARK    1  A    between atoms: C_1  and  O_2
REMARK    2  A    between atoms: O_2  and  C_3
REMARK    3  A    between atoms: C_5  and  C_6
REMARK    4  A    between atoms: C_6  and  C_7
REMARK    5  A    between atoms: C_8  and  C_9
REMARK    6  A    between atoms: C_15  and  O_16
REMARK    7  A    between atoms: O_16  and  C_17
REMARK    8  A    between atoms: C_19  and  O_20
REMARK                            x       y       z     vdW  Elec       q    Type
REMARK                         _______ _______ _______ _____ _____    ______ ____
ROOT
ATOM      1  C   UNL     1       2.062   3.735  18.685  0.00  0.00    +0.000 A 
ATOM      2  C   UNL     1       2.223   5.122  18.574  0.00  0.00    +0.000 A 
ATOM      3  C   UNL     1       3.278   5.699  17.842  0.00  0.00    +0.000 A 
ATOM      4  C   UNL     1       4.166   4.842  17.164  0.00  0.00    +0.000 A 
ATOM      5  C   UNL     1       4.010   3.456  17.267  0.00  0.00    +0.000 A 
ATOM      6  C   UNL     1       2.975   2.905  18.034  0.00  0.00    +0.000 A 
ENDROOT
BRANCH   1   8
ATOM      7  C   UNL     1       1.188   3.135  20.829  0.00  0.00    +0.000 C 
ATOM      8  O   UNL     1       0.982   3.384  19.447  0.00  0.00    +0.000 OA
ENDBRANCH   1   8
BRANCH   4   9
ATOM      9  O   UNL     1       5.127   5.445  16.391  0.00  0.00    +0.000 OA
ATOM     10  C   UNL     1       5.496   4.778  15.188  0.00  0.00    +0.000 C 
ENDBRANCH   4   9
BRANCH   6  11
ATOM     11  O   UNL     1       2.884   1.542  18.111  0.00  0.00    +0.000 OA
ATOM     12  H   UNL     1       2.113   1.298  18.648  0.00  0.00    +0.000 HD
ENDBRANCH   6  11
BRANCH   3  13
ATOM     13  C   UNL     1       3.400   7.209  17.735  0.00  0.00    +0.000 C 
BRANCH  13  14
ATOM     14  C   UNL     1       2.156   7.973  18.116  0.00  0.00    +0.000 C 
ATOM     15  C   UNL     1       1.991   9.294  17.948  0.00  0.00    +0.000 C 
BRANCH  15  16
ATOM     16  C   UNL     1       0.785   9.969  18.434  0.00  0.00    +0.000 A 
ATOM     17  C   UNL     1      -0.433   9.756  17.778  0.00  0.00    +0.000 A 
ATOM     18  C   UNL     1      -1.585  10.427  18.194  0.00  0.00    +0.000 A 
ATOM     19  C   UNL     1      -1.525  11.317  19.266  0.00  0.00    +0.000 A 
ATOM     20  C   UNL     1      -0.315  11.527  19.929  0.00  0.00    +0.000 A 
ATOM     21  C   UNL     1       0.838  10.856  19.515  0.00  0.00    +0.000 A 
ENDBRANCH  15  16
ENDBRANCH  13  14
ENDBRANCH   3  13
TORSDOF 6
ENDMDL
MODEL 3
REMARK VINA RESULT:      -6.9      1.753      2.188
REMARK  Name = 
REMARK  8 active torsions:
REMARK  status: ('A' for Active; 'I' for Inactive)
REMARK    1  A    between atoms: C_1  and  O_2
REMARK    2  A    between atoms: O_2  and  C_3
REMARK    3  A    between atoms: C_5  and  C_6
REMARK    4  A    between atoms: C_6  and  C_7
REMARK    5  A    between atoms: C_8  and  C_9
REMARK    6  A    between atoms: C_15  and  O_16
REMARK    7  A    between atoms: O_16  and  C_17
REMARK    8  A    between atoms: C_19  and  O_20
REMARK                            x       y       z     vdW  Elec       q    Type
REMARK                         _______ _______ _______ _____ _____    ______ ____
ROOT
ATOM      1  C   UNL     1       3.282   4.129  19.964  0.00  0.00    +0.000 A 
ATOM      2  C   UNL     1       2.722   5.387  19.702  0.00  0.00    +0.000 A 
ATOM      3  C   UNL     1       3.212   6.230  18.688  0.00  0.00    +0.000 A 
ATOM      4  C   UNL     1       4.269   5.762  17.884  0.00  0.00    +0.000 A 
ATOM      5  C   UNL     1       4.831   4.506  18.135  0.00  0.00    +0.000 A 
ATOM      6  C   UNL     1       4.351   3.701  19.177  0.00  0.00    +0.000 A 
ENDROOT
BRANCH   1   8
ATOM      7  C   UNL     1       1.381   2.918  20.766  0.00  0.00    +0.000 C 
ATOM      8  O   UNL     1       2.665   3.478  20.996  0.00  0.00    +0.000 OA
ENDBRANCH   1   8
BRANCH   4   9
ATOM      9  O   UNL     1       4.659   6.576  16.850  0.00  0.00    +0.000 OA
ATOM     10  C   UNL     1       5.332   5.954  15.760  0.00  0.00    +0.000 C 
ENDBRANCH   4   9
BRANCH   6  11
ATOM     11  O   UNL     1       4.953   2.490  19.387  0.00  0.00    +0.000 OA
ATOM     12  H   UNL     1       4.746   1.894  18.650  0.00  0.00    +0.000 HD
ENDBRANCH   6  11
BRANCH   3  13
ATOM     13  C   UNL     1       2.561   7.578  18.430  0.00  0.00    +0.000 C 
BRANCH  13  14
ATOM     14  C   UNL     1       1.797   8.145  19.600  0.00  0.00    +0.000 C 
ATOM     15  C   UNL     1       1.040   9.252  19.552  0.00  0.00    +0.000 C 
BRANCH  15  16
ATOM     16  C   UNL     1       0.409   9.785  20.762  0.00  0.00    +0.000 A 
ATOM     17  C   UNL     1       0.355   8.991  21.915  0.00  0.00    +0.000 A 
ATOM     18  C   UNL     1      -0.286   9.460  23.064  0.00  0.00    +0.000 A 
ATOM     19  C   UNL     1      -0.875  10.723  23.068  0.00  0.00    +0.000 A 
ATOM     20  C   UNL     1      -0.816  11.523  21.925  0.00  0.00    +0.000 A 
ATOM     21  C   UNL     1      -0.176  11.056  20.774  0.00  0.00    +0.000 A 
ENDBRANCH  15  16
ENDBRANCH  13  14
ENDBRANCH   3  13
TORSDOF 6
ENDMDL
MODEL 4
REMARK VINA RESULT:      -6.8      1.179      1.619
REMARK  Name = 
REMARK  8 active torsions:
REMARK  status: ('A' for Active; 'I' for Inactive)
REMARK    1  A    between atoms: C_1  and  O_2
REMARK    2  A    between atoms: O_2  and  C_3
REMARK    3  A    between atoms: C_5  and  C_6
REMARK    4  A    between atoms: C_6  and  C_7
REMARK    5  A    between atoms: C_8  and  C_9
REMARK    6  A    between atoms: C_15  and  O_16
REMARK    7  A    between atoms: O_16  and  C_17
REMARK    8  A    between atoms: C_19  and  O_20
REMARK                            x       y       z     vdW  Elec       q    Type
REMARK                         _______ _______ _______ _____ _____    ______ ____
ROOT
ATOM      1  C   UNL     1       1.965   3.488  18.983  0.00  0.00    +0.000 A 
ATOM      2  C   UNL     1       1.993   4.888  18.972  0.00  0.00    +0.000 A 
ATOM      3  C   UNL     1       2.907   5.614  18.186  0.00  0.00    +0.000 A 
ATOM      4  C   UNL     1       3.784   4.898  17.349  0.00  0.00    +0.000 A 
ATOM      5  C   UNL     1       3.760   3.499  17.351  0.00  0.00    +0.000 A 
ATOM      6  C   UNL     1       2.868   2.798  18.173  0.00  0.00    +0.000 A 
ENDROOT
BRANCH   1   8
ATOM      7  C   UNL     1       1.308   2.903  21.208  0.00  0.00    +0.000 C 
ATOM      8  O   UNL     1       1.010   2.982  19.822  0.00  0.00    +0.000 OA
ENDBRANCH   1   8
BRANCH   4   9
ATOM      9  O   UNL     1       4.598   5.643  16.533  0.00  0.00    +0.000 OA
ATOM     10  C   UNL     1       6.002   5.450  16.675  0.00  0.00    +0.000 C 
ENDBRANCH   4   9
BRANCH   6  11
ATOM     11  O   UNL     1       2.903   1.431  18.146  0.00  0.00    +0.000 OA
ATOM     12  H   UNL     1       3.611   1.136  17.551  0.00  0.00    +0.000 HD
ENDBRANCH   6  11
BRANCH   3  13
ATOM     13  C   UNL     1       2.887   7.133  18.193  0.00  0.00    +0.000 C 
BRANCH  13  14
ATOM     14  C   UNL     1       2.110   7.750  19.329  0.00  0.00    +0.000 C 
ATOM     15  C   UNL     1       1.446   8.914  19.256  0.00  0.00    +0.000 C 
BRANCH  15  16
ATOM     16  C   UNL     1       0.798   9.485  20.439  0.00  0.00    +0.000 A 
ATOM     17  C   UNL     1       0.663   8.704  21.593  0.00  0.00    +0.000 A 
ATOM     18  C   UNL     1       0.003   9.211  22.715  0.00  0.00    +0.000 A 
ATOM     19  C   UNL     1      -0.526  10.500  22.689  0.00  0.00    +0.000 A 
ATOM     20  C   UNL     1      -0.387  11.287  21.545  0.00  0.00    +0.000 A 
ATOM     21  C   UNL     1       0.273  10.782  20.421  0.00  0.00    +0.000 A 
ENDBRANCH  15  16
ENDBRANCH  13  14
ENDBRANCH   3  13
TORSDOF 6
ENDMDL
MODEL 5
REMARK VINA RESULT:      -6.8      1.390      1.785
REMARK  Name = 
REMARK  8 active torsions:
REMARK  status: ('A' for Active; 'I' for Inactive)
REMARK    1  A    between atoms: C_1  and  O_2
REMARK    2  A    between atoms: O_2  and  C_3
REMARK    3  A    between atoms: C_5  and  C_6
REMARK    4  A    between atoms: C_6  and  C_7
REMARK    5  A    between atoms: C_8  and  C_9
REMARK    6  A    between atoms: C_15  and  O_16
REMARK    7  A    between atoms: O_16  and  C_17
REMARK    8  A    between atoms: C_19  and  O_20
REMARK                            x       y       z     vdW  Elec       q    Type
REMARK                         _______ _______ _______ _____ _____    ______ ____
ROOT
ATOM      1  C   UNL     1       3.201   3.779  19.042  0.00  0.00    +0.000 A 
ATOM      2  C   UNL     1       2.908   5.035  18.495  0.00  0.00    +0.000 A 
ATOM      3  C   UNL     1       3.913   5.959  18.154  0.00  0.00    +0.000 A 
ATOM      4  C   UNL     1       5.257   5.576  18.327  0.00  0.00    +0.000 A 
ATOM      5  C   UNL     1       5.559   4.322  18.870  0.00  0.00    +0.000 A 
ATOM      6  C   UNL     1       4.539   3.435  19.238  0.00  0.00    +0.000 A 
ENDROOT
BRANCH   1   8
ATOM      7  C   UNL     1       1.502   3.146  20.602  0.00  0.00    +0.000 C 
ATOM      8  O   UNL     1       2.081   3.041  19.311  0.00  0.00    +0.000 OA
ENDBRANCH   1   8
BRANCH   4   9
ATOM      9  O   UNL     1       6.208   6.469  17.901  0.00  0.00    +0.000 OA
ATOM     10  C   UNL     1       7.551   6.221  18.306  0.00  0.00    +0.000 C 
ENDBRANCH   4   9
BRANCH   6  11
ATOM     11  O   UNL     1       4.895   2.231  19.780  0.00  0.00    +0.000 OA
ATOM     12  H   UNL     1       4.883   1.548  19.090  0.00  0.00    +0.000 HD
ENDBRANCH   6  11
BRANCH   3  13
ATOM     13  C   UNL     1       3.546   7.301  17.546  0.00  0.00    +0.000 C 
BRANCH  13  14
ATOM     14  C   UNL     1       2.371   7.989  18.194  0.00  0.00    +0.000 C 
ATOM     15  C   UNL     1       1.823   9.134  17.760  0.00  0.00    +0.000 C 
BRANCH  15  16
ATOM     16  C   UNL     1       0.743   9.782  18.508  0.00  0.00    +0.000 A 
ATOM     17  C   UNL     1      -0.493   9.995  17.884  0.00  0.00    +0.000 A 
ATOM     18  C   UNL     1      -1.521  10.655  18.561  0.00  0.00    +0.000 A 
ATOM     19  C   UNL     1      -1.319  11.108  19.864  0.00  0.00    +0.000 A 
ATOM     20  C   UNL     1      -0.093  10.891  20.494  0.00  0.00    +0.000 A 
ATOM     21  C   UNL     1       0.937  10.230  19.819  0.00  0.00    +0.000 A 
ENDBRANCH  15  16
ENDBRANCH  13  14
ENDBRANCH   3  13
TORSDOF 6
ENDMDL
MODEL 6
REMARK VINA RESULT:      -6.7      2.304      6.805
REMARK  Name = 
REMARK  8 active torsions:
REMARK  status: ('A' for Active; 'I' for Inactive)
REMARK    1  A    between atoms: C_1  and  O_2
REMARK    2  A    between atoms: O_2  and  C_3
REMARK    3  A    between atoms: C_5  and  C_6
REMARK    4  A    between atoms: C_6  and  C_7
REMARK    5  A    between atoms: C_8  and  C_9
REMARK    6  A    between atoms: C_15  and  O_16
REMARK    7  A    between atoms: O_16  and  C_17
REMARK    8  A    between atoms: C_19  and  O_20
REMARK                            x       y       z     vdW  Elec       q    Type
REMARK                         _______ _______ _______ _____ _____    ______ ____
ROOT
ATOM      1  C   UNL     1       2.369   3.251  18.926  0.00  0.00    +0.000 A 
ATOM      2  C   UNL     1       3.375   4.001  18.304  0.00  0.00    +0.000 A 
ATOM      3  C   UNL     1       3.485   5.394  18.471  0.00  0.00    +0.000 A 
ATOM      4  C   UNL     1       2.576   6.036  19.333  0.00  0.00    +0.000 A 
ATOM      5  C   UNL     1       1.569   5.294  19.961  0.00  0.00    +0.000 A 
ATOM      6  C   UNL     1       1.457   3.914  19.748  0.00  0.00    +0.000 A 
ENDROOT
BRANCH   1   8
ATOM      7  C   UNL     1       3.696   1.373  18.267  0.00  0.00    +0.000 C 
ATOM      8  O   UNL     1       2.435   1.918  18.624  0.00  0.00    +0.000 OA
ENDBRANCH   1   8
BRANCH   4   9
ATOM      9  O   UNL     1       2.770   7.379  19.538  0.00  0.00    +0.000 OA
ATOM     10  C   UNL     1       1.879   8.267  18.871  0.00  0.00    +0.000 C 
ENDBRANCH   4   9
BRANCH   6  11
ATOM     11  O   UNL     1       0.442   3.244  20.375  0.00  0.00    +0.000 OA
ATOM     12  H   UNL     1       0.797   2.751  21.132  0.00  0.00    +0.000 HD
ENDBRANCH   6  11
BRANCH   3  13
ATOM     13  C   UNL     1       4.605   6.162  17.790  0.00  0.00    +0.000 C 
BRANCH  13  14
ATOM     14  C   UNL     1       4.931   5.698  16.393  0.00  0.00    +0.000 C 
ATOM     15  C   UNL     1       6.062   5.064  16.044  0.00  0.00    +0.000 C 
BRANCH  15  16
ATOM     16  C   UNL     1       6.338   4.734  14.644  0.00  0.00    +0.000 A 
ATOM     17  C   UNL     1       5.519   3.809  13.982  0.00  0.00    +0.000 A 
ATOM     18  C   UNL     1       5.794   3.442  12.663  0.00  0.00    +0.000 A 
ATOM     19  C   UNL     1       6.888   3.996  11.999  0.00  0.00    +0.000 A 
ATOM     20  C   UNL     1       7.702   4.924  12.650  0.00  0.00    +0.000 A 
ATOM     21  C   UNL     1       7.429   5.293  13.970  0.00  0.00    +0.000 A 
ENDBRANCH  15  16
ENDBRANCH  13  14
ENDBRANCH   3  13
TORSDOF 6
ENDMDL
MODEL 7
REMARK VINA RESULT:      -6.7      1.377      1.970
REMARK  Name = 
REMARK  8 active torsions:
REMARK  status: ('A' for Active; 'I' for Inactive)
REMARK    1  A    between atoms: C_1  and  O_2
REMARK    2  A    between atoms: O_2  and  C_3
REMARK    3  A    between atoms: C_5  and  C_6
REMARK    4  A    between atoms: C_6  and  C_7
REMARK    5  A    between atoms: C_8  and  C_9
REMARK    6  A    between atoms: C_15  and  O_16
REMARK    7  A    between atoms: O_16  and  C_17
REMARK    8  A    between atoms: C_19  and  O_20
REMARK                            x       y       z     vdW  Elec       q    Type
REMARK                         _______ _______ _______ _____ _____    ______ ____
ROOT
ATOM      1  C   UNL     1       2.686   3.623  18.694  0.00  0.00    +0.000 A 
ATOM      2  C   UNL     1       2.445   5.003  18.674  0.00  0.00    +0.000 A 
ATOM      3  C   UNL     1       3.268   5.899  17.965  0.00  0.00    +0.000 A 
ATOM      4  C   UNL     1       4.336   5.372  17.215  0.00  0.00    +0.000 A 
ATOM      5  C   UNL     1       4.582   3.994  17.226  0.00  0.00    +0.000 A 
ATOM      6  C   UNL     1       3.772   3.127  17.972  0.00  0.00    +0.000 A 
ENDROOT
BRANCH   1   8
ATOM      7  C   UNL     1       0.663   2.351  18.793  0.00  0.00    +0.000 C 
ATOM      8  O   UNL     1       1.777   2.936  19.450  0.00  0.00    +0.000 OA
ENDBRANCH   1   8
BRANCH   4   9
ATOM      9  O   UNL     1       5.060   6.267  16.467  0.00  0.00    +0.000 OA
ATOM     10  C   UNL     1       6.476   6.228  16.610  0.00  0.00    +0.000 C 
ENDBRANCH   4   9
BRANCH   6  11
ATOM     11  O   UNL     1       4.072   1.793  17.958  0.00  0.00    +0.000 OA
ATOM     12  H   UNL     1       4.560   1.578  17.147  0.00  0.00    +0.000 HD
ENDBRANCH   6  11
BRANCH   3  13
ATOM     13  C   UNL     1       2.955   7.385  17.959  0.00  0.00    +0.000 C 
BRANCH  13  14
ATOM     14  C   UNL     1       2.165   7.870  19.148  0.00  0.00    +0.000 C 
ATOM     15  C   UNL     1       1.383   8.961  19.151  0.00  0.00    +0.000 C 
BRANCH  15  16
ATOM     16  C   UNL     1       0.726   9.413  20.380  0.00  0.00    +0.000 A 
ATOM     17  C   UNL     1      -0.115  10.532  20.337  0.00  0.00    +0.000 A 
ATOM     18  C   UNL     1      -0.712  11.010  21.506  0.00  0.00    +0.000 A 
ATOM     19  C   UNL     1      -0.472  10.373  22.723  0.00  0.00    +0.000 A 
ATOM     20  C   UNL     1       0.358   9.252  22.770  0.00  0.00    +0.000 A 
ATOM     21  C   UNL     1       0.957   8.772  21.602  0.00  0.00    +0.000 A 
ENDBRANCH  15  16
ENDBRANCH  13  14
ENDBRANCH   3  13
TORSDOF 6
ENDMDL
MODEL 8
REMARK VINA RESULT:      -6.7      1.000      1.039
REMARK  Name = 
REMARK  8 active torsions:
REMARK  status: ('A' for Active; 'I' for Inactive)
REMARK    1  A    between atoms: C_1  and  O_2
REMARK    2  A    between atoms: O_2  and  C_3
REMARK    3  A    between atoms: C_5  and  C_6
REMARK    4  A    between atoms: C_6  and  C_7
REMARK    5  A    between atoms: C_8  and  C_9
REMARK    6  A    between atoms: C_15  and  O_16
REMARK    7  A    between atoms: O_16  and  C_17
REMARK    8  A    between atoms: C_19  and  O_20
REMARK                            x       y       z     vdW  Elec       q    Type
REMARK                         _______ _______ _______ _____ _____    ______ ____
ROOT
ATOM      1  C   UNL     1       2.555   3.503  17.861  0.00  0.00    +0.000 A 
ATOM      2  C   UNL     1       2.602   4.900  17.759  0.00  0.00    +0.000 A 
ATOM      3  C   UNL     1       3.811   5.600  17.585  0.00  0.00    +0.000 A 
ATOM      4  C   UNL     1       5.000   4.856  17.461  0.00  0.00    +0.000 A 
ATOM      5  C   UNL     1       4.962   3.461  17.558  0.00  0.00    +0.000 A 
ATOM      6  C   UNL     1       3.750   2.789  17.771  0.00  0.00    +0.000 A 
ENDROOT
BRANCH   1   8
ATOM      7  C   UNL     1       0.832   2.799  19.363  0.00  0.00    +0.000 C 
ATOM      8  O   UNL     1       1.286   3.026  18.038  0.00  0.00    +0.000 OA
ENDBRANCH   1   8
BRANCH   4   9
ATOM      9  O   UNL     1       6.144   5.569  17.204  0.00  0.00    +0.000 OA
ATOM     10  C   UNL     1       7.331   5.142  17.865  0.00  0.00    +0.000 C 
ENDBRANCH   4   9
BRANCH   6  11
ATOM     11  O   UNL     1       3.778   1.426  17.875  0.00  0.00    +0.000 OA
ATOM     12  H   UNL     1       3.052   1.129  18.447  0.00  0.00    +0.000 HD
ENDBRANCH   6  11
BRANCH   3  13
ATOM     13  C   UNL     1       3.809   7.114  17.462  0.00  0.00    +0.000 C 
BRANCH  13  14
ATOM     14  C   UNL     1       2.722   7.810  18.241  0.00  0.00    +0.000 C 
ATOM     15  C   UNL     1       1.906   8.750  17.739  0.00  0.00    +0.000 C 
BRANCH  15  16
ATOM     16  C   UNL     1       0.940   9.443  18.594  0.00  0.00    +0.000 A 
ATOM     17  C   UNL     1       1.088   9.383  19.986  0.00  0.00    +0.000 A 
ATOM     18  C   UNL     1       0.151   9.994  20.822  0.00  0.00    +0.000 A 
ATOM     19  C   UNL     1      -0.940  10.666  20.272  0.00  0.00    +0.000 A 
ATOM     20  C   UNL     1      -1.088  10.737  18.886  0.00  0.00    +0.000 A 
ATOM     21  C   UNL     1      -0.152  10.127  18.048  0.00  0.00    +0.000 A 
ENDBRANCH  15  16
ENDBRANCH  13  14
ENDBRANCH   3  13
TORSDOF 6
ENDMDL
MODEL 9
REMARK VINA RESULT:      -6.7      1.321      1.713
REMARK  Name = 
REMARK  8 active torsions:
REMARK  status: ('A' for Active; 'I' for Inactive)
REMARK    1  A    between atoms: C_1  and  O_2
REMARK    2  A    between atoms: O_2  and  C_3
REMARK    3  A    between atoms: C_5  and  C_6
REMARK    4  A    between atoms: C_6  and  C_7
REMARK    5  A    between atoms: C_8  and  C_9
REMARK    6  A    between atoms: C_15  and  O_16
REMARK    7  A    between atoms: O_16  and  C_17
REMARK    8  A    between atoms: C_19  and  O_20
REMARK                            x       y       z     vdW  Elec       q    Type
REMARK                         _______ _______ _______ _____ _____    ______ ____
ROOT
ATOM      1  C   UNL     1       3.434   4.290  19.651  0.00  0.00    +0.000 A 
ATOM      2  C   UNL     1       3.063   5.519  19.093  0.00  0.00    +0.000 A 
ATOM      3  C   UNL     1       3.844   6.170  18.119  0.00  0.00    +0.000 A 
ATOM      4  C   UNL     1       5.012   5.528  17.664  0.00  0.00    +0.000 A 
ATOM      5  C   UNL     1       5.389   4.297  18.214  0.00  0.00    +0.000 A 
ATOM      6  C   UNL     1       4.614   3.689  19.210  0.00  0.00    +0.000 A 
ENDROOT
BRANCH   1   8
ATOM      7  C   UNL     1       1.439   3.065  20.140  0.00  0.00    +0.000 C 
ATOM      8  O   UNL     1       2.543   3.838  20.584  0.00  0.00    +0.000 OA
ENDBRANCH   1   8
BRANCH   4   9
ATOM      9  O   UNL     1       5.699   6.151  16.653  0.00  0.00    +0.000 OA
ATOM     10  C   UNL     1       5.689   5.513  15.380  0.00  0.00    +0.000 C 
ENDBRANCH   4   9
BRANCH   6  11
ATOM     11  O   UNL     1       5.043   2.495  19.722  0.00  0.00    +0.000 OA
ATOM     12  H   UNL     1       5.205   1.871  18.997  0.00  0.00    +0.000 HD
ENDBRANCH   6  11
BRANCH   3  13
ATOM     13  C   UNL     1       3.390   7.494  17.530  0.00  0.00    +0.000 C 
BRANCH  13  14
ATOM     14  C   UNL     1       2.355   8.227  18.346  0.00  0.00    +0.000 C 
ATOM     15  C   UNL     1       1.457   9.089  17.843  0.00  0.00    +0.000 C 
BRANCH  15  16
ATOM     16  C   UNL     1       0.550   9.829  18.723  0.00  0.00    +0.000 A 
ATOM     17  C   UNL     1      -0.632  10.365  18.196  0.00  0.00    +0.000 A 
ATOM     18  C   UNL     1      -1.487  11.117  19.006  0.00  0.00    +0.000 A 
ATOM     19  C   UNL     1      -1.165  11.338  20.344  0.00  0.00    +0.000 A 
ATOM     20  C   UNL     1       0.007  10.799  20.877  0.00  0.00    +0.000 A 
ATOM     21  C   UNL     1       0.864  10.046  20.069  0.00  0.00    +0.000 A 
ENDBRANCH  15  16
ENDBRANCH  13  14
ENDBRANCH   3  13
TORSDOF 6
ENDMDL
